MODEL 1
REMARK VINA RESULT:     -13.5      0.000      0.000
REMARK  Name = 49866474
REMARK  7 active torsions:
REMARK  status: ('A' for Active; 'I' for Inactive)
REMARK    1  A    between atoms: O_1  and  C_3
REMARK    2  A    between atoms: O_1  and  C_18
REMARK    3  A    between atoms: C_4  and  C_10
REMARK    4  A    between atoms: C_18  and  C_19
REMARK    5  A    between atoms: C_19  and  N_20
REMARK    6  A    between atoms: C_19  and  C_24
REMARK    7  A    between atoms: C_24  and  C_26
REMARK                            x       y       z     vdW  Elec       q    Type
REMARK                         _______ _______ _______ _____ _____    ______ ____
ROOT
ATOM      1  O   UNL     1      34.870 -16.344 -22.677  0.00  0.00    -0.476 OA
ENDROOT
BRANCH   1   3
ATOM      2  N   UNL     1      33.197 -14.690 -25.479  0.00  0.00    -0.239 NA
ATOM      3  C   UNL     1      34.154 -15.409 -23.378  0.00  0.00    +0.158 C 
ATOM      4  C   UNL     1      32.939 -13.336 -23.492  0.00  0.00    +0.022 C 
ATOM      5  C   UNL     1      33.663 -14.267 -22.755  0.00  0.00    +0.040 C 
ATOM      6  C   UNL     1      33.896 -15.571 -24.730  0.00  0.00    +0.136 C 
ATOM      7  C   UNL     1      32.735 -13.592 -24.838  0.00  0.00    +0.099 C 
BRANCH   4  10
ATOM      8  N   UNL     1      31.056  -8.598 -21.328  0.00  0.00    -0.236 N 
ATOM      9  N   UNL     1      31.501  -7.654 -22.176  0.00  0.00    -0.180 NA
ATOM     10  C   UNL     1      32.416 -12.141 -22.873  0.00  0.00    +0.002 C 
ATOM     11  C   UNL     1      32.148  -9.745 -22.845  0.00  0.00    +0.035 C 
ATOM     12  C   UNL     1      32.664 -10.895 -23.464  0.00  0.00    +0.003 C 
ATOM     13  C   UNL     1      31.410  -9.874 -21.673  0.00  0.00    +0.067 C 
ATOM     14  C   UNL     1      31.672 -12.242 -21.697  0.00  0.00    +0.001 C 
ATOM     15  C   UNL     1      31.152 -11.105 -21.069  0.00  0.00    +0.016 C 
ATOM     16  C   UNL     1      32.164  -8.356 -23.097  0.00  0.00    +0.119 C 
ATOM     17  H   UNL     1      30.521  -8.389 -20.529  0.00  0.00    +0.174 HD
ENDBRANCH   4  10
ENDBRANCH   1   3
BRANCH   1  18
ATOM     18  C   UNL     1      34.744 -17.696 -23.098  0.00  0.00    +0.184 C 
BRANCH  18  19
ATOM     19  C   UNL     1      35.419 -18.635 -22.092  0.00  0.00    -0.017 C 
BRANCH  19  20
ATOM     20  N   UNL     1      36.834 -18.263 -21.994  0.00  0.00    +0.384 N 
ATOM     21  H   UNL     1      37.122 -18.276 -21.015  0.00  0.00    -0.089 HD
ATOM     22  H   UNL     1      36.966 -17.327 -22.375  0.00  0.00    -0.089 HD
ATOM     23  H   UNL     1      37.398 -18.928 -22.523  0.00  0.00    -0.089 HD
ENDBRANCH  19  20
BRANCH  19  24
ATOM     24  C   UNL     1      34.782 -18.576 -20.682  0.00  0.00    +0.006 C 
BRANCH  24  26
ATOM     25  N   UNL     1      32.340 -21.264 -19.722  0.00  0.00    -0.234 NA
ATOM     26  C   UNL     1      34.196 -19.847 -20.218  0.00  0.00    -0.024 C 
ATOM     27  C   UNL     1      34.637 -20.837 -19.442  0.00  0.00    +0.065 C 
ATOM     28  C   UNL     1      33.583 -21.885 -19.223  0.00  0.00    +0.122 C 
ATOM     29  C   UNL     1      32.772 -20.192 -20.321  0.00  0.00    +0.072 C 
ATOM     30  C   UNL     1      35.864 -20.942 -18.694  0.00  0.00    -0.020 C 
ATOM     31  C   UNL     1      33.529 -22.327 -17.787  0.00  0.00    -0.004 C 
ATOM     32  C   UNL     1      35.852 -21.625 -17.534  0.00  0.00    -0.004 C 
ATOM     33  C   UNL     1      34.625 -22.213 -17.014  0.00  0.00    -0.003 C 
ENDBRANCH  24  26
ENDBRANCH  19  24
ENDBRANCH  18  19
ENDBRANCH   1  18
TORSDOF 7
ENDMDL
MODEL 2
REMARK VINA RESULT:     -13.4      1.653     10.116
REMARK  Name = 49866474
REMARK  7 active torsions:
REMARK  status: ('A' for Active; 'I' for Inactive)
REMARK    1  A    between atoms: O_1  and  C_3
REMARK    2  A    between atoms: O_1  and  C_18
REMARK    3  A    between atoms: C_4  and  C_10
REMARK    4  A    between atoms: C_18  and  C_19
REMARK    5  A    between atoms: C_19  and  N_20
REMARK    6  A    between atoms: C_19  and  C_24
REMARK    7  A    between atoms: C_24  and  C_26
REMARK                            x       y       z     vdW  Elec       q    Type
REMARK                         _______ _______ _______ _____ _____    ______ ____
ROOT
ATOM      1  O   UNL     1      34.584 -14.655 -23.079  0.00  0.00    -0.476 OA
ENDROOT
BRANCH   1   3
ATOM      2  N   UNL     1      33.582 -17.840 -24.574  0.00  0.00    -0.239 NA
ATOM      3  C   UNL     1      34.335 -15.996 -23.202  0.00  0.00    +0.158 C 
ATOM      4  C   UNL     1      34.304 -18.226 -22.299  0.00  0.00    +0.022 C 
ATOM      5  C   UNL     1      34.565 -16.869 -22.144  0.00  0.00    +0.040 C 
ATOM      6  C   UNL     1      33.847 -16.528 -24.385  0.00  0.00    +0.136 C 
ATOM      7  C   UNL     1      33.818 -18.657 -23.522  0.00  0.00    +0.099 C 
BRANCH   4  10
ATOM      8  N   UNL     1      34.897 -21.847 -18.150  0.00  0.00    -0.236 N 
ATOM      9  N   UNL     1      33.648 -22.287 -17.922  0.00  0.00    -0.180 NA
ATOM     10  C   UNL     1      34.532 -19.156 -21.218  0.00  0.00    +0.002 C 
ATOM     11  C   UNL     1      33.692 -20.753 -19.619  0.00  0.00    +0.035 C 
ATOM     12  C   UNL     1      33.448 -19.854 -20.670  0.00  0.00    +0.003 C 
ATOM     13  C   UNL     1      34.992 -20.924 -19.156  0.00  0.00    +0.067 C 
ATOM     14  C   UNL     1      35.827 -19.347 -20.734  0.00  0.00    +0.001 C 
ATOM     15  C   UNL     1      36.086 -20.238 -19.688  0.00  0.00    +0.016 C 
ATOM     16  C   UNL     1      32.919 -21.620 -18.818  0.00  0.00    +0.119 C 
ATOM     17  H   UNL     1      35.677 -22.161 -17.637  0.00  0.00    +0.174 HD
ENDBRANCH   4  10
ENDBRANCH   1   3
BRANCH   1  18
ATOM     18  C   UNL     1      33.814 -13.945 -22.117  0.00  0.00    +0.184 C 
BRANCH  18  19
ATOM     19  C   UNL     1      33.013 -12.826 -22.793  0.00  0.00    -0.017 C 
BRANCH  19  20
ATOM     20  N   UNL     1      32.407 -13.367 -24.013  0.00  0.00    +0.384 N 
ATOM     21  H   UNL     1      31.602 -13.942 -23.767  0.00  0.00    -0.089 HD
ATOM     22  H   UNL     1      33.092 -13.935 -24.509  0.00  0.00    -0.089 HD
ATOM     23  H   UNL     1      32.105 -12.598 -24.612  0.00  0.00    -0.089 HD
ENDBRANCH  19  20
BRANCH  19  24
ATOM     24  C   UNL     1      31.897 -12.246 -21.889  0.00  0.00    +0.006 C 
BRANCH  24  26
ATOM     25  N   UNL     1      32.003  -8.716 -23.171  0.00  0.00    -0.234 NA
ATOM     26  C   UNL     1      31.657 -10.801 -22.061  0.00  0.00    -0.024 C 
ATOM     27  C   UNL     1      31.237  -9.833 -21.245  0.00  0.00    +0.065 C 
ATOM     28  C   UNL     1      31.243  -8.492 -21.924  0.00  0.00    +0.122 C 
ATOM     29  C   UNL     1      32.120 -10.011 -23.210  0.00  0.00    +0.072 C 
ATOM     30  C   UNL     1      30.955  -9.878 -19.833  0.00  0.00    -0.020 C 
ATOM     31  C   UNL     1      31.805  -7.421 -21.032  0.00  0.00    -0.004 C 
ATOM     32  C   UNL     1      31.186  -8.774 -19.098  0.00  0.00    -0.004 C 
ATOM     33  C   UNL     1      31.747  -7.569 -19.695  0.00  0.00    -0.003 C 
ENDBRANCH  24  26
ENDBRANCH  19  24
ENDBRANCH  18  19
ENDBRANCH   1  18
TORSDOF 7
ENDMDL
MODEL 3
REMARK VINA RESULT:     -13.1      3.034     11.014
REMARK  Name = 49866474
REMARK  7 active torsions:
REMARK  status: ('A' for Active; 'I' for Inactive)
REMARK    1  A    between atoms: O_1  and  C_3
REMARK    2  A    between atoms: O_1  and  C_18
REMARK    3  A    between atoms: C_4  and  C_10
REMARK    4  A    between atoms: C_18  and  C_19
REMARK    5  A    between atoms: C_19  and  N_20
REMARK    6  A    between atoms: C_19  and  C_24
REMARK    7  A    between atoms: C_24  and  C_26
REMARK                            x       y       z     vdW  Elec       q    Type
REMARK                         _______ _______ _______ _____ _____    ______ ____
ROOT
ATOM      1  O   UNL     1      34.493 -20.037 -20.687  0.00  0.00    -0.476 OA
ENDROOT
BRANCH   1   3
ATOM      2  N   UNL     1      32.145 -21.811 -18.514  0.00  0.00    -0.239 NA
ATOM      3  C   UNL     1      34.019 -20.764 -19.627  0.00  0.00    +0.158 C 
ATOM      4  C   UNL     1      34.360 -21.930 -17.551  0.00  0.00    +0.022 C 
ATOM      5  C   UNL     1      34.870 -21.192 -18.614  0.00  0.00    +0.040 C 
ATOM      6  C   UNL     1      32.677 -21.096 -19.530  0.00  0.00    +0.136 C 
ATOM      7  C   UNL     1      33.004 -22.211 -17.548  0.00  0.00    +0.099 C 
BRANCH   4  10
ATOM      8  N   UNL     1      37.422 -23.820 -13.340  0.00  0.00    -0.236 N 
ATOM      9  N   UNL     1      36.549 -24.510 -12.587  0.00  0.00    -0.180 NA
ATOM     10  C   UNL     1      35.218 -22.390 -16.484  0.00  0.00    +0.002 C 
ATOM     11  C   UNL     1      35.529 -23.607 -14.426  0.00  0.00    +0.035 C 
ATOM     12  C   UNL     1      34.678 -23.172 -15.454  0.00  0.00    +0.003 C 
ATOM     13  C   UNL     1      36.874 -23.252 -14.458  0.00  0.00    +0.067 C 
ATOM     14  C   UNL     1      36.571 -22.049 -16.491  0.00  0.00    +0.001 C 
ATOM     15  C   UNL     1      37.431 -22.474 -15.474  0.00  0.00    +0.016 C 
ATOM     16  C   UNL     1      35.399 -24.378 -13.251  0.00  0.00    +0.119 C 
ATOM     17  H   UNL     1      38.374 -23.730 -13.107  0.00  0.00    +0.174 HD
ENDBRANCH   4  10
ENDBRANCH   1   3
BRANCH   1  18
ATOM     18  C   UNL     1      35.857 -19.639 -20.634  0.00  0.00    +0.184 C 
BRANCH  18  19
ATOM     19  C   UNL     1      36.015 -18.198 -21.135  0.00  0.00    -0.017 C 
BRANCH  19  20
ATOM     20  N   UNL     1      37.278 -18.105 -21.872  0.00  0.00    +0.384 N 
ATOM     21  H   UNL     1      37.995 -18.646 -21.388  0.00  0.00    -0.089 HD
ATOM     22  H   UNL     1      37.568 -17.129 -21.927  0.00  0.00    -0.089 HD
ATOM     23  H   UNL     1      37.151 -18.475 -22.814  0.00  0.00    -0.089 HD
ENDBRANCH  19  20
BRANCH  19  24
ATOM     24  C   UNL     1      34.857 -17.745 -22.057  0.00  0.00    +0.006 C 
BRANCH  24  26
ATOM     25  N   UNL     1      33.853 -14.295 -20.959  0.00  0.00    -0.234 NA
ATOM     26  C   UNL     1      34.586 -16.295 -22.037  0.00  0.00    -0.024 C 
ATOM     27  C   UNL     1      34.345 -15.389 -22.984  0.00  0.00    +0.065 C 
ATOM     28  C   UNL     1      34.053 -14.036 -22.399  0.00  0.00    +0.122 C 
ATOM     29  C   UNL     1      34.242 -15.531 -20.830  0.00  0.00    +0.072 C 
ATOM     30  C   UNL     1      34.174 -15.565 -24.404  0.00  0.00    -0.020 C 
ATOM     31  C   UNL     1      32.890 -13.374 -23.083  0.00  0.00    -0.004 C 
ATOM     32  C   UNL     1      33.337 -14.737 -25.057  0.00  0.00    -0.004 C 
ATOM     33  C   UNL     1      32.584 -13.709 -24.350  0.00  0.00    -0.003 C 
ENDBRANCH  24  26
ENDBRANCH  19  24
ENDBRANCH  18  19
ENDBRANCH   1  18
TORSDOF 7
ENDMDL
MODEL 4
REMARK VINA RESULT:     -12.8      2.873     10.962
REMARK  Name = 49866474
REMARK  7 active torsions:
REMARK  status: ('A' for Active; 'I' for Inactive)
REMARK    1  A    between atoms: O_1  and  C_3
REMARK    2  A    between atoms: O_1  and  C_18
REMARK    3  A    between atoms: C_4  and  C_10
REMARK    4  A    between atoms: C_18  and  C_19
REMARK    5  A    between atoms: C_19  and  N_20
REMARK    6  A    between atoms: C_19  and  C_24
REMARK    7  A    between atoms: C_24  and  C_26
REMARK                            x       y       z     vdW  Elec       q    Type
REMARK                         _______ _______ _______ _____ _____    ______ ____
ROOT
ATOM      1  O   UNL     1      34.747 -20.156 -20.850  0.00  0.00    -0.476 OA
ENDROOT
BRANCH   1   3
ATOM      2  N   UNL     1      32.224 -21.707 -18.702  0.00  0.00    -0.239 NA
ATOM      3  C   UNL     1      34.193 -20.806 -19.778  0.00  0.00    +0.158 C 
ATOM      4  C   UNL     1      34.386 -21.881 -17.635  0.00  0.00    +0.022 C 
ATOM      5  C   UNL     1      34.977 -21.222 -18.708  0.00  0.00    +0.040 C 
ATOM      6  C   UNL     1      32.833 -21.070 -19.727  0.00  0.00    +0.136 C 
ATOM      7  C   UNL     1      33.019 -22.097 -17.680  0.00  0.00    +0.099 C 
BRANCH   4  10
ATOM      8  N   UNL     1      37.170 -23.706 -13.208  0.00  0.00    -0.236 N 
ATOM      9  N   UNL     1      36.244 -24.364 -12.490  0.00  0.00    -0.180 NA
ATOM     10  C   UNL     1      35.174 -22.325 -16.509  0.00  0.00    +0.002 C 
ATOM     11  C   UNL     1      35.347 -23.494 -14.407  0.00  0.00    +0.035 C 
ATOM     12  C   UNL     1      34.563 -23.073 -15.494  0.00  0.00    +0.003 C 
ATOM     13  C   UNL     1      36.696 -23.160 -14.370  0.00  0.00    +0.067 C 
ATOM     14  C   UNL     1      36.531 -22.004 -16.447  0.00  0.00    +0.001 C 
ATOM     15  C   UNL     1      37.324 -22.416 -15.371  0.00  0.00    +0.016 C 
ATOM     16  C   UNL     1      35.137 -24.233 -13.223  0.00  0.00    +0.119 C 
ATOM     17  H   UNL     1      38.109 -23.625 -12.923  0.00  0.00    +0.174 HD
ENDBRANCH   4  10
ENDBRANCH   1   3
BRANCH   1  18
ATOM     18  C   UNL     1      34.120 -18.949 -21.263  0.00  0.00    +0.184 C 
BRANCH  18  19
ATOM     19  C   UNL     1      35.116 -17.785 -21.218  0.00  0.00    -0.017 C 
BRANCH  19  20
ATOM     20  N   UNL     1      36.334 -18.248 -20.547  0.00  0.00    +0.384 N 
ATOM     21  H   UNL     1      36.772 -18.981 -21.104  0.00  0.00    -0.089 HD
ATOM     22  H   UNL     1      36.095 -18.617 -19.627  0.00  0.00    -0.089 HD
ATOM     23  H   UNL     1      36.982 -17.467 -20.442  0.00  0.00    -0.089 HD
ENDBRANCH  19  20
BRANCH  19  24
ATOM     24  C   UNL     1      35.486 -17.247 -22.622  0.00  0.00    +0.006 C 
BRANCH  24  26
ATOM     25  N   UNL     1      33.424 -15.270 -25.062  0.00  0.00    -0.234 NA
ATOM     26  C   UNL     1      34.497 -16.323 -23.207  0.00  0.00    -0.024 C 
ATOM     27  C   UNL     1      33.853 -15.250 -22.748  0.00  0.00    +0.065 C 
ATOM     28  C   UNL     1      32.994 -14.620 -23.808  0.00  0.00    +0.122 C 
ATOM     29  C   UNL     1      34.183 -16.240 -24.640  0.00  0.00    +0.072 C 
ATOM     30  C   UNL     1      33.994 -14.561 -21.491  0.00  0.00    -0.020 C 
ATOM     31  C   UNL     1      33.118 -13.122 -23.805  0.00  0.00    -0.004 C 
ATOM     32  C   UNL     1      33.791 -13.230 -21.462  0.00  0.00    -0.004 C 
ATOM     33  C   UNL     1      33.477 -12.486 -22.674  0.00  0.00    -0.003 C 
ENDBRANCH  24  26
ENDBRANCH  19  24
ENDBRANCH  18  19
ENDBRANCH   1  18
TORSDOF 7
ENDMDL
MODEL 5
REMARK VINA RESULT:     -12.7      4.650      7.974
REMARK  Name = 49866474
REMARK  7 active torsions:
REMARK  status: ('A' for Active; 'I' for Inactive)
REMARK    1  A    between atoms: O_1  and  C_3
REMARK    2  A    between atoms: O_1  and  C_18
REMARK    3  A    between atoms: C_4  and  C_10
REMARK    4  A    between atoms: C_18  and  C_19
REMARK    5  A    between atoms: C_19  and  N_20
REMARK    6  A    between atoms: C_19  and  C_24
REMARK    7  A    between atoms: C_24  and  C_26
REMARK                            x       y       z     vdW  Elec       q    Type
REMARK                         _______ _______ _______ _____ _____    ______ ____
ROOT
ATOM      1  O   UNL     1      35.943 -22.053 -17.912  0.00  0.00    -0.476 OA
ENDROOT
BRANCH   1   3
ATOM      2  N   UNL     1      32.550 -21.577 -19.198  0.00  0.00    -0.239 NA
ATOM      3  C   UNL     1      34.904 -21.538 -18.642  0.00  0.00    +0.158 C 
ATOM      4  C   UNL     1      34.031 -19.990 -20.265  0.00  0.00    +0.022 C 
ATOM      5  C   UNL     1      35.105 -20.494 -19.539  0.00  0.00    +0.040 C 
ATOM      6  C   UNL     1      33.618 -22.040 -18.511  0.00  0.00    +0.136 C 
ATOM      7  C   UNL     1      32.786 -20.561 -20.060  0.00  0.00    +0.099 C 
BRANCH   4  10
ATOM      8  N   UNL     1      34.557 -15.983 -24.052  0.00  0.00    -0.236 N 
ATOM      9  N   UNL     1      33.859 -16.439 -25.106  0.00  0.00    -0.180 NA
ATOM     10  C   UNL     1      34.209 -18.907 -21.202  0.00  0.00    +0.002 C 
ATOM     11  C   UNL     1      33.806 -17.926 -23.368  0.00  0.00    +0.035 C 
ATOM     12  C   UNL     1      33.619 -18.990 -22.471  0.00  0.00    +0.003 C 
ATOM     13  C   UNL     1      34.565 -16.829 -22.976  0.00  0.00    +0.067 C 
ATOM     14  C   UNL     1      34.967 -17.794 -20.835  0.00  0.00    +0.001 C 
ATOM     15  C   UNL     1      35.162 -16.727 -21.718  0.00  0.00    +0.016 C 
ATOM     16  C   UNL     1      33.403 -17.620 -24.686  0.00  0.00    +0.119 C 
ATOM     17  H   UNL     1      35.023 -15.116 -24.054  0.00  0.00    +0.174 HD
ENDBRANCH   4  10
ENDBRANCH   1   3
BRANCH   1  18
ATOM     18  C   UNL     1      36.481 -21.226 -16.890  0.00  0.00    +0.184 C 
BRANCH  18  19
ATOM     19  C   UNL     1      36.545 -21.988 -15.561  0.00  0.00    -0.017 C 
BRANCH  19  20
ATOM     20  N   UNL     1      35.335 -22.807 -15.444  0.00  0.00    +0.384 N 
ATOM     21  H   UNL     1      35.432 -23.643 -16.021  0.00  0.00    -0.089 HD
ATOM     22  H   UNL     1      34.528 -22.269 -15.758  0.00  0.00    -0.089 HD
ATOM     23  H   UNL     1      35.202 -23.080 -14.470  0.00  0.00    -0.089 HD
ENDBRANCH  19  20
BRANCH  19  24
ATOM     24  C   UNL     1      37.788 -22.903 -15.444  0.00  0.00    +0.006 C 
BRANCH  24  26
ATOM     25  N   UNL     1      37.455 -26.082 -13.470  0.00  0.00    -0.234 NA
ATOM     26  C   UNL     1      37.733 -23.875 -14.335  0.00  0.00    -0.024 C 
ATOM     27  C   UNL     1      37.491 -23.770 -13.029  0.00  0.00    +0.065 C 
ATOM     28  C   UNL     1      37.481 -25.113 -12.355  0.00  0.00    +0.122 C 
ATOM     29  C   UNL     1      37.677 -25.332 -14.510  0.00  0.00    +0.072 C 
ATOM     30  C   UNL     1      37.095 -22.621 -12.256  0.00  0.00    -0.020 C 
ATOM     31  C   UNL     1      36.339 -25.241 -11.387  0.00  0.00    -0.004 C 
ATOM     32  C   UNL     1      36.300 -22.810 -11.186  0.00  0.00    -0.004 C 
ATOM     33  C   UNL     1      35.810 -24.135 -10.831  0.00  0.00    -0.003 C 
ENDBRANCH  24  26
ENDBRANCH  19  24
ENDBRANCH  18  19
ENDBRANCH   1  18
TORSDOF 7
ENDMDL
MODEL 6
REMARK VINA RESULT:     -12.6      1.861     10.131
REMARK  Name = 49866474
REMARK  7 active torsions:
REMARK  status: ('A' for Active; 'I' for Inactive)
REMARK    1  A    between atoms: O_1  and  C_3
REMARK    2  A    between atoms: O_1  and  C_18
REMARK    3  A    between atoms: C_4  and  C_10
REMARK    4  A    between atoms: C_18  and  C_19
REMARK    5  A    between atoms: C_19  and  N_20
REMARK    6  A    between atoms: C_19  and  C_24
REMARK    7  A    between atoms: C_24  and  C_26
REMARK                            x       y       z     vdW  Elec       q    Type
REMARK                         _______ _______ _______ _____ _____    ______ ____
ROOT
ATOM      1  O   UNL     1      33.815 -13.017 -23.047  0.00  0.00    -0.476 OA
ENDROOT
BRANCH   1   3
ATOM      2  N   UNL     1      33.425 -16.017 -25.106  0.00  0.00    -0.239 NA
ATOM      3  C   UNL     1      33.839 -14.337 -23.417  0.00  0.00    +0.158 C 
ATOM      4  C   UNL     1      34.298 -16.650 -22.942  0.00  0.00    +0.022 C 
ATOM      5  C   UNL     1      34.282 -15.319 -22.539  0.00  0.00    +0.040 C 
ATOM      6  C   UNL     1      33.424 -14.734 -24.678  0.00  0.00    +0.136 C 
ATOM      7  C   UNL     1      33.863 -16.944 -24.224  0.00  0.00    +0.099 C 
BRANCH   4  10
ATOM      8  N   UNL     1      35.769 -20.737 -19.505  0.00  0.00    -0.236 N 
ATOM      9  N   UNL     1      34.610 -21.356 -19.222  0.00  0.00    -0.180 NA
ATOM     10  C   UNL     1      34.753 -17.693 -22.053  0.00  0.00    +0.002 C 
ATOM     11  C   UNL     1      34.286 -19.597 -20.649  0.00  0.00    +0.035 C 
ATOM     12  C   UNL     1      33.823 -18.592 -21.513  0.00  0.00    +0.003 C 
ATOM     13  C   UNL     1      35.643 -19.672 -20.356  0.00  0.00    +0.067 C 
ATOM     14  C   UNL     1      36.109 -17.791 -21.742  0.00  0.00    +0.001 C 
ATOM     15  C   UNL     1      36.585 -18.787 -20.883  0.00  0.00    +0.016 C 
ATOM     16  C   UNL     1      33.711 -20.660 -19.920  0.00  0.00    +0.119 C 
ATOM     17  H   UNL     1      36.634 -21.024 -19.132  0.00  0.00    +0.174 HD
ENDBRANCH   4  10
ENDBRANCH   1   3
BRANCH   1  18
ATOM     18  C   UNL     1      32.549 -12.370 -23.064  0.00  0.00    +0.184 C 
BRANCH  18  19
ATOM     19  C   UNL     1      31.831 -12.563 -21.723  0.00  0.00    -0.017 C 
BRANCH  19  20
ATOM     20  N   UNL     1      32.826 -12.468 -20.651  0.00  0.00    +0.384 N 
ATOM     21  H   UNL     1      32.669 -11.614 -20.116  0.00  0.00    -0.089 HD
ATOM     22  H   UNL     1      33.761 -12.448 -21.056  0.00  0.00    -0.089 HD
ATOM     23  H   UNL     1      32.740 -13.277 -20.035  0.00  0.00    -0.089 HD
ENDBRANCH  19  20
BRANCH  19  24
ATOM     24  C   UNL     1      30.718 -11.516 -21.473  0.00  0.00    +0.006 C 
BRANCH  24  26
ATOM     25  N   UNL     1      31.473  -8.525 -19.329  0.00  0.00    -0.234 NA
ATOM     26  C   UNL     1      31.202 -10.204 -21.005  0.00  0.00    -0.024 C 
ATOM     27  C   UNL     1      31.521  -9.066 -21.620  0.00  0.00    +0.065 C 
ATOM     28  C   UNL     1      31.892  -7.988 -20.640  0.00  0.00    +0.122 C 
ATOM     29  C   UNL     1      31.185  -9.765 -19.603  0.00  0.00    +0.072 C 
ATOM     30  C   UNL     1      31.401  -8.707 -23.010  0.00  0.00    -0.020 C 
ATOM     31  C   UNL     1      31.271  -6.669 -21.004  0.00  0.00    -0.004 C 
ATOM     32  C   UNL     1      31.142  -7.423 -23.321  0.00  0.00    -0.004 C 
ATOM     33  C   UNL     1      30.943  -6.417 -22.285  0.00  0.00    -0.003 C 
ENDBRANCH  24  26
ENDBRANCH  19  24
ENDBRANCH  18  19
ENDBRANCH   1  18
TORSDOF 7
ENDMDL
MODEL 7
REMARK VINA RESULT:     -12.6      2.930      5.852
REMARK  Name = 49866474
REMARK  7 active torsions:
REMARK  status: ('A' for Active; 'I' for Inactive)
REMARK    1  A    between atoms: O_1  and  C_3
REMARK    2  A    between atoms: O_1  and  C_18
REMARK    3  A    between atoms: C_4  and  C_10
REMARK    4  A    between atoms: C_18  and  C_19
REMARK    5  A    between atoms: C_19  and  N_20
REMARK    6  A    between atoms: C_19  and  C_24
REMARK    7  A    between atoms: C_24  and  C_26
REMARK                            x       y       z     vdW  Elec       q    Type
REMARK                         _______ _______ _______ _____ _____    ______ ____
ROOT
ATOM      1  O   UNL     1      33.900 -20.849 -20.229  0.00  0.00    -0.476 OA
ENDROOT
BRANCH   1   3
ATOM      2  N   UNL     1      36.779 -18.630 -20.640  0.00  0.00    -0.239 NA
ATOM      3  C   UNL     1      34.651 -19.779 -20.638  0.00  0.00    +0.158 C 
ATOM      4  C   UNL     1      34.892 -17.708 -21.839  0.00  0.00    +0.022 C 
ATOM      5  C   UNL     1      34.104 -18.782 -21.437  0.00  0.00    +0.040 C 
ATOM      6  C   UNL     1      35.982 -19.657 -20.270  0.00  0.00    +0.136 C 
ATOM      7  C   UNL     1      36.211 -17.680 -21.417  0.00  0.00    +0.099 C 
BRANCH   4  10
ATOM      8  N   UNL     1      32.860 -13.493 -24.802  0.00  0.00    -0.236 N 
ATOM      9  N   UNL     1      32.957 -12.438 -23.975  0.00  0.00    -0.180 NA
ATOM     10  C   UNL     1      34.351 -16.657 -22.668  0.00  0.00    +0.002 C 
ATOM     11  C   UNL     1      33.742 -14.346 -22.985  0.00  0.00    +0.035 C 
ATOM     12  C   UNL     1      34.272 -15.353 -22.162  0.00  0.00    +0.003 C 
ATOM     13  C   UNL     1      33.314 -14.669 -24.268  0.00  0.00    +0.067 C 
ATOM     14  C   UNL     1      33.915 -16.953 -23.960  0.00  0.00    +0.001 C 
ATOM     15  C   UNL     1      33.385 -15.961 -24.791  0.00  0.00    +0.016 C 
ATOM     16  C   UNL     1      33.494 -12.961 -22.872  0.00  0.00    +0.119 C 
ATOM     17  H   UNL     1      32.495 -13.427 -25.714  0.00  0.00    +0.174 HD
ENDBRANCH   4  10
ENDBRANCH   1   3
BRANCH   1  18
ATOM     18  C   UNL     1      34.338 -21.533 -19.062  0.00  0.00    +0.184 C 
BRANCH  18  19
ATOM     19  C   UNL     1      33.190 -21.666 -18.055  0.00  0.00    -0.017 C 
BRANCH  19  20
ATOM     20  N   UNL     1      31.941 -21.305 -18.733  0.00  0.00    +0.384 N 
ATOM     21  H   UNL     1      31.526 -20.495 -18.272  0.00  0.00    -0.089 HD
ATOM     22  H   UNL     1      31.293 -22.090 -18.691  0.00  0.00    -0.089 HD
ATOM     23  H   UNL     1      32.137 -21.078 -19.708  0.00  0.00    -0.089 HD
ENDBRANCH  19  20
BRANCH  19  24
ATOM     24  C   UNL     1      33.054 -23.094 -17.472  0.00  0.00    +0.006 C 
BRANCH  24  26
ATOM     25  N   UNL     1      33.289 -23.666 -13.767  0.00  0.00    -0.234 NA
ATOM     26  C   UNL     1      32.744 -23.143 -16.031  0.00  0.00    -0.024 C 
ATOM     27  C   UNL     1      31.609 -23.151 -15.333  0.00  0.00    +0.065 C 
ATOM     28  C   UNL     1      31.863 -23.290 -13.858  0.00  0.00    +0.122 C 
ATOM     29  C   UNL     1      33.715 -23.483 -14.983  0.00  0.00    +0.072 C 
ATOM     30  C   UNL     1      30.245 -23.208 -15.794  0.00  0.00    -0.020 C 
ATOM     31  C   UNL     1      30.916 -24.268 -13.221  0.00  0.00    -0.004 C 
ATOM     32  C   UNL     1      29.336 -23.843 -15.031  0.00  0.00    -0.004 C 
ATOM     33  C   UNL     1      29.716 -24.497 -13.786  0.00  0.00    -0.003 C 
ENDBRANCH  24  26
ENDBRANCH  19  24
ENDBRANCH  18  19
ENDBRANCH   1  18
TORSDOF 7
ENDMDL
MODEL 8
REMARK VINA RESULT:     -12.4      2.690      5.894
REMARK  Name = 49866474
REMARK  7 active torsions:
REMARK  status: ('A' for Active; 'I' for Inactive)
REMARK    1  A    between atoms: O_1  and  C_3
REMARK    2  A    between atoms: O_1  and  C_18
REMARK    3  A    between atoms: C_4  and  C_10
REMARK    4  A    between atoms: C_18  and  C_19
REMARK    5  A    between atoms: C_19  and  N_20
REMARK    6  A    between atoms: C_19  and  C_24
REMARK    7  A    between atoms: C_24  and  C_26
REMARK                            x       y       z     vdW  Elec       q    Type
REMARK                         _______ _______ _______ _____ _____    ______ ____
ROOT
ATOM      1  O   UNL     1      33.232 -21.088 -19.868  0.00  0.00    -0.476 OA
ENDROOT
BRANCH   1   3
ATOM      2  N   UNL     1      36.461 -19.390 -20.151  0.00  0.00    -0.239 NA
ATOM      3  C   UNL     1      34.165 -20.148 -20.220  0.00  0.00    +0.158 C 
ATOM      4  C   UNL     1      34.782 -18.098 -21.318  0.00  0.00    +0.022 C 
ATOM      5  C   UNL     1      33.813 -19.035 -20.974  0.00  0.00    +0.040 C 
ATOM      6  C   UNL     1      35.491 -20.278 -19.837  0.00  0.00    +0.136 C 
ATOM      7  C   UNL     1      36.079 -18.320 -20.886  0.00  0.00    +0.099 C 
BRANCH   4  10
ATOM      8  N   UNL     1      33.499 -13.470 -24.076  0.00  0.00    -0.236 N 
ATOM      9  N   UNL     1      33.471 -12.522 -23.124  0.00  0.00    -0.180 NA
ATOM     10  C   UNL     1      34.446 -16.932 -22.100  0.00  0.00    +0.002 C 
ATOM     11  C   UNL     1      33.987 -14.569 -22.243  0.00  0.00    +0.035 C 
ATOM     12  C   UNL     1      34.315 -15.691 -21.464  0.00  0.00    +0.003 C 
ATOM     13  C   UNL     1      33.802 -14.721 -23.613  0.00  0.00    +0.067 C 
ATOM     14  C   UNL     1      34.256 -17.056 -23.477  0.00  0.00    +0.001 C 
ATOM     15  C   UNL     1      33.928 -15.949 -24.266  0.00  0.00    +0.016 C 
ATOM     16  C   UNL     1      33.769 -13.194 -22.011  0.00  0.00    +0.119 C 
ATOM     17  H   UNL     1      33.317 -13.280 -25.025  0.00  0.00    +0.174 HD
ENDBRANCH   4  10
ENDBRANCH   1   3
BRANCH   1  18
ATOM     18  C   UNL     1      33.676 -22.153 -19.038  0.00  0.00    +0.184 C 
BRANCH  18  19
ATOM     19  C   UNL     1      33.082 -22.020 -17.631  0.00  0.00    -0.017 C 
BRANCH  19  20
ATOM     20  N   UNL     1      31.620 -22.017 -17.748  0.00  0.00    +0.384 N 
ATOM     21  H   UNL     1      31.335 -21.309 -18.425  0.00  0.00    -0.089 HD
ATOM     22  H   UNL     1      31.207 -21.806 -16.841  0.00  0.00    -0.089 HD
ATOM     23  H   UNL     1      31.302 -22.934 -18.062  0.00  0.00    -0.089 HD
ENDBRANCH  19  20
BRANCH  19  24
ATOM     24  C   UNL     1      33.509 -23.164 -16.679  0.00  0.00    +0.006 C 
BRANCH  24  26
ATOM     25  N   UNL     1      36.841 -21.787 -15.622  0.00  0.00    -0.234 NA
ATOM     26  C   UNL     1      34.759 -22.912 -15.938  0.00  0.00    -0.024 C 
ATOM     27  C   UNL     1      35.481 -23.630 -15.078  0.00  0.00    +0.065 C 
ATOM     28  C   UNL     1      36.738 -22.913 -14.671  0.00  0.00    +0.122 C 
ATOM     29  C   UNL     1      35.686 -21.809 -16.223  0.00  0.00    +0.072 C 
ATOM     30  C   UNL     1      35.307 -24.992 -14.643  0.00  0.00    -0.020 C 
ATOM     31  C   UNL     1      37.925 -23.834 -14.660  0.00  0.00    -0.004 C 
ATOM     32  C   UNL     1      36.402 -25.713 -14.338  0.00  0.00    -0.004 C 
ATOM     33  C   UNL     1      37.741 -25.155 -14.480  0.00  0.00    -0.003 C 
ENDBRANCH  24  26
ENDBRANCH  19  24
ENDBRANCH  18  19
ENDBRANCH   1  18
TORSDOF 7
ENDMDL
MODEL 9
REMARK VINA RESULT:     -12.3      3.243      6.334
REMARK  Name = 49866474
REMARK  7 active torsions:
REMARK  status: ('A' for Active; 'I' for Inactive)
REMARK    1  A    between atoms: O_1  and  C_3
REMARK    2  A    between atoms: O_1  and  C_18
REMARK    3  A    between atoms: C_4  and  C_10
REMARK    4  A    between atoms: C_18  and  C_19
REMARK    5  A    between atoms: C_19  and  N_20
REMARK    6  A    between atoms: C_19  and  C_24
REMARK    7  A    between atoms: C_24  and  C_26
REMARK                            x       y       z     vdW  Elec       q    Type
REMARK                         _______ _______ _______ _____ _____    ______ ____
ROOT
ATOM      1  O   UNL     1      30.942 -11.520 -21.307  0.00  0.00    -0.476 OA
ENDROOT
BRANCH   1   3
ATOM      2  N   UNL     1      31.734  -8.771 -19.026  0.00  0.00    -0.239 NA
ATOM      3  C   UNL     1      31.130 -10.243 -20.847  0.00  0.00    +0.158 C 
ATOM      4  C   UNL     1      31.125  -7.860 -21.181  0.00  0.00    +0.022 C 
ATOM      5  C   UNL     1      30.926  -9.145 -21.675  0.00  0.00    +0.040 C 
ATOM      6  C   UNL     1      31.530 -10.004 -19.542  0.00  0.00    +0.136 C 
ATOM      7  C   UNL     1      31.526  -7.729 -19.862  0.00  0.00    +0.099 C 
BRANCH   4  10
ATOM      8  N   UNL     1      30.300  -3.258 -24.149  0.00  0.00    -0.236 N 
ATOM      9  N   UNL     1      30.079  -2.309 -23.223  0.00  0.00    -0.180 NA
ATOM     10  C   UNL     1      30.922  -6.701 -22.017  0.00  0.00    +0.002 C 
ATOM     11  C   UNL     1      30.456  -4.347 -22.253  0.00  0.00    +0.035 C 
ATOM     12  C   UNL     1      30.653  -5.461 -21.422  0.00  0.00    +0.003 C 
ATOM     13  C   UNL     1      30.533  -4.503 -23.633  0.00  0.00    +0.067 C 
ATOM     14  C   UNL     1      30.993  -6.830 -23.405  0.00  0.00    +0.001 C 
ATOM     15  C   UNL     1      30.799  -5.729 -24.246  0.00  0.00    +0.016 C 
ATOM     16  C   UNL     1      30.175  -2.976 -22.072  0.00  0.00    +0.119 C 
ATOM     17  H   UNL     1      30.295  -3.072 -25.116  0.00  0.00    +0.174 HD
ENDBRANCH   4  10
ENDBRANCH   1   3
BRANCH   1  18
ATOM     18  C   UNL     1      31.931 -12.480 -20.957  0.00  0.00    +0.184 C 
BRANCH  18  19
ATOM     19  C   UNL     1      32.661 -12.978 -22.210  0.00  0.00    -0.017 C 
BRANCH  19  20
ATOM     20  N   UNL     1      33.111 -11.810 -22.973  0.00  0.00    +0.384 N 
ATOM     21  H   UNL     1      32.337 -11.153 -23.079  0.00  0.00    -0.089 HD
ATOM     22  H   UNL     1      33.432 -12.109 -23.894  0.00  0.00    -0.089 HD
ATOM     23  H   UNL     1      33.878 -11.355 -22.478  0.00  0.00    -0.089 HD
ENDBRANCH  19  20
BRANCH  19  24
ATOM     24  C   UNL     1      33.883 -13.872 -21.887  0.00  0.00    +0.006 C 
BRANCH  24  26
ATOM     25  N   UNL     1      33.498 -16.304 -24.724  0.00  0.00    -0.234 NA
ATOM     26  C   UNL     1      34.043 -15.039 -22.774  0.00  0.00    -0.024 C 
ATOM     27  C   UNL     1      34.498 -16.279 -22.593  0.00  0.00    +0.065 C 
ATOM     28  C   UNL     1      34.367 -17.108 -23.840  0.00  0.00    +0.122 C 
ATOM     29  C   UNL     1      33.434 -15.160 -24.106  0.00  0.00    +0.072 C 
ATOM     30  C   UNL     1      34.918 -16.937 -21.383  0.00  0.00    -0.020 C 
ATOM     31  C   UNL     1      33.849 -18.486 -23.539  0.00  0.00    -0.004 C 
ATOM     32  C   UNL     1      34.713 -18.263 -21.268  0.00  0.00    -0.004 C 
ATOM     33  C   UNL     1      34.044 -19.019 -22.319  0.00  0.00    -0.003 C 
ENDBRANCH  24  26
ENDBRANCH  19  24
ENDBRANCH  18  19
ENDBRANCH   1  18
TORSDOF 7
ENDMDL
