MODEL 1
REMARK VINA RESULT:     -11.0      0.000      0.000
REMARK  Name = 5639
REMARK  7 active torsions:
REMARK  status: ('A' for Active; 'I' for Inactive)
REMARK    1  A    between atoms: N_1  and  C_16
REMARK    2  A    between atoms: N_2  and  C_8
REMARK    3  A    between atoms: C_9  and  O_14
REMARK    4  A    between atoms: C_16  and  C_17
REMARK    5  A    between atoms: C_17  and  C_18
REMARK    6  A    between atoms: C_18  and  N_19
REMARK    7  A    between atoms: N_19  and  C_25
REMARK                            x       y       z     vdW  Elec       q    Type
REMARK                         _______ _______ _______ _____ _____    ______ ____
ROOT
ATOM      1  N   UNL     1      34.597 -21.651 -17.537  0.00  0.00    +0.389 N 
ATOM      2  N   UNL     1      35.866 -22.735 -15.219  0.00  0.00    -0.309 N 
ATOM      3  C   UNL     1      36.061 -21.727 -17.458  0.00  0.00    -0.055 C 
ATOM      4  C   UNL     1      33.999 -22.788 -16.826  0.00  0.00    -0.055 C 
ATOM      5  C   UNL     1      36.535 -21.693 -16.002  0.00  0.00    +0.068 C 
ATOM      6  C   UNL     1      34.404 -22.789 -15.351  0.00  0.00    +0.068 C 
ATOM      7  H   UNL     1      34.287 -20.786 -17.094  0.00  0.00    -0.080 HD
ENDROOT
BRANCH   2   8
ATOM      8  C   UNL     1      36.433 -23.172 -14.015  0.00  0.00    +0.082 C 
ATOM      9  C   UNL     1      37.065 -24.428 -13.910  0.00  0.00    +0.152 C 
ATOM     10  C   UNL     1      36.386 -22.357 -12.866  0.00  0.00    +0.018 C 
ATOM     11  C   UNL     1      37.626 -24.851 -12.705  0.00  0.00    +0.038 C 
ATOM     12  C   UNL     1      36.948 -22.780 -11.661  0.00  0.00    +0.001 C 
ATOM     13  C   UNL     1      37.567 -24.027 -11.581  0.00  0.00    +0.003 C 
BRANCH   9  14
ATOM     14  O   UNL     1      37.133 -25.248 -14.997  0.00  0.00    -0.470 OA
ATOM     15  C   UNL     1      36.366 -26.449 -14.951  0.00  0.00    +0.253 C 
ENDBRANCH   9  14
ENDBRANCH   2   8
BRANCH   1  16
ATOM     16  C   UNL     1      34.159 -21.630 -18.932  0.00  0.00    -0.075 C 
BRANCH  16  17
ATOM     17  C   UNL     1      34.994 -20.629 -19.733  0.00  0.00    -0.002 C 
BRANCH  17  18
ATOM     18  C   UNL     1      34.133 -19.708 -20.595  0.00  0.00    +0.086 C 
BRANCH  18  19
ATOM     19  N   UNL     1      34.942 -18.959 -21.512  0.00  0.00    -0.321 N 
ATOM     20  H   UNL     1      35.790 -19.351 -21.818  0.00  0.00    +0.148 HD
BRANCH  19  25
ATOM     21  O   UNL     1      33.459 -16.045 -24.972  0.00  0.00    -0.252 OA
ATOM     22  O   UNL     1      34.297 -14.407 -20.697  0.00  0.00    -0.269 OA
ATOM     23  N   UNL     1      34.183 -17.494 -23.305  0.00  0.00    -0.229 N 
ATOM     24  N   UNL     1      33.875 -15.171 -22.866  0.00  0.00    -0.208 N 
ATOM     25  C   UNL     1      34.582 -17.714 -21.981  0.00  0.00    +0.108 C 
ATOM     26  C   UNL     1      34.617 -16.677 -21.129  0.00  0.00    +0.088 C 
ATOM     27  C   UNL     1      33.815 -16.228 -23.803  0.00  0.00    +0.318 C 
ATOM     28  C   UNL     1      34.251 -15.308 -21.532  0.00  0.00    +0.259 C 
ATOM     29  C   UNL     1      34.149 -18.639 -24.219  0.00  0.00    +0.123 C 
ATOM     30  C   UNL     1      33.501 -13.845 -23.348  0.00  0.00    +0.125 C 
ENDBRANCH  19  25
ENDBRANCH  18  19
ENDBRANCH  17  18
ENDBRANCH  16  17
ENDBRANCH   1  16
TORSDOF 7
ENDMDL
MODEL 2
REMARK VINA RESULT:     -10.9      1.728     10.653
REMARK  Name = 5639
REMARK  7 active torsions:
REMARK  status: ('A' for Active; 'I' for Inactive)
REMARK    1  A    between atoms: N_1  and  C_16
REMARK    2  A    between atoms: N_2  and  C_8
REMARK    3  A    between atoms: C_9  and  O_14
REMARK    4  A    between atoms: C_16  and  C_17
REMARK    5  A    between atoms: C_17  and  C_18
REMARK    6  A    between atoms: C_18  and  N_19
REMARK    7  A    between atoms: N_19  and  C_25
REMARK                            x       y       z     vdW  Elec       q    Type
REMARK                         _______ _______ _______ _____ _____    ______ ____
ROOT
ATOM      1  N   UNL     1      35.166 -20.314 -20.340  0.00  0.00    +0.389 N 
ATOM      2  N   UNL     1      34.629 -17.915 -21.792  0.00  0.00    -0.309 N 
ATOM      3  C   UNL     1      36.071 -19.163 -20.234  0.00  0.00    -0.055 C 
ATOM      4  C   UNL     1      33.786 -19.850 -20.521  0.00  0.00    -0.055 C 
ATOM      5  C   UNL     1      36.012 -18.299 -21.497  0.00  0.00    +0.068 C 
ATOM      6  C   UNL     1      33.650 -19.010 -21.793  0.00  0.00    +0.068 C 
ATOM      7  H   UNL     1      35.435 -20.871 -21.151  0.00  0.00    -0.080 HD
ENDROOT
BRANCH   2   8
ATOM      8  C   UNL     1      34.375 -16.808 -22.612  0.00  0.00    +0.082 C 
ATOM      9  C   UNL     1      34.244 -15.509 -22.079  0.00  0.00    +0.152 C 
ATOM     10  C   UNL     1      34.245 -16.966 -24.006  0.00  0.00    +0.018 C 
ATOM     11  C   UNL     1      33.992 -14.415 -22.906  0.00  0.00    +0.038 C 
ATOM     12  C   UNL     1      33.993 -15.872 -24.834  0.00  0.00    +0.001 C 
ATOM     13  C   UNL     1      33.866 -14.596 -24.283  0.00  0.00    +0.003 C 
BRANCH   9  14
ATOM     14  O   UNL     1      34.363 -15.311 -20.735  0.00  0.00    -0.470 OA
ATOM     15  C   UNL     1      33.434 -14.415 -20.128  0.00  0.00    +0.253 C 
ENDBRANCH   9  14
ENDBRANCH   2   8
BRANCH   1  16
ATOM     16  C   UNL     1      35.271 -21.159 -19.151  0.00  0.00    -0.075 C 
BRANCH  16  17
ATOM     17  C   UNL     1      33.977 -21.950 -18.948  0.00  0.00    -0.002 C 
BRANCH  17  18
ATOM     18  C   UNL     1      33.765 -22.360 -17.492  0.00  0.00    +0.086 C 
BRANCH  18  19
ATOM     19  N   UNL     1      34.929 -22.076 -16.705  0.00  0.00    -0.321 N 
ATOM     20  H   UNL     1      35.610 -21.469 -17.074  0.00  0.00    +0.148 HD
BRANCH  19  25
ATOM     21  O   UNL     1      37.777 -23.514 -13.171  0.00  0.00    -0.252 OA
ATOM     22  O   UNL     1      33.153 -23.853 -12.769  0.00  0.00    -0.269 OA
ATOM     23  N   UNL     1      36.414 -22.804 -14.915  0.00  0.00    -0.229 N 
ATOM     24  N   UNL     1      35.482 -23.720 -12.922  0.00  0.00    -0.208 N 
ATOM     25  C   UNL     1      35.136 -22.617 -15.454  0.00  0.00    +0.108 C 
ATOM     26  C   UNL     1      34.063 -22.973 -14.728  0.00  0.00    +0.088 C 
ATOM     27  C   UNL     1      36.645 -23.357 -13.639  0.00  0.00    +0.318 C 
ATOM     28  C   UNL     1      34.178 -23.558 -13.381  0.00  0.00    +0.259 C 
ATOM     29  C   UNL     1      37.572 -22.406 -15.720  0.00  0.00    +0.123 C 
ATOM     30  C   UNL     1      35.683 -24.298 -11.596  0.00  0.00    +0.125 C 
ENDBRANCH  19  25
ENDBRANCH  18  19
ENDBRANCH  17  18
ENDBRANCH  16  17
ENDBRANCH   1  16
TORSDOF 7
ENDMDL
MODEL 3
REMARK VINA RESULT:     -10.7      1.904     10.705
REMARK  Name = 5639
REMARK  7 active torsions:
REMARK  status: ('A' for Active; 'I' for Inactive)
REMARK    1  A    between atoms: N_1  and  C_16
REMARK    2  A    between atoms: N_2  and  C_8
REMARK    3  A    between atoms: C_9  and  O_14
REMARK    4  A    between atoms: C_16  and  C_17
REMARK    5  A    between atoms: C_17  and  C_18
REMARK    6  A    between atoms: C_18  and  N_19
REMARK    7  A    between atoms: N_19  and  C_25
REMARK                            x       y       z     vdW  Elec       q    Type
REMARK                         _______ _______ _______ _____ _____    ______ ____
ROOT
ATOM      1  N   UNL     1      35.206 -20.530 -20.000  0.00  0.00    +0.389 N 
ATOM      2  N   UNL     1      34.649 -18.232 -21.601  0.00  0.00    -0.309 N 
ATOM      3  C   UNL     1      36.104 -19.369 -19.972  0.00  0.00    -0.055 C 
ATOM      4  C   UNL     1      33.823 -20.087 -20.205  0.00  0.00    -0.055 C 
ATOM      5  C   UNL     1      36.036 -18.589 -21.287  0.00  0.00    +0.068 C 
ATOM      6  C   UNL     1      33.678 -19.331 -21.528  0.00  0.00    +0.068 C 
ATOM      7  H   UNL     1      35.477 -21.137 -20.775  0.00  0.00    -0.080 HD
ENDROOT
BRANCH   2   8
ATOM      8  C   UNL     1      34.386 -17.181 -22.489  0.00  0.00    +0.082 C 
ATOM      9  C   UNL     1      34.299 -15.845 -22.047  0.00  0.00    +0.152 C 
ATOM     10  C   UNL     1      34.199 -17.436 -23.862  0.00  0.00    +0.018 C 
ATOM     11  C   UNL     1      34.037 -14.808 -22.941  0.00  0.00    +0.038 C 
ATOM     12  C   UNL     1      33.937 -16.398 -24.757  0.00  0.00    +0.001 C 
ATOM     13  C   UNL     1      33.856 -15.084 -24.296  0.00  0.00    +0.003 C 
BRANCH   9  14
ATOM     14  O   UNL     1      34.474 -15.554 -20.726  0.00  0.00    -0.470 OA
ATOM     15  C   UNL     1      33.647 -14.531 -20.174  0.00  0.00    +0.253 C 
ENDBRANCH   9  14
ENDBRANCH   2   8
BRANCH   1  16
ATOM     16  C   UNL     1      35.321 -21.297 -18.760  0.00  0.00    -0.075 C 
BRANCH  16  17
ATOM     17  C   UNL     1      36.404 -20.693 -17.863  0.00  0.00    -0.002 C 
BRANCH  17  18
ATOM     18  C   UNL     1      36.760 -21.599 -16.686  0.00  0.00    +0.086 C 
BRANCH  18  19
ATOM     19  N   UNL     1      35.583 -22.183 -16.114  0.00  0.00    -0.321 N 
ATOM     20  H   UNL     1      34.783 -22.277 -16.679  0.00  0.00    +0.148 HD
BRANCH  19  25
ATOM     21  O   UNL     1      33.237 -24.035 -12.408  0.00  0.00    -0.252 OA
ATOM     22  O   UNL     1      37.735 -22.901 -12.032  0.00  0.00    -0.269 OA
ATOM     23  N   UNL     1      34.353 -23.131 -14.236  0.00  0.00    -0.229 N 
ATOM     24  N   UNL     1      35.472 -23.475 -12.159  0.00  0.00    -0.208 N 
ATOM     25  C   UNL     1      35.524 -22.619 -14.808  0.00  0.00    +0.108 C 
ATOM     26  C   UNL     1      36.638 -22.547 -14.061  0.00  0.00    +0.088 C 
ATOM     27  C   UNL     1      34.273 -23.579 -12.902  0.00  0.00    +0.318 C 
ATOM     28  C   UNL     1      36.678 -22.987 -12.655  0.00  0.00    +0.259 C 
ATOM     29  C   UNL     1      33.149 -23.205 -15.068  0.00  0.00    +0.123 C 
ATOM     30  C   UNL     1      35.426 -23.929 -10.773  0.00  0.00    +0.125 C 
ENDBRANCH  19  25
ENDBRANCH  18  19
ENDBRANCH  17  18
ENDBRANCH  16  17
ENDBRANCH   1  16
TORSDOF 7
ENDMDL
MODEL 4
REMARK VINA RESULT:     -10.6      6.975     13.855
REMARK  Name = 5639
REMARK  7 active torsions:
REMARK  status: ('A' for Active; 'I' for Inactive)
REMARK    1  A    between atoms: N_1  and  C_16
REMARK    2  A    between atoms: N_2  and  C_8
REMARK    3  A    between atoms: C_9  and  O_14
REMARK    4  A    between atoms: C_16  and  C_17
REMARK    5  A    between atoms: C_17  and  C_18
REMARK    6  A    between atoms: C_18  and  N_19
REMARK    7  A    between atoms: N_19  and  C_25
REMARK                            x       y       z     vdW  Elec       q    Type
REMARK                         _______ _______ _______ _____ _____    ______ ____
ROOT
ATOM      1  N   UNL     1      31.842 -10.864 -21.743  0.00  0.00    +0.389 N 
ATOM      2  N   UNL     1      31.369  -8.058 -21.981  0.00  0.00    -0.309 N 
ATOM      3  C   UNL     1      30.766 -10.224 -20.976  0.00  0.00    -0.055 C 
ATOM      4  C   UNL     1      32.001 -10.192 -23.038  0.00  0.00    -0.055 C 
ATOM      5  C   UNL     1      31.076  -8.747 -20.721  0.00  0.00    +0.068 C 
ATOM      6  C   UNL     1      32.353  -8.715 -22.851  0.00  0.00    +0.068 C 
ATOM      7  H   UNL     1      32.713 -10.781 -21.220  0.00  0.00    -0.080 HD
ENDROOT
BRANCH   2   8
ATOM      8  C   UNL     1      31.256  -6.664 -22.053  0.00  0.00    +0.082 C 
ATOM      9  C   UNL     1      30.620  -6.030 -23.140  0.00  0.00    +0.152 C 
ATOM     10  C   UNL     1      31.781  -5.851 -21.029  0.00  0.00    +0.018 C 
ATOM     11  C   UNL     1      30.514  -4.641 -23.200  0.00  0.00    +0.038 C 
ATOM     12  C   UNL     1      31.674  -4.461 -21.088  0.00  0.00    +0.001 C 
ATOM     13  C   UNL     1      31.041  -3.856 -22.174  0.00  0.00    +0.003 C 
BRANCH   9  14
ATOM     14  O   UNL     1      30.098  -6.779 -24.154  0.00  0.00    -0.470 OA
ATOM     15  C   UNL     1      30.805  -6.774 -25.392  0.00  0.00    +0.253 C 
ENDBRANCH   9  14
ENDBRANCH   2   8
BRANCH   1  16
ATOM     16  C   UNL     1      31.559 -12.287 -21.934  0.00  0.00    -0.075 C 
BRANCH  16  17
ATOM     17  C   UNL     1      32.009 -13.085 -20.709  0.00  0.00    -0.002 C 
BRANCH  17  18
ATOM     18  C   UNL     1      33.512 -13.355 -20.708  0.00  0.00    +0.086 C 
BRANCH  18  19
ATOM     19  N   UNL     1      33.953 -13.803 -21.996  0.00  0.00    -0.321 N 
ATOM     20  H   UNL     1      34.168 -13.129 -22.679  0.00  0.00    +0.148 HD
BRANCH  19  25
ATOM     21  O   UNL     1      33.615 -17.442 -25.047  0.00  0.00    -0.252 OA
ATOM     22  O   UNL     1      35.176 -18.124 -20.715  0.00  0.00    -0.269 OA
ATOM     23  N   UNL     1      33.767 -15.644 -23.581  0.00  0.00    -0.229 N 
ATOM     24  N   UNL     1      34.385 -17.843 -22.898  0.00  0.00    -0.208 N 
ATOM     25  C   UNL     1      34.091 -15.136 -22.317  0.00  0.00    +0.108 C 
ATOM     26  C   UNL     1      34.555 -15.974 -21.376  0.00  0.00    +0.088 C 
ATOM     27  C   UNL     1      33.899 -17.004 -23.927  0.00  0.00    +0.318 C 
ATOM     28  C   UNL     1      34.738 -17.416 -21.620  0.00  0.00    +0.259 C 
ATOM     29  C   UNL     1      33.265 -14.714 -24.596  0.00  0.00    +0.123 C 
ATOM     30  C   UNL     1      34.533 -19.258 -23.220  0.00  0.00    +0.125 C 
ENDBRANCH  19  25
ENDBRANCH  18  19
ENDBRANCH  17  18
ENDBRANCH  16  17
ENDBRANCH   1  16
TORSDOF 7
ENDMDL
MODEL 5
REMARK VINA RESULT:     -10.6      7.800     15.062
REMARK  Name = 5639
REMARK  7 active torsions:
REMARK  status: ('A' for Active; 'I' for Inactive)
REMARK    1  A    between atoms: N_1  and  C_16
REMARK    2  A    between atoms: N_2  and  C_8
REMARK    3  A    between atoms: C_9  and  O_14
REMARK    4  A    between atoms: C_16  and  C_17
REMARK    5  A    between atoms: C_17  and  C_18
REMARK    6  A    between atoms: C_18  and  N_19
REMARK    7  A    between atoms: N_19  and  C_25
REMARK                            x       y       z     vdW  Elec       q    Type
REMARK                         _______ _______ _______ _____ _____    ______ ____
ROOT
ATOM      1  N   UNL     1      31.586  -8.896 -21.212  0.00  0.00    +0.389 N 
ATOM      2  N   UNL     1      32.021  -6.517 -22.730  0.00  0.00    -0.309 N 
ATOM      3  C   UNL     1      31.877  -7.626 -20.536  0.00  0.00    -0.055 C 
ATOM      4  C   UNL     1      30.816  -8.646 -22.436  0.00  0.00    -0.055 C 
ATOM      5  C   UNL     1      32.691  -6.696 -21.439  0.00  0.00    +0.068 C 
ATOM      6  C   UNL     1      31.595  -7.751 -23.402  0.00  0.00    +0.068 C 
ATOM      7  H   UNL     1      32.467  -9.345 -21.463  0.00  0.00    -0.080 HD
ENDROOT
BRANCH   2   8
ATOM      8  C   UNL     1      32.335  -5.409 -23.528  0.00  0.00    +0.082 C 
ATOM      9  C   UNL     1      31.418  -4.355 -23.722  0.00  0.00    +0.152 C 
ATOM     10  C   UNL     1      33.589  -5.320 -24.164  0.00  0.00    +0.018 C 
ATOM     11  C   UNL     1      31.743  -3.258 -24.518  0.00  0.00    +0.038 C 
ATOM     12  C   UNL     1      33.914  -4.221 -24.961  0.00  0.00    +0.001 C 
ATOM     13  C   UNL     1      32.991  -3.191 -25.138  0.00  0.00    +0.003 C 
BRANCH   9  14
ATOM     14  O   UNL     1      30.193  -4.402 -23.124  0.00  0.00    -0.470 OA
ATOM     15  C   UNL     1      30.109  -3.927 -21.782  0.00  0.00    +0.253 C 
ENDBRANCH   9  14
ENDBRANCH   2   8
BRANCH   1  16
ATOM     16  C   UNL     1      30.854  -9.795 -20.320  0.00  0.00    -0.075 C 
BRANCH  16  17
ATOM     17  C   UNL     1      31.554 -11.154 -20.248  0.00  0.00    -0.002 C 
BRANCH  17  18
ATOM     18  C   UNL     1      31.468 -11.926 -21.563  0.00  0.00    +0.086 C 
BRANCH  18  19
ATOM     19  N   UNL     1      32.774 -12.169 -22.101  0.00  0.00    -0.321 N 
ATOM     20  H   UNL     1      33.352 -11.397 -22.299  0.00  0.00    +0.148 HD
BRANCH  19  25
ATOM     21  O   UNL     1      33.850 -15.737 -25.063  0.00  0.00    -0.252 OA
ATOM     22  O   UNL     1      34.604 -16.151 -20.489  0.00  0.00    -0.269 OA
ATOM     23  N   UNL     1      33.312 -13.977 -23.643  0.00  0.00    -0.229 N 
ATOM     24  N   UNL     1      34.233 -16.004 -22.793  0.00  0.00    -0.208 N 
ATOM     25  C   UNL     1      33.255 -13.435 -22.354  0.00  0.00    +0.108 C 
ATOM     26  C   UNL     1      33.686 -14.172 -21.317  0.00  0.00    +0.088 C 
ATOM     27  C   UNL     1      33.799 -15.270 -23.921  0.00  0.00    +0.318 C 
ATOM     28  C   UNL     1      34.219 -15.536 -21.482  0.00  0.00    +0.259 C 
ATOM     29  C   UNL     1      32.841 -13.157 -24.763  0.00  0.00    +0.123 C 
ATOM     30  C   UNL     1      34.742 -17.349 -23.042  0.00  0.00    +0.125 C 
ENDBRANCH  19  25
ENDBRANCH  18  19
ENDBRANCH  17  18
ENDBRANCH  16  17
ENDBRANCH   1  16
TORSDOF 7
ENDMDL
MODEL 6
REMARK VINA RESULT:     -10.6      3.097     10.847
REMARK  Name = 5639
REMARK  7 active torsions:
REMARK  status: ('A' for Active; 'I' for Inactive)
REMARK    1  A    between atoms: N_1  and  C_16
REMARK    2  A    between atoms: N_2  and  C_8
REMARK    3  A    between atoms: C_9  and  O_14
REMARK    4  A    between atoms: C_16  and  C_17
REMARK    5  A    between atoms: C_17  and  C_18
REMARK    6  A    between atoms: C_18  and  N_19
REMARK    7  A    between atoms: N_19  and  C_25
REMARK                            x       y       z     vdW  Elec       q    Type
REMARK                         _______ _______ _______ _____ _____    ______ ____
ROOT
ATOM      1  N   UNL     1      34.978 -16.407 -22.315  0.00  0.00    +0.389 N 
ATOM      2  N   UNL     1      33.358 -14.066 -22.084  0.00  0.00    -0.309 N 
ATOM      3  C   UNL     1      34.275 -16.110 -21.060  0.00  0.00    -0.055 C 
ATOM      4  C   UNL     1      34.182 -15.940 -23.456  0.00  0.00    -0.055 C 
ATOM      5  C   UNL     1      34.040 -14.605 -20.904  0.00  0.00    +0.068 C 
ATOM      6  C   UNL     1      33.945 -14.430 -23.380  0.00  0.00    +0.068 C 
ATOM      7  H   UNL     1      35.873 -15.917 -22.314  0.00  0.00    -0.080 HD
ENDROOT
BRANCH   2   8
ATOM      8  C   UNL     1      32.670 -12.850 -21.993  0.00  0.00    +0.082 C 
ATOM      9  C   UNL     1      32.685 -11.913 -23.046  0.00  0.00    +0.152 C 
ATOM     10  C   UNL     1      31.936 -12.529 -20.834  0.00  0.00    +0.018 C 
ATOM     11  C   UNL     1      31.995 -10.705 -22.944  0.00  0.00    +0.038 C 
ATOM     12  C   UNL     1      31.245 -11.322 -20.731  0.00  0.00    +0.001 C 
ATOM     13  C   UNL     1      31.275 -10.409 -21.786  0.00  0.00    +0.003 C 
BRANCH   9  14
ATOM     14  O   UNL     1      33.383 -12.183 -24.187  0.00  0.00    -0.470 OA
ATOM     15  C   UNL     1      32.622 -12.497 -25.351  0.00  0.00    +0.253 C 
ENDBRANCH   9  14
ENDBRANCH   2   8
BRANCH   1  16
ATOM     16  C   UNL     1      35.243 -17.841 -22.426  0.00  0.00    -0.075 C 
BRANCH  16  17
ATOM     17  C   UNL     1      36.562 -18.190 -21.734  0.00  0.00    -0.002 C 
BRANCH  17  18
ATOM     18  C   UNL     1      36.356 -19.009 -20.462  0.00  0.00    +0.086 C 
BRANCH  18  19
ATOM     19  N   UNL     1      35.145 -19.773 -20.535  0.00  0.00    -0.321 N 
ATOM     20  H   UNL     1      34.610 -19.727 -21.359  0.00  0.00    +0.148 HD
BRANCH  19  25
ATOM     21  O   UNL     1      31.678 -21.967 -18.119  0.00  0.00    -0.252 OA
ATOM     22  O   UNL     1      36.113 -22.344 -16.758  0.00  0.00    -0.269 OA
ATOM     23  N   UNL     1      33.348 -20.882 -19.320  0.00  0.00    -0.229 N 
ATOM     24  N   UNL     1      33.867 -22.178 -17.387  0.00  0.00    -0.208 N 
ATOM     25  C   UNL     1      34.700 -20.569 -19.501  0.00  0.00    +0.108 C 
ATOM     26  C   UNL     1      35.605 -21.061 -18.640  0.00  0.00    +0.088 C 
ATOM     27  C   UNL     1      32.873 -21.692 -18.268  0.00  0.00    +0.318 C 
ATOM     28  C   UNL     1      35.231 -21.921 -17.503  0.00  0.00    +0.259 C 
ATOM     29  C   UNL     1      32.375 -20.339 -20.272  0.00  0.00    +0.123 C 
ATOM     30  C   UNL     1      33.412 -23.019 -16.285  0.00  0.00    +0.125 C 
ENDBRANCH  19  25
ENDBRANCH  18  19
ENDBRANCH  17  18
ENDBRANCH  16  17
ENDBRANCH   1  16
TORSDOF 7
ENDMDL
MODEL 7
REMARK VINA RESULT:     -10.5      2.770     10.617
REMARK  Name = 5639
REMARK  7 active torsions:
REMARK  status: ('A' for Active; 'I' for Inactive)
REMARK    1  A    between atoms: N_1  and  C_16
REMARK    2  A    between atoms: N_2  and  C_8
REMARK    3  A    between atoms: C_9  and  O_14
REMARK    4  A    between atoms: C_16  and  C_17
REMARK    5  A    between atoms: C_17  and  C_18
REMARK    6  A    between atoms: C_18  and  N_19
REMARK    7  A    between atoms: N_19  and  C_25
REMARK                            x       y       z     vdW  Elec       q    Type
REMARK                         _______ _______ _______ _____ _____    ______ ____
ROOT
ATOM      1  N   UNL     1      35.461 -20.020 -20.598  0.00  0.00    +0.389 N 
ATOM      2  N   UNL     1      34.652 -17.677 -22.017  0.00  0.00    -0.309 N 
ATOM      3  C   UNL     1      36.260 -18.790 -20.520  0.00  0.00    -0.055 C 
ATOM      4  C   UNL     1      34.038 -19.683 -20.724  0.00  0.00    -0.055 C 
ATOM      5  C   UNL     1      36.075 -17.934 -21.776  0.00  0.00    +0.068 C 
ATOM      6  C   UNL     1      33.778 -18.857 -21.986  0.00  0.00    +0.068 C 
ATOM      7  H   UNL     1      35.749 -20.548 -21.421  0.00  0.00    -0.080 HD
ENDROOT
BRANCH   2   8
ATOM      8  C   UNL     1      34.268 -16.596 -22.820  0.00  0.00    +0.082 C 
ATOM      9  C   UNL     1      34.111 -15.300 -22.289  0.00  0.00    +0.152 C 
ATOM     10  C   UNL     1      34.026 -16.780 -24.196  0.00  0.00    +0.018 C 
ATOM     11  C   UNL     1      33.727 -14.232 -23.100  0.00  0.00    +0.038 C 
ATOM     12  C   UNL     1      33.643 -15.711 -25.008  0.00  0.00    +0.001 C 
ATOM     13  C   UNL     1      33.494 -14.438 -24.460  0.00  0.00    +0.003 C 
BRANCH   9  14
ATOM     14  O   UNL     1      34.334 -15.077 -20.962  0.00  0.00    -0.470 OA
ATOM     15  C   UNL     1      33.505 -14.112 -20.319  0.00  0.00    +0.253 C 
ENDBRANCH   9  14
ENDBRANCH   2   8
BRANCH   1  16
ATOM     16  C   UNL     1      35.688 -20.854 -19.418  0.00  0.00    -0.075 C 
BRANCH  16  17
ATOM     17  C   UNL     1      34.417 -21.629 -19.066  0.00  0.00    -0.002 C 
BRANCH  17  18
ATOM     18  C   UNL     1      34.346 -21.992 -17.584  0.00  0.00    +0.086 C 
BRANCH  18  19
ATOM     19  N   UNL     1      33.355 -23.001 -17.350  0.00  0.00    -0.321 N 
ATOM     20  H   UNL     1      33.192 -23.671 -18.052  0.00  0.00    +0.148 HD
BRANCH  19  25
ATOM     21  O   UNL     1      32.915 -24.034 -12.724  0.00  0.00    -0.252 OA
ATOM     22  O   UNL     1      29.309 -22.325 -15.119  0.00  0.00    -0.269 OA
ATOM     23  N   UNL     1      33.162 -23.541 -14.982  0.00  0.00    -0.229 N 
ATOM     24  N   UNL     1      31.081 -23.199 -13.870  0.00  0.00    -0.208 N 
ATOM     25  C   UNL     1      32.622 -23.073 -16.185  0.00  0.00    +0.108 C 
ATOM     26  C   UNL     1      31.339 -22.675 -16.214  0.00  0.00    +0.088 C 
ATOM     27  C   UNL     1      32.427 -23.624 -13.782  0.00  0.00    +0.318 C 
ATOM     28  C   UNL     1      30.472 -22.713 -15.023  0.00  0.00    +0.259 C 
ATOM     29  C   UNL     1      34.564 -23.967 -14.969  0.00  0.00    +0.123 C 
ATOM     30  C   UNL     1      30.289 -23.273 -12.647  0.00  0.00    +0.125 C 
ENDBRANCH  19  25
ENDBRANCH  18  19
ENDBRANCH  17  18
ENDBRANCH  16  17
ENDBRANCH   1  16
TORSDOF 7
ENDMDL
MODEL 8
REMARK VINA RESULT:     -10.4      3.403     11.630
REMARK  Name = 5639
REMARK  7 active torsions:
REMARK  status: ('A' for Active; 'I' for Inactive)
REMARK    1  A    between atoms: N_1  and  C_16
REMARK    2  A    between atoms: N_2  and  C_8
REMARK    3  A    between atoms: C_9  and  O_14
REMARK    4  A    between atoms: C_16  and  C_17
REMARK    5  A    between atoms: C_17  and  C_18
REMARK    6  A    between atoms: C_18  and  N_19
REMARK    7  A    between atoms: N_19  and  C_25
REMARK                            x       y       z     vdW  Elec       q    Type
REMARK                         _______ _______ _______ _____ _____    ______ ____
ROOT
ATOM      1  N   UNL     1      33.768 -15.239 -22.527  0.00  0.00    +0.389 N 
ATOM      2  N   UNL     1      32.724 -12.586 -22.354  0.00  0.00    -0.309 N 
ATOM      3  C   UNL     1      33.942 -14.298 -23.640  0.00  0.00    -0.055 C 
ATOM      4  C   UNL     1      33.792 -14.514 -21.251  0.00  0.00    -0.055 C 
ATOM      5  C   UNL     1      32.823 -13.252 -23.656  0.00  0.00    +0.068 C 
ATOM      6  C   UNL     1      32.670 -13.476 -21.187  0.00  0.00    +0.068 C 
ATOM      7  H   UNL     1      32.864 -15.702 -22.625  0.00  0.00    -0.080 HD
ENDROOT
BRANCH   2   8
ATOM      8  C   UNL     1      32.097 -11.338 -22.258  0.00  0.00    +0.082 C 
ATOM      9  C   UNL     1      32.624 -10.195 -22.894  0.00  0.00    +0.152 C 
ATOM     10  C   UNL     1      30.908 -11.191 -21.516  0.00  0.00    +0.018 C 
ATOM     11  C   UNL     1      31.989  -8.958 -22.791  0.00  0.00    +0.038 C 
ATOM     12  C   UNL     1      30.272  -9.954 -21.413  0.00  0.00    +0.001 C 
ATOM     13  C   UNL     1      30.813  -8.837 -22.050  0.00  0.00    +0.003 C 
BRANCH   9  14
ATOM     14  O   UNL     1      33.773 -10.292 -23.623  0.00  0.00    -0.470 OA
ATOM     15  C   UNL     1      34.490  -9.084 -23.865  0.00  0.00    +0.253 C 
ENDBRANCH   9  14
ENDBRANCH   2   8
BRANCH   1  16
ATOM     16  C   UNL     1      34.811 -16.264 -22.554  0.00  0.00    -0.075 C 
BRANCH  16  17
ATOM     17  C   UNL     1      34.909 -16.956 -21.193  0.00  0.00    -0.002 C 
BRANCH  17  18
ATOM     18  C   UNL     1      35.619 -18.305 -21.273  0.00  0.00    +0.086 C 
BRANCH  18  19
ATOM     19  N   UNL     1      34.674 -19.382 -21.284  0.00  0.00    -0.321 N 
ATOM     20  H   UNL     1      34.168 -19.555 -22.109  0.00  0.00    +0.148 HD
BRANCH  19  25
ATOM     21  O   UNL     1      31.763 -21.726 -18.334  0.00  0.00    -0.252 OA
ATOM     22  O   UNL     1      36.372 -21.840 -17.695  0.00  0.00    -0.269 OA
ATOM     23  N   UNL     1      33.157 -20.570 -19.791  0.00  0.00    -0.229 N 
ATOM     24  N   UNL     1      34.048 -21.806 -17.959  0.00  0.00    -0.208 N 
ATOM     25  C   UNL     1      34.443 -20.186 -20.188  0.00  0.00    +0.108 C 
ATOM     26  C   UNL     1      35.500 -20.615 -19.479  0.00  0.00    +0.088 C 
ATOM     27  C   UNL     1      32.902 -21.389 -18.673  0.00  0.00    +0.318 C 
ATOM     28  C   UNL     1      35.360 -21.477 -18.292  0.00  0.00    +0.259 C 
ATOM     29  C   UNL     1      32.016 -20.095 -20.580  0.00  0.00    +0.123 C 
ATOM     30  C   UNL     1      33.822 -22.655 -16.793  0.00  0.00    +0.125 C 
ENDBRANCH  19  25
ENDBRANCH  18  19
ENDBRANCH  17  18
ENDBRANCH  16  17
ENDBRANCH   1  16
TORSDOF 7
ENDMDL
MODEL 9
REMARK VINA RESULT:     -10.2      1.794     10.683
REMARK  Name = 5639
REMARK  7 active torsions:
REMARK  status: ('A' for Active; 'I' for Inactive)
REMARK    1  A    between atoms: N_1  and  C_16
REMARK    2  A    between atoms: N_2  and  C_8
REMARK    3  A    between atoms: C_9  and  O_14
REMARK    4  A    between atoms: C_16  and  C_17
REMARK    5  A    between atoms: C_17  and  C_18
REMARK    6  A    between atoms: C_18  and  N_19
REMARK    7  A    between atoms: N_19  and  C_25
REMARK                            x       y       z     vdW  Elec       q    Type
REMARK                         _______ _______ _______ _____ _____    ______ ____
ROOT
ATOM      1  N   UNL     1      35.307 -20.275 -20.608  0.00  0.00    +0.389 N 
ATOM      2  N   UNL     1      34.692 -17.531 -21.110  0.00  0.00    -0.309 N 
ATOM      3  C   UNL     1      36.268 -19.221 -20.258  0.00  0.00    -0.055 C 
ATOM      4  C   UNL     1      33.937 -19.778 -20.436  0.00  0.00    -0.055 C 
ATOM      5  C   UNL     1      36.083 -17.990 -21.150  0.00  0.00    +0.068 C 
ATOM      6  C   UNL     1      33.674 -18.566 -21.333  0.00  0.00    +0.068 C 
ATOM      7  H   UNL     1      35.443 -20.533 -21.585  0.00  0.00    -0.080 HD
ENDROOT
BRANCH   2   8
ATOM      8  C   UNL     1      34.383 -16.217 -21.481  0.00  0.00    +0.082 C 
ATOM      9  C   UNL     1      34.336 -15.822 -22.834  0.00  0.00    +0.152 C 
ATOM     10  C   UNL     1      34.107 -15.244 -20.499  0.00  0.00    +0.018 C 
ATOM     11  C   UNL     1      34.027 -14.509 -23.189  0.00  0.00    +0.038 C 
ATOM     12  C   UNL     1      33.797 -13.931 -20.855  0.00  0.00    +0.001 C 
ATOM     13  C   UNL     1      33.757 -13.564 -22.200  0.00  0.00    +0.003 C 
BRANCH   9  14
ATOM     14  O   UNL     1      34.596 -16.732 -23.816  0.00  0.00    -0.470 OA
ATOM     15  C   UNL     1      33.537 -17.023 -24.724  0.00  0.00    +0.253 C 
ENDBRANCH   9  14
ENDBRANCH   2   8
BRANCH   1  16
ATOM     16  C   UNL     1      35.529 -21.464 -19.786  0.00  0.00    -0.075 C 
BRANCH  16  17
ATOM     17  C   UNL     1      35.962 -21.058 -18.375  0.00  0.00    -0.002 C 
BRANCH  17  18
ATOM     18  C   UNL     1      35.232 -21.848 -17.291  0.00  0.00    +0.086 C 
BRANCH  18  19
ATOM     19  N   UNL     1      35.785 -21.574 -15.997  0.00  0.00    -0.321 N 
ATOM     20  H   UNL     1      35.769 -20.647 -15.667  0.00  0.00    +0.148 HD
BRANCH  19  25
ATOM     21  O   UNL     1      35.488 -24.813 -12.521  0.00  0.00    -0.252 OA
ATOM     22  O   UNL     1      39.495 -24.139 -14.790  0.00  0.00    -0.269 OA
ATOM     23  N   UNL     1      35.600 -23.222 -14.212  0.00  0.00    -0.229 N 
ATOM     24  N   UNL     1      37.513 -24.510 -13.607  0.00  0.00    -0.208 N 
ATOM     25  C   UNL     1      36.335 -22.550 -15.196  0.00  0.00    +0.108 C 
ATOM     26  C   UNL     1      37.629 -22.865 -15.373  0.00  0.00    +0.088 C 
ATOM     27  C   UNL     1      36.147 -24.222 -13.383  0.00  0.00    +0.318 C 
ATOM     28  C   UNL     1      38.310 -23.895 -14.569  0.00  0.00    +0.259 C 
ATOM     29  C   UNL     1      34.189 -22.868 -14.036  0.00  0.00    +0.123 C 
ATOM     30  C   UNL     1      38.113 -25.539 -12.765  0.00  0.00    +0.125 C 
ENDBRANCH  19  25
ENDBRANCH  18  19
ENDBRANCH  17  18
ENDBRANCH  16  17
ENDBRANCH   1  16
TORSDOF 7
ENDMDL
