MODEL 1
REMARK VINA RESULT:     -12.4      0.000      0.000
REMARK  Name = 35802
REMARK  4 active torsions:
REMARK  status: ('A' for Active; 'I' for Inactive)
REMARK    1  A    between atoms: N_4  and  C_11
REMARK    2  A    between atoms: C_7  and  C_17
REMARK    3  A    between atoms: C_12  and  O_25
REMARK    4  A    between atoms: C_17  and  C_19
REMARK                            x       y       z     vdW  Elec       q    Type
REMARK                         _______ _______ _______ _____ _____    ______ ____
ROOT
ATOM      1  N   UNL     1      33.909 -14.033 -22.406  0.00  0.00    -0.302 N 
ATOM      2  N   UNL     1      33.096 -14.606 -24.393  0.00  0.00    -0.302 N 
ATOM      3  C   UNL     1      34.164 -15.374 -22.533  0.00  0.00    +0.060 C 
ATOM      4  C   UNL     1      33.646 -15.708 -23.782  0.00  0.00    +0.060 C 
ATOM      5  C   UNL     1      34.873 -17.613 -22.151  0.00  0.00    +0.040 C 
ATOM      6  C   UNL     1      34.785 -16.296 -21.688  0.00  0.00    +0.019 C 
ATOM      7  C   UNL     1      33.745 -17.036 -24.230  0.00  0.00    +0.016 C 
ATOM      8  C   UNL     1      34.364 -17.978 -23.399  0.00  0.00    +0.005 C 
ATOM      9  C   UNL     1      33.269 -13.620 -23.543  0.00  0.00    +0.229 C 
ATOM     10  H   UNL     1      34.144 -13.467 -21.635  0.00  0.00    +0.150 HD
ATOM     11  H   UNL     1      32.664 -14.565 -25.278  0.00  0.00    +0.150 HD
ENDROOT
BRANCH   9  13
ATOM     12  O   UNL     1      32.008 -11.781 -21.577  0.00  0.00    -0.226 OA
ATOM     13  N   UNL     1      32.894 -12.310 -23.689  0.00  0.00    -0.240 N 
ATOM     14  C   UNL     1      32.303 -11.487 -22.729  0.00  0.00    +0.404 C 
ATOM     15  H   UNL     1      33.060 -11.904 -24.570  0.00  0.00    +0.156 HD
BRANCH  14  16
ATOM     16  O   UNL     1      32.083 -10.248 -23.268  0.00  0.00    -0.431 OA
ATOM     17  C   UNL     1      31.341  -9.330 -22.457  0.00  0.00    +0.257 C 
ENDBRANCH  14  16
ENDBRANCH   9  13
BRANCH   5  19
ATOM     18  O   UNL     1      36.746 -18.679 -21.240  0.00  0.00    -0.287 OA
ATOM     19  C   UNL     1      35.510 -18.619 -21.315  0.00  0.00    +0.196 C 
BRANCH  19  21
ATOM     20  F   UNL     1      32.579 -22.334 -18.351  0.00  0.00    -0.204 F 
ATOM     21  C   UNL     1      34.725 -19.613 -20.522  0.00  0.00    +0.039 C 
ATOM     22  C   UNL     1      33.352 -19.578 -20.596  0.00  0.00    +0.005 C 
ATOM     23  C   UNL     1      35.407 -20.524 -19.749  0.00  0.00    +0.005 C 
ATOM     24  C   UNL     1      32.620 -20.506 -19.855  0.00  0.00    +0.030 C 
ATOM     25  C   UNL     1      34.676 -21.452 -19.010  0.00  0.00    +0.030 C 
ATOM     26  C   UNL     1      33.282 -21.443 -19.062  0.00  0.00    +0.140 C 
ENDBRANCH  19  21
ENDBRANCH   5  19
TORSDOF 4
ENDMDL
MODEL 2
REMARK VINA RESULT:     -12.3      4.576      8.368
REMARK  Name = 35802
REMARK  4 active torsions:
REMARK  status: ('A' for Active; 'I' for Inactive)
REMARK    1  A    between atoms: N_4  and  C_11
REMARK    2  A    between atoms: C_7  and  C_17
REMARK    3  A    between atoms: C_12  and  O_25
REMARK    4  A    between atoms: C_17  and  C_19
REMARK                            x       y       z     vdW  Elec       q    Type
REMARK                         _______ _______ _______ _____ _____    ______ ____
ROOT
ATOM      1  N   UNL     1      33.714 -20.492 -20.141  0.00  0.00    -0.302 N 
ATOM      2  N   UNL     1      35.825 -20.289 -19.475  0.00  0.00    -0.302 N 
ATOM      3  C   UNL     1      34.261 -19.525 -20.945  0.00  0.00    +0.060 C 
ATOM      4  C   UNL     1      35.579 -19.416 -20.509  0.00  0.00    +0.060 C 
ATOM      5  C   UNL     1      34.596 -17.846 -22.596  0.00  0.00    +0.040 C 
ATOM      6  C   UNL     1      33.732 -18.759 -21.985  0.00  0.00    +0.019 C 
ATOM      7  C   UNL     1      36.434 -18.494 -21.135  0.00  0.00    +0.016 C 
ATOM      8  C   UNL     1      35.924 -17.714 -22.182  0.00  0.00    +0.005 C 
ATOM      9  C   UNL     1      34.688 -20.918 -19.279  0.00  0.00    +0.229 C 
ATOM     10  H   UNL     1      32.788 -20.822 -20.177  0.00  0.00    +0.150 HD
ATOM     11  H   UNL     1      36.671 -20.415 -18.986  0.00  0.00    +0.150 HD
ENDROOT
BRANCH   9  13
ATOM     12  O   UNL     1      32.067 -21.941 -18.320  0.00  0.00    -0.226 OA
ATOM     13  N   UNL     1      34.417 -21.894 -18.356  0.00  0.00    -0.240 N 
ATOM     14  C   UNL     1      33.161 -22.338 -17.940  0.00  0.00    +0.404 C 
ATOM     15  H   UNL     1      35.195 -22.330 -17.940  0.00  0.00    +0.156 HD
BRANCH  14  16
ATOM     16  O   UNL     1      33.318 -23.326 -17.004  0.00  0.00    -0.431 OA
ATOM     17  C   UNL     1      33.901 -22.926 -15.758  0.00  0.00    +0.257 C 
ENDBRANCH  14  16
ENDBRANCH   9  13
BRANCH   5  19
ATOM     18  O   UNL     1      33.901 -17.514 -24.805  0.00  0.00    -0.287 OA
ATOM     19  C   UNL     1      34.103 -17.018 -23.687  0.00  0.00    +0.196 C 
BRANCH  19  21
ATOM     20  F   UNL     1      33.050 -11.570 -23.068  0.00  0.00    -0.204 F 
ATOM     21  C   UNL     1      33.821 -15.560 -23.520  0.00  0.00    +0.039 C 
ATOM     22  C   UNL     1      34.118 -14.966 -22.316  0.00  0.00    +0.005 C 
ATOM     23  C   UNL     1      33.276 -14.871 -24.579  0.00  0.00    +0.005 C 
ATOM     24  C   UNL     1      33.854 -13.605 -22.161  0.00  0.00    +0.030 C 
ATOM     25  C   UNL     1      33.014 -13.510 -24.425  0.00  0.00    +0.030 C 
ATOM     26  C   UNL     1      33.303 -12.877 -23.216  0.00  0.00    +0.140 C 
ENDBRANCH  19  21
ENDBRANCH   5  19
TORSDOF 4
ENDMDL
MODEL 3
REMARK VINA RESULT:     -12.1      5.183      8.670
REMARK  Name = 35802
REMARK  4 active torsions:
REMARK  status: ('A' for Active; 'I' for Inactive)
REMARK    1  A    between atoms: N_4  and  C_11
REMARK    2  A    between atoms: C_7  and  C_17
REMARK    3  A    between atoms: C_12  and  O_25
REMARK    4  A    between atoms: C_17  and  C_19
REMARK                            x       y       z     vdW  Elec       q    Type
REMARK                         _______ _______ _______ _____ _____    ______ ____
ROOT
ATOM      1  N   UNL     1      32.286 -21.555 -18.707  0.00  0.00    -0.302 N 
ATOM      2  N   UNL     1      34.188 -22.075 -17.682  0.00  0.00    -0.302 N 
ATOM      3  C   UNL     1      33.275 -20.945 -19.437  0.00  0.00    +0.060 C 
ATOM      4  C   UNL     1      34.452 -21.285 -18.776  0.00  0.00    +0.060 C 
ATOM      5  C   UNL     1      34.469 -19.688 -21.065  0.00  0.00    +0.040 C 
ATOM      6  C   UNL     1      33.240 -20.151 -20.584  0.00  0.00    +0.019 C 
ATOM      7  C   UNL     1      35.678 -20.811 -19.275  0.00  0.00    +0.016 C 
ATOM      8  C   UNL     1      35.667 -20.011 -20.425  0.00  0.00    +0.005 C 
ATOM      9  C   UNL     1      32.883 -22.218 -17.669  0.00  0.00    +0.229 C 
ATOM     10  H   UNL     1      31.321 -21.523 -18.896  0.00  0.00    +0.150 HD
ATOM     11  H   UNL     1      34.839 -22.452 -17.044  0.00  0.00    +0.150 HD
ENDROOT
BRANCH   9  13
ATOM     12  O   UNL     1      30.009 -21.917 -16.968  0.00  0.00    -0.226 OA
ATOM     13  N   UNL     1      32.124 -22.924 -16.772  0.00  0.00    -0.240 N 
ATOM     14  C   UNL     1      30.772 -22.742 -16.479  0.00  0.00    +0.404 C 
ATOM     15  H   UNL     1      32.585 -23.641 -16.279  0.00  0.00    +0.156 HD
BRANCH  14  16
ATOM     16  O   UNL     1      30.388 -23.649 -15.528  0.00  0.00    -0.431 OA
ATOM     17  C   UNL     1      28.982 -23.903 -15.430  0.00  0.00    +0.257 C 
ENDBRANCH  14  16
ENDBRANCH   9  13
BRANCH   5  19
ATOM     18  O   UNL     1      34.617 -19.371 -23.378  0.00  0.00    -0.287 OA
ATOM     19  C   UNL     1      34.498 -18.854 -22.258  0.00  0.00    +0.196 C 
BRANCH  19  21
ATOM     20  F   UNL     1      34.094 -13.290 -22.029  0.00  0.00    -0.204 F 
ATOM     21  C   UNL     1      34.390 -17.365 -22.196  0.00  0.00    +0.039 C 
ATOM     22  C   UNL     1      34.339 -16.759 -20.962  0.00  0.00    +0.005 C 
ATOM     23  C   UNL     1      34.345 -16.660 -23.376  0.00  0.00    +0.005 C 
ATOM     24  C   UNL     1      34.237 -15.370 -20.905  0.00  0.00    +0.030 C 
ATOM     25  C   UNL     1      34.245 -15.270 -23.319  0.00  0.00    +0.030 C 
ATOM     26  C   UNL     1      34.191 -14.625 -22.083  0.00  0.00    +0.140 C 
ENDBRANCH  19  21
ENDBRANCH   5  19
TORSDOF 4
ENDMDL
MODEL 4
REMARK VINA RESULT:     -11.6      3.291      5.140
REMARK  Name = 35802
REMARK  4 active torsions:
REMARK  status: ('A' for Active; 'I' for Inactive)
REMARK    1  A    between atoms: N_4  and  C_11
REMARK    2  A    between atoms: C_7  and  C_17
REMARK    3  A    between atoms: C_12  and  O_25
REMARK    4  A    between atoms: C_17  and  C_19
REMARK                            x       y       z     vdW  Elec       q    Type
REMARK                         _______ _______ _______ _____ _____    ______ ____
ROOT
ATOM      1  N   UNL     1      33.818 -18.633 -21.390  0.00  0.00    -0.302 N 
ATOM      2  N   UNL     1      35.968 -18.302 -20.932  0.00  0.00    -0.302 N 
ATOM      3  C   UNL     1      34.171 -19.646 -20.535  0.00  0.00    +0.060 C 
ATOM      4  C   UNL     1      35.518 -19.417 -20.265  0.00  0.00    +0.060 C 
ATOM      5  C   UNL     1      34.146 -21.572 -19.139  0.00  0.00    +0.040 C 
ATOM      6  C   UNL     1      33.450 -20.711 -19.993  0.00  0.00    +0.019 C 
ATOM      7  C   UNL     1      36.202 -20.293 -19.404  0.00  0.00    +0.016 C 
ATOM      8  C   UNL     1      35.498 -21.369 -18.848  0.00  0.00    +0.005 C 
ATOM      9  C   UNL     1      34.926 -17.856 -21.596  0.00  0.00    +0.229 C 
ATOM     10  H   UNL     1      32.928 -18.489 -21.783  0.00  0.00    +0.150 HD
ATOM     11  H   UNL     1      36.876 -17.920 -20.915  0.00  0.00    +0.150 HD
ENDROOT
BRANCH   9  13
ATOM     12  O   UNL     1      34.207 -15.047 -20.941  0.00  0.00    -0.226 OA
ATOM     13  N   UNL     1      34.859 -16.759 -22.414  0.00  0.00    -0.240 N 
ATOM     14  C   UNL     1      34.515 -15.455 -22.054  0.00  0.00    +0.404 C 
ATOM     15  H   UNL     1      35.079 -16.907 -23.362  0.00  0.00    +0.156 HD
BRANCH  14  16
ATOM     16  O   UNL     1      34.567 -14.651 -23.162  0.00  0.00    -0.431 OA
ATOM     17  C   UNL     1      33.309 -14.177 -23.657  0.00  0.00    +0.257 C 
ENDBRANCH  14  16
ENDBRANCH   9  13
BRANCH   5  19
ATOM     18  O   UNL     1      33.263 -23.737 -19.196  0.00  0.00    -0.287 OA
ATOM     19  C   UNL     1      33.448 -22.701 -18.543  0.00  0.00    +0.196 C 
BRANCH  19  21
ATOM     20  F   UNL     1      31.506 -22.584 -13.309  0.00  0.00    -0.204 F 
ATOM     21  C   UNL     1      32.928 -22.669 -17.142  0.00  0.00    +0.039 C 
ATOM     22  C   UNL     1      31.578 -22.495 -16.945  0.00  0.00    +0.005 C 
ATOM     23  C   UNL     1      33.821 -22.816 -16.106  0.00  0.00    +0.005 C 
ATOM     24  C   UNL     1      31.093 -22.465 -15.638  0.00  0.00    +0.030 C 
ATOM     25  C   UNL     1      33.336 -22.787 -14.799  0.00  0.00    +0.030 C 
ATOM     26  C   UNL     1      31.972 -22.612 -14.565  0.00  0.00    +0.140 C 
ENDBRANCH  19  21
ENDBRANCH   5  19
TORSDOF 4
ENDMDL
MODEL 5
REMARK VINA RESULT:     -11.4      5.184      8.915
REMARK  Name = 35802
REMARK  4 active torsions:
REMARK  status: ('A' for Active; 'I' for Inactive)
REMARK    1  A    between atoms: N_4  and  C_11
REMARK    2  A    between atoms: C_7  and  C_17
REMARK    3  A    between atoms: C_12  and  O_25
REMARK    4  A    between atoms: C_17  and  C_19
REMARK                            x       y       z     vdW  Elec       q    Type
REMARK                         _______ _______ _______ _____ _____    ______ ____
ROOT
ATOM      1  N   UNL     1      34.619 -21.782 -18.102  0.00  0.00    -0.302 N 
ATOM      2  N   UNL     1      32.415 -21.881 -18.378  0.00  0.00    -0.302 N 
ATOM      3  C   UNL     1      34.340 -20.927 -19.138  0.00  0.00    +0.060 C 
ATOM      4  C   UNL     1      32.958 -21.007 -19.290  0.00  0.00    +0.060 C 
ATOM      5  C   UNL     1      34.516 -19.357 -20.916  0.00  0.00    +0.040 C 
ATOM      6  C   UNL     1      35.154 -20.114 -19.929  0.00  0.00    +0.019 C 
ATOM      7  C   UNL     1      32.334 -20.238 -20.287  0.00  0.00    +0.016 C 
ATOM      8  C   UNL     1      33.132 -19.415 -21.094  0.00  0.00    +0.005 C 
ATOM      9  C   UNL     1      33.436 -22.328 -17.683  0.00  0.00    +0.229 C 
ATOM     10  H   UNL     1      35.509 -21.970 -17.728  0.00  0.00    +0.150 HD
ATOM     11  H   UNL     1      31.466 -22.121 -18.270  0.00  0.00    +0.150 HD
ENDROOT
BRANCH   9  13
ATOM     12  O   UNL     1      34.731 -22.165 -15.011  0.00  0.00    -0.226 OA
ATOM     13  N   UNL     1      33.417 -23.226 -16.647  0.00  0.00    -0.240 N 
ATOM     14  C   UNL     1      34.045 -23.100 -15.407  0.00  0.00    +0.404 C 
ATOM     15  H   UNL     1      32.903 -24.052 -16.794  0.00  0.00    +0.156 HD
BRANCH  14  16
ATOM     16  O   UNL     1      33.783 -24.212 -14.652  0.00  0.00    -0.431 OA
ATOM     17  C   UNL     1      32.920 -24.020 -13.525  0.00  0.00    +0.257 C 
ENDBRANCH  14  16
ENDBRANCH   9  13
BRANCH   5  19
ATOM     18  O   UNL     1      36.505 -18.747 -21.986  0.00  0.00    -0.287 OA
ATOM     19  C   UNL     1      35.311 -18.491 -21.773  0.00  0.00    +0.196 C 
BRANCH  19  21
ATOM     20  F   UNL     1      33.191 -13.935 -24.208  0.00  0.00    -0.204 F 
ATOM     21  C   UNL     1      34.744 -17.272 -22.425  0.00  0.00    +0.039 C 
ATOM     22  C   UNL     1      34.337 -17.355 -23.737  0.00  0.00    +0.005 C 
ATOM     23  C   UNL     1      34.650 -16.115 -21.688  0.00  0.00    +0.005 C 
ATOM     24  C   UNL     1      33.809 -16.217 -24.345  0.00  0.00    +0.030 C 
ATOM     25  C   UNL     1      34.120 -14.977 -22.295  0.00  0.00    +0.030 C 
ATOM     26  C   UNL     1      33.699 -15.028 -23.624  0.00  0.00    +0.140 C 
ENDBRANCH  19  21
ENDBRANCH   5  19
TORSDOF 4
ENDMDL
MODEL 6
REMARK VINA RESULT:     -11.4      3.153      4.677
REMARK  Name = 35802
REMARK  4 active torsions:
REMARK  status: ('A' for Active; 'I' for Inactive)
REMARK    1  A    between atoms: N_4  and  C_11
REMARK    2  A    between atoms: C_7  and  C_17
REMARK    3  A    between atoms: C_12  and  O_25
REMARK    4  A    between atoms: C_17  and  C_19
REMARK                            x       y       z     vdW  Elec       q    Type
REMARK                         _______ _______ _______ _____ _____    ______ ____
ROOT
ATOM      1  N   UNL     1      33.728 -18.152 -22.445  0.00  0.00    -0.302 N 
ATOM      2  N   UNL     1      35.823 -17.443 -22.222  0.00  0.00    -0.302 N 
ATOM      3  C   UNL     1      34.288 -18.959 -21.487  0.00  0.00    +0.060 C 
ATOM      4  C   UNL     1      35.596 -18.496 -21.367  0.00  0.00    +0.060 C 
ATOM      5  C   UNL     1      34.653 -20.629 -19.833  0.00  0.00    +0.040 C 
ATOM      6  C   UNL     1      33.779 -20.021 -20.739  0.00  0.00    +0.019 C 
ATOM      7  C   UNL     1      36.461 -19.118 -20.450  0.00  0.00    +0.016 C 
ATOM      8  C   UNL     1      35.970 -20.187 -19.688  0.00  0.00    +0.005 C 
ATOM      9  C   UNL     1      34.685 -17.263 -22.853  0.00  0.00    +0.229 C 
ATOM     10  H   UNL     1      32.804 -18.203 -22.779  0.00  0.00    +0.150 HD
ATOM     11  H   UNL     1      36.659 -16.934 -22.337  0.00  0.00    +0.150 HD
ENDROOT
BRANCH   9  13
ATOM     12  O   UNL     1      32.686 -17.360 -25.052  0.00  0.00    -0.226 OA
ATOM     13  N   UNL     1      34.396 -16.327 -23.812  0.00  0.00    -0.240 N 
ATOM     14  C   UNL     1      33.442 -16.423 -24.826  0.00  0.00    +0.404 C 
ATOM     15  H   UNL     1      34.919 -15.494 -23.781  0.00  0.00    +0.156 HD
BRANCH  14  16
ATOM     16  O   UNL     1      33.463 -15.277 -25.576  0.00  0.00    -0.431 OA
ATOM     17  C   UNL     1      32.985 -14.091 -24.929  0.00  0.00    +0.257 C 
ENDBRANCH  14  16
ENDBRANCH   9  13
BRANCH   5  19
ATOM     18  O   UNL     1      33.356 -22.544 -19.486  0.00  0.00    -0.287 OA
ATOM     19  C   UNL     1      34.180 -21.742 -19.024  0.00  0.00    +0.196 C 
BRANCH  19  21
ATOM     20  F   UNL     1      35.937 -22.591 -13.792  0.00  0.00    -0.204 F 
ATOM     21  C   UNL     1      34.649 -21.969 -17.624  0.00  0.00    +0.039 C 
ATOM     22  C   UNL     1      33.773 -22.519 -16.717  0.00  0.00    +0.005 C 
ATOM     23  C   UNL     1      35.939 -21.619 -17.298  0.00  0.00    +0.005 C 
ATOM     24  C   UNL     1      34.212 -22.730 -15.410  0.00  0.00    +0.030 C 
ATOM     25  C   UNL     1      36.378 -21.832 -15.992  0.00  0.00    +0.030 C 
ATOM     26  C   UNL     1      35.515 -22.387 -15.047  0.00  0.00    +0.140 C 
ENDBRANCH  19  21
ENDBRANCH   5  19
TORSDOF 4
ENDMDL
MODEL 7
REMARK VINA RESULT:     -11.4      5.066      8.440
REMARK  Name = 35802
REMARK  4 active torsions:
REMARK  status: ('A' for Active; 'I' for Inactive)
REMARK    1  A    between atoms: N_4  and  C_11
REMARK    2  A    between atoms: C_7  and  C_17
REMARK    3  A    between atoms: C_12  and  O_25
REMARK    4  A    between atoms: C_17  and  C_19
REMARK                            x       y       z     vdW  Elec       q    Type
REMARK                         _______ _______ _______ _____ _____    ______ ____
ROOT
ATOM      1  N   UNL     1      32.002 -21.009 -18.915  0.00  0.00    -0.302 N 
ATOM      2  N   UNL     1      33.303 -22.275 -17.633  0.00  0.00    -0.302 N 
ATOM      3  C   UNL     1      33.287 -20.706 -19.286  0.00  0.00    +0.060 C 
ATOM      4  C   UNL     1      34.081 -21.509 -18.470  0.00  0.00    +0.060 C 
ATOM      5  C   UNL     1      35.201 -19.771 -20.346  0.00  0.00    +0.040 C 
ATOM      6  C   UNL     1      33.808 -19.825 -20.235  0.00  0.00    +0.019 C 
ATOM      7  C   UNL     1      35.479 -21.442 -18.596  0.00  0.00    +0.016 C 
ATOM      8  C   UNL     1      36.023 -20.565 -19.543  0.00  0.00    +0.005 C 
ATOM      9  C   UNL     1      32.064 -21.951 -17.925  0.00  0.00    +0.229 C 
ATOM     10  H   UNL     1      31.181 -20.619 -19.293  0.00  0.00    +0.150 HD
ATOM     11  H   UNL     1      33.610 -22.925 -16.959  0.00  0.00    +0.150 HD
ENDROOT
BRANCH   9  13
ATOM     12  O   UNL     1      31.437 -22.513 -15.073  0.00  0.00    -0.226 OA
ATOM     13  N   UNL     1      30.914 -22.443 -17.364  0.00  0.00    -0.240 N 
ATOM     14  C   UNL     1      30.670 -22.689 -16.012  0.00  0.00    +0.404 C 
ATOM     15  H   UNL     1      30.177 -22.645 -17.985  0.00  0.00    +0.156 HD
BRANCH  14  16
ATOM     16  O   UNL     1      29.400 -23.178 -15.863  0.00  0.00    -0.431 OA
ATOM     17  C   UNL     1      28.337 -22.296 -16.242  0.00  0.00    +0.257 C 
ENDBRANCH  14  16
ENDBRANCH   9  13
BRANCH   5  19
ATOM     18  O   UNL     1      37.030 -18.694 -21.328  0.00  0.00    -0.287 OA
ATOM     19  C   UNL     1      35.803 -18.872 -21.319  0.00  0.00    +0.196 C 
BRANCH  19  21
ATOM     20  F   UNL     1      32.777 -16.104 -25.107  0.00  0.00    -0.204 F 
ATOM     21  C   UNL     1      34.993 -18.132 -22.333  0.00  0.00    +0.039 C 
ATOM     22  C   UNL     1      34.307 -18.854 -23.282  0.00  0.00    +0.005 C 
ATOM     23  C   UNL     1      34.966 -16.758 -22.276  0.00  0.00    +0.005 C 
ATOM     24  C   UNL     1      33.552 -18.162 -24.229  0.00  0.00    +0.030 C 
ATOM     25  C   UNL     1      34.210 -16.066 -23.222  0.00  0.00    +0.030 C 
ATOM     26  C   UNL     1      33.503 -16.768 -24.198  0.00  0.00    +0.140 C 
ENDBRANCH  19  21
ENDBRANCH   5  19
TORSDOF 4
ENDMDL
MODEL 8
REMARK VINA RESULT:     -11.3      5.391      9.073
REMARK  Name = 35802
REMARK  4 active torsions:
REMARK  status: ('A' for Active; 'I' for Inactive)
REMARK    1  A    between atoms: N_4  and  C_11
REMARK    2  A    between atoms: C_7  and  C_17
REMARK    3  A    between atoms: C_12  and  O_25
REMARK    4  A    between atoms: C_17  and  C_19
REMARK                            x       y       z     vdW  Elec       q    Type
REMARK                         _______ _______ _______ _____ _____    ______ ____
ROOT
ATOM      1  N   UNL     1      34.315 -22.094 -17.611  0.00  0.00    -0.302 N 
ATOM      2  N   UNL     1      32.119 -22.082 -17.952  0.00  0.00    -0.302 N 
ATOM      3  C   UNL     1      34.115 -21.255 -18.677  0.00  0.00    +0.060 C 
ATOM      4  C   UNL     1      32.736 -21.265 -18.871  0.00  0.00    +0.060 C 
ATOM      5  C   UNL     1      34.429 -19.749 -20.492  0.00  0.00    +0.040 C 
ATOM      6  C   UNL     1      34.994 -20.511 -19.465  0.00  0.00    +0.019 C 
ATOM      7  C   UNL     1      32.185 -20.492 -19.907  0.00  0.00    +0.016 C 
ATOM      8  C   UNL     1      33.049 -19.737 -20.710  0.00  0.00    +0.005 C 
ATOM      9  C   UNL     1      33.093 -22.563 -17.214  0.00  0.00    +0.229 C 
ATOM     10  H   UNL     1      35.182 -22.319 -17.204  0.00  0.00    +0.150 HD
ATOM     11  H   UNL     1      31.155 -22.267 -17.867  0.00  0.00    +0.150 HD
ENDROOT
BRANCH   9  13
ATOM     12  O   UNL     1      31.604 -22.266 -14.657  0.00  0.00    -0.226 OA
ATOM     13  N   UNL     1      32.994 -23.428 -16.155  0.00  0.00    -0.240 N 
ATOM     14  C   UNL     1      32.278 -23.239 -14.972  0.00  0.00    +0.404 C 
ATOM     15  H   UNL     1      33.483 -24.279 -16.239  0.00  0.00    +0.156 HD
BRANCH  14  16
ATOM     16  O   UNL     1      32.434 -24.337 -14.168  0.00  0.00    -0.431 OA
ATOM     17  C   UNL     1      31.297 -24.707 -13.379  0.00  0.00    +0.257 C 
ENDBRANCH  14  16
ENDBRANCH   9  13
BRANCH   5  19
ATOM     18  O   UNL     1      36.527 -19.044 -21.248  0.00  0.00    -0.287 OA
ATOM     19  C   UNL     1      35.295 -18.952 -21.347  0.00  0.00    +0.196 C 
BRANCH  19  21
ATOM     20  F   UNL     1      33.283 -15.399 -25.156  0.00  0.00    -0.204 F 
ATOM     21  C   UNL     1      34.757 -18.000 -22.366  0.00  0.00    +0.039 C 
ATOM     22  C   UNL     1      34.875 -16.650 -22.133  0.00  0.00    +0.005 C 
ATOM     23  C   UNL     1      34.164 -18.514 -23.496  0.00  0.00    +0.005 C 
ATOM     24  C   UNL     1      34.372 -15.763 -23.084  0.00  0.00    +0.030 C 
ATOM     25  C   UNL     1      33.662 -17.626 -24.447  0.00  0.00    +0.030 C 
ATOM     26  C   UNL     1      33.766 -16.251 -24.242  0.00  0.00    +0.140 C 
ENDBRANCH  19  21
ENDBRANCH   5  19
TORSDOF 4
ENDMDL
MODEL 9
REMARK VINA RESULT:     -11.3      1.764      2.782
REMARK  Name = 35802
REMARK  4 active torsions:
REMARK  status: ('A' for Active; 'I' for Inactive)
REMARK    1  A    between atoms: N_4  and  C_11
REMARK    2  A    between atoms: C_7  and  C_17
REMARK    3  A    between atoms: C_12  and  O_25
REMARK    4  A    between atoms: C_17  and  C_19
REMARK                            x       y       z     vdW  Elec       q    Type
REMARK                         _______ _______ _______ _____ _____    ______ ____
ROOT
ATOM      1  N   UNL     1      32.990 -12.543 -23.919  0.00  0.00    -0.302 N 
ATOM      2  N   UNL     1      32.981 -11.911 -21.788  0.00  0.00    -0.302 N 
ATOM      3  C   UNL     1      33.381 -13.649 -23.208  0.00  0.00    +0.060 C 
ATOM      4  C   UNL     1      33.368 -13.228 -21.880  0.00  0.00    +0.060 C 
ATOM      5  C   UNL     1      34.087 -15.832 -22.582  0.00  0.00    +0.040 C 
ATOM      6  C   UNL     1      33.734 -14.940 -23.599  0.00  0.00    +0.019 C 
ATOM      7  C   UNL     1      33.725 -14.138 -20.871  0.00  0.00    +0.016 C 
ATOM      8  C   UNL     1      34.083 -15.441 -21.241  0.00  0.00    +0.005 C 
ATOM      9  C   UNL     1      32.763 -11.531 -23.026  0.00  0.00    +0.229 C 
ATOM     10  H   UNL     1      32.890 -12.486 -24.896  0.00  0.00    +0.150 HD
ATOM     11  H   UNL     1      32.889 -11.370 -20.970  0.00  0.00    +0.150 HD
ENDROOT
BRANCH   9  13
ATOM     12  O   UNL     1      31.316  -9.383 -21.566  0.00  0.00    -0.226 OA
ATOM     13  N   UNL     1      32.355 -10.299 -23.466  0.00  0.00    -0.240 N 
ATOM     14  C   UNL     1      31.675  -9.323 -22.736  0.00  0.00    +0.404 C 
ATOM     15  H   UNL     1      32.565 -10.077 -24.402  0.00  0.00    +0.156 HD
BRANCH  14  16
ATOM     16  O   UNL     1      31.450  -8.234 -23.535  0.00  0.00    -0.431 OA
ATOM     17  C   UNL     1      30.389  -7.362 -23.128  0.00  0.00    +0.257 C 
ENDBRANCH  14  16
ENDBRANCH   9  13
BRANCH   5  19
ATOM     18  O   UNL     1      34.445 -17.567 -24.110  0.00  0.00    -0.287 OA
ATOM     19  C   UNL     1      34.465 -17.194 -22.928  0.00  0.00    +0.196 C 
BRANCH  19  21
ATOM     20  F   UNL     1      36.037 -20.927 -19.085  0.00  0.00    -0.204 F 
ATOM     21  C   UNL     1      34.885 -18.193 -21.900  0.00  0.00    +0.039 C 
ATOM     22  C   UNL     1      33.969 -19.129 -21.479  0.00  0.00    +0.005 C 
ATOM     23  C   UNL     1      36.171 -18.137 -21.415  0.00  0.00    +0.005 C 
ATOM     24  C   UNL     1      34.362 -20.061 -20.518  0.00  0.00    +0.030 C 
ATOM     25  C   UNL     1      36.564 -19.069 -20.455  0.00  0.00    +0.030 C 
ATOM     26  C   UNL     1      35.659 -20.032 -20.007  0.00  0.00    +0.140 C 
ENDBRANCH  19  21
ENDBRANCH   5  19
TORSDOF 4
ENDMDL
