MODEL 1
REMARK VINA RESULT:     -15.6      0.000      0.000
REMARK  Name = 89670174
REMARK  4 active torsions:
REMARK  status: ('A' for Active; 'I' for Inactive)
REMARK    1  A    between atoms: C_3  and  C_13
REMARK    2  A    between atoms: C_9  and  O_26
REMARK    3  A    between atoms: C_18  and  C_25
REMARK    4  A    between atoms: O_26  and  C_30
REMARK                            x       y       z     vdW  Elec       q    Type
REMARK                         _______ _______ _______ _____ _____    ______ ____
ROOT
ATOM      1  O   UNL     1      34.241 -19.068 -23.594  0.00  0.00    -0.479 OA
ATOM      2  C   UNL     1      35.029 -18.193 -21.451  0.00  0.00    +0.072 C 
ATOM      3  C   UNL     1      34.062 -19.294 -21.044  0.00  0.00    +0.085 C 
ATOM      4  C   UNL     1      34.873 -19.441 -22.313  0.00  0.00    +0.174 C 
ATOM      5  C   UNL     1      34.595 -17.120 -22.381  0.00  0.00    +0.018 C 
ATOM      6  C   UNL     1      34.166 -17.683 -23.590  0.00  0.00    +0.135 C 
ATOM      7  C   UNL     1      34.562 -15.743 -22.222  0.00  0.00    +0.036 C 
ATOM      8  C   UNL     1      33.699 -16.926 -24.646  0.00  0.00    +0.040 C 
ATOM      9  C   UNL     1      34.096 -14.954 -23.279  0.00  0.00    +0.145 C 
ATOM     10  C   UNL     1      33.668 -15.542 -24.482  0.00  0.00    +0.041 C 
ENDROOT
BRANCH   3  13
ATOM     11  N   UNL     1      35.605 -20.225 -19.247  0.00  0.00    -0.318 N 
ATOM     12  N   UNL     1      33.499 -20.934 -19.248  0.00  0.00    -0.318 N 
ATOM     13  C   UNL     1      34.376 -20.158 -19.842  0.00  0.00    +0.148 C 
ATOM     14  C   UNL     1      35.514 -21.103 -18.198  0.00  0.00    +0.059 C 
ATOM     15  C   UNL     1      34.191 -21.532 -18.219  0.00  0.00    +0.059 C 
ATOM     16  C   UNL     1      36.449 -21.546 -17.261  0.00  0.00    +0.019 C 
ATOM     17  C   UNL     1      33.755 -22.457 -17.255  0.00  0.00    +0.016 C 
ATOM     18  C   UNL     1      35.999 -22.467 -16.309  0.00  0.00    +0.073 C 
ATOM     19  C   UNL     1      34.676 -22.915 -16.305  0.00  0.00    +0.005 C 
ATOM     20  H   UNL     1      36.411 -19.731 -19.523  0.00  0.00    +0.148 HD
ATOM     21  H   UNL     1      32.552 -21.061 -19.485  0.00  0.00    +0.148 HD
BRANCH  18  25
ATOM     22  F   UNL     1      36.860 -22.321 -14.083  0.00  0.00    -0.166 F 
ATOM     23  F   UNL     1      36.775 -24.295 -14.976  0.00  0.00    -0.166 F 
ATOM     24  F   UNL     1      38.253 -22.857 -15.665  0.00  0.00    -0.166 F 
ATOM     25  C   UNL     1      36.950 -22.976 -15.278  0.00  0.00    +0.419 C 
ENDBRANCH  18  25
ENDBRANCH   3  13
BRANCH   9  26
ATOM     26  O   UNL     1      34.054 -13.578 -23.139  0.00  0.00    -0.454 OA
BRANCH  26  30
ATOM     27  O   UNL     1      30.735  -8.185 -22.869  0.00  0.00    -0.275 OA
ATOM     28  N   UNL     1      31.025 -10.129 -21.681  0.00  0.00    -0.270 N 
ATOM     29  N   UNL     1      31.342 -12.076 -20.375  0.00  0.00    -0.229 NA
ATOM     30  C   UNL     1      33.178 -13.060 -22.233  0.00  0.00    +0.146 C 
ATOM     31  C   UNL     1      32.573 -11.819 -22.439  0.00  0.00    +0.045 C 
ATOM     32  C   UNL     1      32.796 -11.038 -23.698  0.00  0.00    +0.042 C 
ATOM     33  C   UNL     1      32.877 -13.797 -21.093  0.00  0.00    +0.058 C 
ATOM     34  C   UNL     1      31.666 -11.367 -21.482  0.00  0.00    +0.133 C 
ATOM     35  C   UNL     1      32.621  -9.548 -23.448  0.00  0.00    +0.090 C 
ATOM     36  C   UNL     1      31.357  -9.230 -22.674  0.00  0.00    +0.227 C 
ATOM     37  C   UNL     1      31.959 -13.266 -20.206  0.00  0.00    +0.103 C 
ATOM     38  H   UNL     1      30.291  -9.888 -21.071  0.00  0.00    +0.156 HD
ENDBRANCH  26  30
ENDBRANCH   9  26
TORSDOF 4
ENDMDL
MODEL 2
REMARK VINA RESULT:     -14.6      2.015      2.625
REMARK  Name = 89670174
REMARK  4 active torsions:
REMARK  status: ('A' for Active; 'I' for Inactive)
REMARK    1  A    between atoms: C_3  and  C_13
REMARK    2  A    between atoms: C_9  and  O_26
REMARK    3  A    between atoms: C_18  and  C_25
REMARK    4  A    between atoms: O_26  and  C_30
REMARK                            x       y       z     vdW  Elec       q    Type
REMARK                         _______ _______ _______ _____ _____    ______ ____
ROOT
ATOM      1  O   UNL     1      34.171 -19.224 -23.363  0.00  0.00    -0.479 OA
ATOM      2  C   UNL     1      34.421 -18.475 -21.049  0.00  0.00    +0.072 C 
ATOM      3  C   UNL     1      33.274 -19.470 -20.971  0.00  0.00    +0.085 C 
ATOM      4  C   UNL     1      34.385 -19.684 -21.976  0.00  0.00    +0.174 C 
ATOM      5  C   UNL     1      34.368 -17.346 -22.012  0.00  0.00    +0.018 C 
ATOM      6  C   UNL     1      34.235 -17.840 -23.316  0.00  0.00    +0.135 C 
ATOM      7  C   UNL     1      34.430 -15.976 -21.806  0.00  0.00    +0.036 C 
ATOM      8  C   UNL     1      34.156 -17.020 -24.425  0.00  0.00    +0.040 C 
ATOM      9  C   UNL     1      34.354 -15.125 -22.914  0.00  0.00    +0.145 C 
ATOM     10  C   UNL     1      34.218 -15.644 -24.213  0.00  0.00    +0.041 C 
ENDROOT
BRANCH   3  13
ATOM     11  N   UNL     1      31.982 -20.650 -19.122  0.00  0.00    -0.318 N 
ATOM     12  N   UNL     1      34.173 -21.011 -19.224  0.00  0.00    -0.318 N 
ATOM     13  C   UNL     1      33.157 -20.383 -19.769  0.00  0.00    +0.148 C 
ATOM     14  C   UNL     1      32.261 -21.509 -18.090  0.00  0.00    +0.059 C 
ATOM     15  C   UNL     1      33.634 -21.720 -18.174  0.00  0.00    +0.059 C 
ATOM     16  C   UNL     1      31.452 -22.102 -17.118  0.00  0.00    +0.019 C 
ATOM     17  C   UNL     1      34.255 -22.569 -17.244  0.00  0.00    +0.016 C 
ATOM     18  C   UNL     1      32.088 -22.944 -16.199  0.00  0.00    +0.073 C 
ATOM     19  C   UNL     1      33.464 -23.175 -16.260  0.00  0.00    +0.005 C 
ATOM     20  H   UNL     1      31.096 -20.290 -19.354  0.00  0.00    +0.148 HD
ATOM     21  H   UNL     1      35.117 -20.983 -19.505  0.00  0.00    +0.148 HD
BRANCH  18  25
ATOM     22  F   UNL     1      32.022 -24.358 -14.272  0.00  0.00    -0.166 F 
ATOM     23  F   UNL     1      30.583 -22.737 -14.351  0.00  0.00    -0.166 F 
ATOM     24  F   UNL     1      30.344 -24.463 -15.651  0.00  0.00    -0.166 F 
ATOM     25  C   UNL     1      31.277 -23.611 -15.138  0.00  0.00    +0.419 C 
ENDBRANCH  18  25
ENDBRANCH   3  13
BRANCH   9  26
ATOM     26  O   UNL     1      34.412 -13.755 -22.729  0.00  0.00    -0.454 OA
BRANCH  26  30
ATOM     27  O   UNL     1      31.202  -8.335 -23.433  0.00  0.00    -0.275 OA
ATOM     28  N   UNL     1      31.240 -10.189 -22.078  0.00  0.00    -0.270 N 
ATOM     29  N   UNL     1      31.284 -12.038 -20.603  0.00  0.00    -0.229 NA
ATOM     30  C   UNL     1      33.400 -13.167 -22.032  0.00  0.00    +0.146 C 
ATOM     31  C   UNL     1      32.865 -11.940 -22.428  0.00  0.00    +0.045 C 
ATOM     32  C   UNL     1      33.321 -11.254 -23.680  0.00  0.00    +0.042 C 
ATOM     33  C   UNL     1      32.889 -13.816 -20.914  0.00  0.00    +0.058 C 
ATOM     34  C   UNL     1      31.812 -11.413 -21.682  0.00  0.00    +0.133 C 
ATOM     35  C   UNL     1      33.133  -9.749 -23.570  0.00  0.00    +0.090 C 
ATOM     36  C   UNL     1      31.759  -9.367 -23.058  0.00  0.00    +0.227 C 
ATOM     37  C   UNL     1      31.838 -13.216 -20.243  0.00  0.00    +0.103 C 
ATOM     38  H   UNL     1      30.414  -9.900 -21.627  0.00  0.00    +0.156 HD
ENDBRANCH  26  30
ENDBRANCH   9  26
TORSDOF 4
ENDMDL
MODEL 3
REMARK VINA RESULT:     -14.5      5.685     11.166
REMARK  Name = 89670174
REMARK  4 active torsions:
REMARK  status: ('A' for Active; 'I' for Inactive)
REMARK    1  A    between atoms: C_3  and  C_13
REMARK    2  A    between atoms: C_9  and  O_26
REMARK    3  A    between atoms: C_18  and  C_25
REMARK    4  A    between atoms: O_26  and  C_30
REMARK                            x       y       z     vdW  Elec       q    Type
REMARK                         _______ _______ _______ _____ _____    ______ ____
ROOT
ATOM      1  O   UNL     1      36.385 -18.609 -21.314  0.00  0.00    -0.479 OA
ATOM      2  C   UNL     1      34.009 -18.034 -21.281  0.00  0.00    +0.072 C 
ATOM      3  C   UNL     1      34.689 -16.726 -20.907  0.00  0.00    +0.085 C 
ATOM      4  C   UNL     1      35.374 -17.681 -21.860  0.00  0.00    +0.174 C 
ATOM      5  C   UNL     1      34.305 -19.276 -20.523  0.00  0.00    +0.018 C 
ATOM      6  C   UNL     1      35.677 -19.556 -20.589  0.00  0.00    +0.135 C 
ATOM      7  C   UNL     1      33.470 -20.127 -19.817  0.00  0.00    +0.036 C 
ATOM      8  C   UNL     1      36.249 -20.650 -19.972  0.00  0.00    +0.040 C 
ATOM      9  C   UNL     1      34.026 -21.245 -19.185  0.00  0.00    +0.145 C 
ATOM     10  C   UNL     1      35.405 -21.504 -19.263  0.00  0.00    +0.041 C 
ENDROOT
BRANCH   3  13
ATOM     11  N   UNL     1      33.336 -14.582 -20.687  0.00  0.00    -0.318 N 
ATOM     12  N   UNL     1      34.347 -14.953 -22.632  0.00  0.00    -0.318 N 
ATOM     13  C   UNL     1      34.129 -15.418 -21.423  0.00  0.00    +0.148 C 
ATOM     14  C   UNL     1      33.021 -13.504 -21.475  0.00  0.00    +0.059 C 
ATOM     15  C   UNL     1      33.664 -13.758 -22.683  0.00  0.00    +0.059 C 
ATOM     16  C   UNL     1      32.253 -12.362 -21.241  0.00  0.00    +0.019 C 
ATOM     17  C   UNL     1      33.544 -12.831 -23.731  0.00  0.00    +0.016 C 
ATOM     18  C   UNL     1      32.144 -11.450 -22.296  0.00  0.00    +0.073 C 
ATOM     19  C   UNL     1      32.778 -11.678 -23.519  0.00  0.00    +0.005 C 
ATOM     20  H   UNL     1      33.043 -14.727 -19.759  0.00  0.00    +0.148 HD
ATOM     21  H   UNL     1      34.883 -15.367 -23.347  0.00  0.00    +0.148 HD
BRANCH  18  25
ATOM     22  F   UNL     1      29.996 -10.439 -22.011  0.00  0.00    -0.166 F 
ATOM     23  F   UNL     1      31.662  -9.514 -20.976  0.00  0.00    -0.166 F 
ATOM     24  F   UNL     1      31.487  -9.326 -23.135  0.00  0.00    -0.166 F 
ATOM     25  C   UNL     1      31.338 -10.208 -22.106  0.00  0.00    +0.419 C 
ENDBRANCH  18  25
ENDBRANCH   3  13
BRANCH   9  26
ATOM     26  O   UNL     1      33.209 -22.105 -18.474  0.00  0.00    -0.454 OA
BRANCH  26  30
ATOM     27  O   UNL     1      29.867 -23.734 -13.340  0.00  0.00    -0.275 OA
ATOM     28  N   UNL     1      32.046 -23.395 -13.981  0.00  0.00    -0.270 N 
ATOM     29  N   UNL     1      34.302 -22.982 -14.563  0.00  0.00    -0.229 NA
ATOM     30  C   UNL     1      33.547 -22.376 -17.182  0.00  0.00    +0.146 C 
ATOM     31  C   UNL     1      32.578 -22.725 -16.239  0.00  0.00    +0.045 C 
ATOM     32  C   UNL     1      31.140 -22.897 -16.619  0.00  0.00    +0.042 C 
ATOM     33  C   UNL     1      34.885 -22.313 -16.810  0.00  0.00    +0.058 C 
ATOM     34  C   UNL     1      33.002 -23.016 -14.943  0.00  0.00    +0.133 C 
ATOM     35  C   UNL     1      30.230 -22.621 -15.433  0.00  0.00    +0.090 C 
ATOM     36  C   UNL     1      30.680 -23.332 -14.172  0.00  0.00    +0.227 C 
ATOM     37  C   UNL     1      35.206 -22.626 -15.502  0.00  0.00    +0.103 C 
ATOM     38  H   UNL     1      32.373 -23.728 -13.114  0.00  0.00    +0.156 HD
ENDBRANCH  26  30
ENDBRANCH   9  26
TORSDOF 4
ENDMDL
MODEL 4
REMARK VINA RESULT:     -14.2      2.432      4.079
REMARK  Name = 89670174
REMARK  4 active torsions:
REMARK  status: ('A' for Active; 'I' for Inactive)
REMARK    1  A    between atoms: C_3  and  C_13
REMARK    2  A    between atoms: C_9  and  O_26
REMARK    3  A    between atoms: C_18  and  C_25
REMARK    4  A    between atoms: O_26  and  C_30
REMARK                            x       y       z     vdW  Elec       q    Type
REMARK                         _______ _______ _______ _____ _____    ______ ____
ROOT
ATOM      1  O   UNL     1      33.405 -21.469 -20.075  0.00  0.00    -0.479 OA
ATOM      2  C   UNL     1      35.627 -20.897 -19.230  0.00  0.00    +0.072 C 
ATOM      3  C   UNL     1      34.867 -21.287 -17.973  0.00  0.00    +0.085 C 
ATOM      4  C   UNL     1      34.547 -21.971 -19.284  0.00  0.00    +0.174 C 
ATOM      5  C   UNL     1      35.081 -19.863 -20.146  0.00  0.00    +0.018 C 
ATOM      6  C   UNL     1      33.815 -20.254 -20.601  0.00  0.00    +0.135 C 
ATOM      7  C   UNL     1      35.617 -18.658 -20.575  0.00  0.00    +0.036 C 
ATOM      8  C   UNL     1      33.059 -19.486 -21.465  0.00  0.00    +0.040 C 
ATOM      9  C   UNL     1      34.872 -17.865 -21.453  0.00  0.00    +0.145 C 
ATOM     10  C   UNL     1      33.602 -18.276 -21.895  0.00  0.00    +0.041 C 
ENDROOT
BRANCH   3  13
ATOM     11  N   UNL     1      34.940 -22.818 -15.941  0.00  0.00    -0.318 N 
ATOM     12  N   UNL     1      36.880 -22.055 -16.711  0.00  0.00    -0.318 N 
ATOM     13  C   UNL     1      35.577 -22.051 -16.877  0.00  0.00    +0.148 C 
ATOM     14  C   UNL     1      35.897 -23.353 -15.117  0.00  0.00    +0.059 C 
ATOM     15  C   UNL     1      37.099 -22.863 -15.618  0.00  0.00    +0.059 C 
ATOM     16  C   UNL     1      35.816 -24.198 -14.009  0.00  0.00    +0.019 C 
ATOM     17  C   UNL     1      38.302 -23.226 -14.990  0.00  0.00    +0.016 C 
ATOM     18  C   UNL     1      37.023 -24.550 -13.396  0.00  0.00    +0.073 C 
ATOM     19  C   UNL     1      38.245 -24.073 -13.877  0.00  0.00    +0.005 C 
ATOM     20  H   UNL     1      33.968 -22.961 -15.871  0.00  0.00    +0.148 HD
ATOM     21  H   UNL     1      37.555 -21.584 -17.252  0.00  0.00    +0.148 HD
BRANCH  18  25
ATOM     22  F   UNL     1      36.171 -25.027 -11.213  0.00  0.00    -0.166 F 
ATOM     23  F   UNL     1      36.595 -26.724 -12.495  0.00  0.00    -0.166 F 
ATOM     24  F   UNL     1      38.231 -25.584 -11.629  0.00  0.00    -0.166 F 
ATOM     25  C   UNL     1      37.003 -25.453 -12.208  0.00  0.00    +0.419 C 
ENDBRANCH  18  25
ENDBRANCH   3  13
BRANCH   9  26
ATOM     26  O   UNL     1      35.389 -16.659 -21.891  0.00  0.00    -0.454 OA
BRANCH  26  30
ATOM     27  O   UNL     1      31.609 -11.719 -20.673  0.00  0.00    -0.275 OA
ATOM     28  N   UNL     1      32.354 -12.961 -22.455  0.00  0.00    -0.270 N 
ATOM     29  N   UNL     1      33.025 -14.255 -24.318  0.00  0.00    -0.229 NA
ATOM     30  C   UNL     1      34.592 -15.873 -22.669  0.00  0.00    +0.146 C 
ATOM     31  C   UNL     1      33.856 -14.822 -22.120  0.00  0.00    +0.045 C 
ATOM     32  C   UNL     1      33.969 -14.458 -20.671  0.00  0.00    +0.042 C 
ATOM     33  C   UNL     1      34.529 -16.124 -24.035  0.00  0.00    +0.058 C 
ATOM     34  C   UNL     1      33.085 -14.043 -22.982  0.00  0.00    +0.133 C 
ATOM     35  C   UNL     1      32.689 -13.801 -20.177  0.00  0.00    +0.090 C 
ATOM     36  C   UNL     1      32.195 -12.711 -21.107  0.00  0.00    +0.227 C 
ATOM     37  C   UNL     1      33.741 -15.291 -24.808  0.00  0.00    +0.103 C 
ATOM     38  H   UNL     1      31.927 -12.342 -23.090  0.00  0.00    +0.156 HD
ENDBRANCH  26  30
ENDBRANCH   9  26
TORSDOF 4
ENDMDL
MODEL 5
REMARK VINA RESULT:     -13.9      4.904      8.811
REMARK  Name = 89670174
REMARK  4 active torsions:
REMARK  status: ('A' for Active; 'I' for Inactive)
REMARK    1  A    between atoms: C_3  and  C_13
REMARK    2  A    between atoms: C_9  and  O_26
REMARK    3  A    between atoms: C_18  and  C_25
REMARK    4  A    between atoms: O_26  and  C_30
REMARK                            x       y       z     vdW  Elec       q    Type
REMARK                         _______ _______ _______ _____ _____    ______ ____
ROOT
ATOM      1  O   UNL     1      30.826  -9.785 -21.256  0.00  0.00    -0.479 OA
ATOM      2  C   UNL     1      32.430 -10.314 -23.023  0.00  0.00    +0.072 C 
ATOM      3  C   UNL     1      32.759 -11.329 -21.939  0.00  0.00    +0.085 C 
ATOM      4  C   UNL     1      31.330 -10.867 -22.125  0.00  0.00    +0.174 C 
ATOM      5  C   UNL     1      32.390  -8.864 -22.704  0.00  0.00    +0.018 C 
ATOM      6  C   UNL     1      31.448  -8.626 -21.695  0.00  0.00    +0.135 C 
ATOM      7  C   UNL     1      33.105  -7.800 -23.233  0.00  0.00    +0.036 C 
ATOM      8  C   UNL     1      31.194  -7.367 -21.188  0.00  0.00    +0.040 C 
ATOM      9  C   UNL     1      32.863  -6.515 -22.737  0.00  0.00    +0.145 C 
ATOM     10  C   UNL     1      31.915  -6.300 -21.722  0.00  0.00    +0.041 C 
ENDROOT
BRANCH   3  13
ATOM     11  N   UNL     1      33.779 -13.617 -21.490  0.00  0.00    -0.318 N 
ATOM     12  N   UNL     1      32.937 -13.258 -23.515  0.00  0.00    -0.318 N 
ATOM     13  C   UNL     1      33.154 -12.737 -22.329  0.00  0.00    +0.148 C 
ATOM     14  C   UNL     1      33.979 -14.784 -22.182  0.00  0.00    +0.059 C 
ATOM     15  C   UNL     1      33.444 -14.536 -23.443  0.00  0.00    +0.059 C 
ATOM     16  C   UNL     1      34.563 -16.000 -21.823  0.00  0.00    +0.019 C 
ATOM     17  C   UNL     1      33.486 -15.547 -24.417  0.00  0.00    +0.016 C 
ATOM     18  C   UNL     1      34.597 -16.996 -22.805  0.00  0.00    +0.073 C 
ATOM     19  C   UNL     1      34.068 -16.775 -24.079  0.00  0.00    +0.005 C 
ATOM     20  H   UNL     1      34.040 -13.444 -20.557  0.00  0.00    +0.148 HD
ATOM     21  H   UNL     1      32.504 -12.829 -24.289  0.00  0.00    +0.148 HD
BRANCH  18  25
ATOM     22  F   UNL     1      34.867 -18.788 -21.245  0.00  0.00    -0.166 F 
ATOM     23  F   UNL     1      34.851 -19.312 -23.349  0.00  0.00    -0.166 F 
ATOM     24  F   UNL     1      36.570 -18.285 -22.501  0.00  0.00    -0.166 F 
ATOM     25  C   UNL     1      35.206 -18.320 -22.482  0.00  0.00    +0.419 C 
ENDBRANCH  18  25
ENDBRANCH   3  13
BRANCH   9  26
ATOM     26  O   UNL     1      33.568  -5.440 -23.250  0.00  0.00    -0.454 OA
BRANCH  26  30
ATOM     27  O   UNL     1      34.723  -4.823 -29.452  0.00  0.00    -0.275 OA
ATOM     28  N   UNL     1      33.229  -4.101 -27.864  0.00  0.00    -0.270 N 
ATOM     29  N   UNL     1      31.707  -3.263 -26.259  0.00  0.00    -0.229 NA
ATOM     30  C   UNL     1      32.983  -4.717 -24.246  0.00  0.00    +0.146 C 
ATOM     31  C   UNL     1      33.454  -4.779 -25.559  0.00  0.00    +0.045 C 
ATOM     32  C   UNL     1      34.568  -5.702 -25.948  0.00  0.00    +0.042 C 
ATOM     33  C   UNL     1      31.889  -3.915 -23.940  0.00  0.00    +0.058 C 
ATOM     34  C   UNL     1      32.787  -4.034 -26.529  0.00  0.00    +0.133 C 
ATOM     35  C   UNL     1      35.320  -5.163 -27.154  0.00  0.00    +0.090 C 
ATOM     36  C   UNL     1      34.395  -4.718 -28.270  0.00  0.00    +0.227 C 
ATOM     37  C   UNL     1      31.291  -3.218 -24.974  0.00  0.00    +0.103 C 
ATOM     38  H   UNL     1      32.668  -3.680 -28.556  0.00  0.00    +0.156 HD
ENDBRANCH  26  30
ENDBRANCH   9  26
TORSDOF 4
ENDMDL
MODEL 6
REMARK VINA RESULT:     -13.8      5.755     11.261
REMARK  Name = 89670174
REMARK  4 active torsions:
REMARK  status: ('A' for Active; 'I' for Inactive)
REMARK    1  A    between atoms: C_3  and  C_13
REMARK    2  A    between atoms: C_9  and  O_26
REMARK    3  A    between atoms: C_18  and  C_25
REMARK    4  A    between atoms: O_26  and  C_30
REMARK                            x       y       z     vdW  Elec       q    Type
REMARK                         _______ _______ _______ _____ _____    ______ ____
ROOT
ATOM      1  O   UNL     1      36.711 -19.470 -19.638  0.00  0.00    -0.479 OA
ATOM      2  C   UNL     1      34.596 -19.428 -20.865  0.00  0.00    +0.072 C 
ATOM      3  C   UNL     1      34.829 -17.965 -20.522  0.00  0.00    +0.085 C 
ATOM      4  C   UNL     1      36.012 -18.869 -20.792  0.00  0.00    +0.174 C 
ATOM      5  C   UNL     1      34.617 -20.460 -19.798  0.00  0.00    +0.018 C 
ATOM      6  C   UNL     1      35.854 -20.440 -19.141  0.00  0.00    +0.135 C 
ATOM      7  C   UNL     1      33.649 -21.369 -19.398  0.00  0.00    +0.036 C 
ATOM      8  C   UNL     1      36.163 -21.289 -18.097  0.00  0.00    +0.040 C 
ATOM      9  C   UNL     1      33.939 -22.241 -18.344  0.00  0.00    +0.145 C 
ATOM     10  C   UNL     1      35.187 -22.201 -17.698  0.00  0.00    +0.041 C 
ENDROOT
BRANCH   3  13
ATOM     11  N   UNL     1      34.223 -15.586 -21.195  0.00  0.00    -0.318 N 
ATOM     12  N   UNL     1      34.308 -17.111 -22.810  0.00  0.00    -0.318 N 
ATOM     13  C   UNL     1      34.453 -16.894 -21.522  0.00  0.00    +0.148 C 
ATOM     14  C   UNL     1      33.909 -14.915 -22.349  0.00  0.00    +0.059 C 
ATOM     15  C   UNL     1      33.969 -15.888 -23.343  0.00  0.00    +0.059 C 
ATOM     16  C   UNL     1      33.587 -13.580 -22.601  0.00  0.00    +0.019 C 
ATOM     17  C   UNL     1      33.695 -15.527 -24.672  0.00  0.00    +0.016 C 
ATOM     18  C   UNL     1      33.317 -13.238 -23.930  0.00  0.00    +0.073 C 
ATOM     19  C   UNL     1      33.370 -14.193 -24.949  0.00  0.00    +0.005 C 
ATOM     20  H   UNL     1      34.274 -15.196 -20.292  0.00  0.00    +0.148 HD
ATOM     21  H   UNL     1      34.419 -17.963 -23.290  0.00  0.00    +0.148 HD
BRANCH  18  25
ATOM     22  F   UNL     1      32.108 -11.252 -23.374  0.00  0.00    -0.166 F 
ATOM     23  F   UNL     1      34.049 -10.992 -24.304  0.00  0.00    -0.166 F 
ATOM     24  F   UNL     1      32.370 -11.709 -25.484  0.00  0.00    -0.166 F 
ATOM     25  C   UNL     1      32.969 -11.826 -24.264  0.00  0.00    +0.419 C 
ENDBRANCH  18  25
ENDBRANCH   3  13
BRANCH   9  26
ATOM     26  O   UNL     1      32.986 -23.154 -17.929  0.00  0.00    -0.454 OA
BRANCH  26  30
ATOM     27  O   UNL     1      34.358 -23.814 -11.776  0.00  0.00    -0.275 OA
ATOM     28  N   UNL     1      32.681 -23.012 -13.124  0.00  0.00    -0.270 N 
ATOM     29  N   UNL     1      30.888 -22.243 -14.462  0.00  0.00    -0.229 NA
ATOM     30  C   UNL     1      32.304 -22.881 -16.781  0.00  0.00    +0.146 C 
ATOM     31  C   UNL     1      32.868 -23.128 -15.528  0.00  0.00    +0.045 C 
ATOM     32  C   UNL     1      34.274 -23.626 -15.386  0.00  0.00    +0.042 C 
ATOM     33  C   UNL     1      31.029 -22.334 -16.872  0.00  0.00    +0.058 C 
ATOM     34  C   UNL     1      32.122 -22.796 -14.398  0.00  0.00    +0.133 C 
ATOM     35  C   UNL     1      34.440 -24.414 -14.096  0.00  0.00    +0.090 C 
ATOM     36  C   UNL     1      33.856 -23.699 -12.894  0.00  0.00    +0.227 C 
ATOM     37  C   UNL     1      30.372 -22.033 -15.693  0.00  0.00    +0.103 C 
ATOM     38  H   UNL     1      32.202 -22.648 -12.345  0.00  0.00    +0.156 HD
ENDBRANCH  26  30
ENDBRANCH   9  26
TORSDOF 4
ENDMDL
MODEL 7
REMARK VINA RESULT:     -13.5      4.867      8.663
REMARK  Name = 89670174
REMARK  4 active torsions:
REMARK  status: ('A' for Active; 'I' for Inactive)
REMARK    1  A    between atoms: C_3  and  C_13
REMARK    2  A    between atoms: C_9  and  O_26
REMARK    3  A    between atoms: C_18  and  C_25
REMARK    4  A    between atoms: O_26  and  C_30
REMARK                            x       y       z     vdW  Elec       q    Type
REMARK                         _______ _______ _______ _____ _____    ______ ____
ROOT
ATOM      1  O   UNL     1      31.038  -9.849 -21.355  0.00  0.00    -0.479 OA
ATOM      2  C   UNL     1      32.675 -10.428 -23.075  0.00  0.00    +0.072 C 
ATOM      3  C   UNL     1      32.922 -11.470 -21.995  0.00  0.00    +0.085 C 
ATOM      4  C   UNL     1      31.522 -10.942 -22.221  0.00  0.00    +0.174 C 
ATOM      5  C   UNL     1      32.689  -8.982 -22.739  0.00  0.00    +0.018 C 
ATOM      6  C   UNL     1      31.725  -8.714 -21.758  0.00  0.00    +0.135 C 
ATOM      7  C   UNL     1      33.468  -7.945 -23.230  0.00  0.00    +0.036 C 
ATOM      8  C   UNL     1      31.510  -7.451 -21.243  0.00  0.00    +0.040 C 
ATOM      9  C   UNL     1      33.267  -6.656 -22.725  0.00  0.00    +0.145 C 
ATOM     10  C   UNL     1      32.295  -6.411 -21.739  0.00  0.00    +0.041 C 
ENDROOT
BRANCH   3  13
ATOM     11  N   UNL     1      33.866 -13.792 -21.555  0.00  0.00    -0.318 N 
ATOM     12  N   UNL     1      33.027 -13.399 -23.576  0.00  0.00    -0.318 N 
ATOM     13  C   UNL     1      33.267 -12.889 -22.390  0.00  0.00    +0.148 C 
ATOM     14  C   UNL     1      34.022 -14.964 -22.251  0.00  0.00    +0.059 C 
ATOM     15  C   UNL     1      33.491 -14.694 -23.509  0.00  0.00    +0.059 C 
ATOM     16  C   UNL     1      34.566 -16.200 -21.898  0.00  0.00    +0.019 C 
ATOM     17  C   UNL     1      33.495 -15.703 -24.486  0.00  0.00    +0.016 C 
ATOM     18  C   UNL     1      34.562 -17.194 -22.883  0.00  0.00    +0.073 C 
ATOM     19  C   UNL     1      34.035 -16.952 -24.154  0.00  0.00    +0.005 C 
ATOM     20  H   UNL     1      34.136 -13.631 -20.623  0.00  0.00    +0.148 HD
ATOM     21  H   UNL     1      32.607 -12.953 -24.347  0.00  0.00    +0.148 HD
BRANCH  18  25
ATOM     22  F   UNL     1      36.491 -18.554 -22.502  0.00  0.00    -0.166 F 
ATOM     23  F   UNL     1      34.708 -19.038 -21.366  0.00  0.00    -0.166 F 
ATOM     24  F   UNL     1      34.791 -19.479 -23.493  0.00  0.00    -0.166 F 
ATOM     25  C   UNL     1      35.127 -18.538 -22.565  0.00  0.00    +0.419 C 
ENDBRANCH  18  25
ENDBRANCH   3  13
BRANCH   9  26
ATOM     26  O   UNL     1      34.035  -5.608 -23.201  0.00  0.00    -0.454 OA
BRANCH  26  30
ATOM     27  O   UNL     1      29.400  -1.793 -25.233  0.00  0.00    -0.275 OA
ATOM     28  N   UNL     1      31.269  -2.861 -26.030  0.00  0.00    -0.270 N 
ATOM     29  N   UNL     1      33.138  -4.002 -26.926  0.00  0.00    -0.229 NA
ATOM     30  C   UNL     1      33.713  -5.089 -24.419  0.00  0.00    +0.146 C 
ATOM     31  C   UNL     1      32.611  -4.248 -24.579  0.00  0.00    +0.045 C 
ATOM     32  C   UNL     1      31.780  -3.814 -23.411  0.00  0.00    +0.042 C 
ATOM     33  C   UNL     1      34.514  -5.398 -25.513  0.00  0.00    +0.058 C 
ATOM     34  C   UNL     1      32.361  -3.732 -25.850  0.00  0.00    +0.133 C 
ATOM     35  C   UNL     1      30.358  -3.498 -23.847  0.00  0.00    +0.090 C 
ATOM     36  C   UNL     1      30.305  -2.611 -25.074  0.00  0.00    +0.227 C 
ATOM     37  C   UNL     1      34.188  -4.831 -26.731  0.00  0.00    +0.103 C 
ATOM     38  H   UNL     1      31.187  -2.400 -26.897  0.00  0.00    +0.156 HD
ENDBRANCH  26  30
ENDBRANCH   9  26
TORSDOF 4
ENDMDL
MODEL 8
REMARK VINA RESULT:     -13.4      4.908      8.701
REMARK  Name = 89670174
REMARK  4 active torsions:
REMARK  status: ('A' for Active; 'I' for Inactive)
REMARK    1  A    between atoms: C_3  and  C_13
REMARK    2  A    between atoms: C_9  and  O_26
REMARK    3  A    between atoms: C_18  and  C_25
REMARK    4  A    between atoms: O_26  and  C_30
REMARK                            x       y       z     vdW  Elec       q    Type
REMARK                         _______ _______ _______ _____ _____    ______ ____
ROOT
ATOM      1  O   UNL     1      31.723  -9.757 -20.299  0.00  0.00    -0.479 OA
ATOM      2  C   UNL     1      31.450 -10.731 -22.525  0.00  0.00    +0.072 C 
ATOM      3  C   UNL     1      32.790 -11.284 -22.064  0.00  0.00    +0.085 C 
ATOM      4  C   UNL     1      31.696 -11.028 -21.050  0.00  0.00    +0.174 C 
ATOM      5  C   UNL     1      31.198  -9.268 -22.507  0.00  0.00    +0.018 C 
ATOM      6  C   UNL     1      31.360  -8.774 -21.206  0.00  0.00    +0.135 C 
ATOM      7  C   UNL     1      30.851  -8.396 -23.528  0.00  0.00    +0.036 C 
ATOM      8  C   UNL     1      31.194  -7.441 -20.884  0.00  0.00    +0.040 C 
ATOM      9  C   UNL     1      30.674  -7.042 -23.226  0.00  0.00    +0.145 C 
ATOM     10  C   UNL     1      30.844  -6.569 -21.913  0.00  0.00    +0.041 C 
ENDROOT
BRANCH   3  13
ATOM     11  N   UNL     1      33.802 -13.565 -21.561  0.00  0.00    -0.318 N 
ATOM     12  N   UNL     1      32.943 -13.257 -23.588  0.00  0.00    -0.318 N 
ATOM     13  C   UNL     1      33.174 -12.705 -22.418  0.00  0.00    +0.148 C 
ATOM     14  C   UNL     1      33.988 -14.752 -22.222  0.00  0.00    +0.059 C 
ATOM     15  C   UNL     1      33.444 -14.535 -23.484  0.00  0.00    +0.059 C 
ATOM     16  C   UNL     1      34.569 -15.961 -21.835  0.00  0.00    +0.019 C 
ATOM     17  C   UNL     1      33.472 -15.573 -24.430  0.00  0.00    +0.016 C 
ATOM     18  C   UNL     1      34.588 -16.984 -22.789  0.00  0.00    +0.073 C 
ATOM     19  C   UNL     1      34.050 -16.795 -24.064  0.00  0.00    +0.005 C 
ATOM     20  H   UNL     1      34.072 -13.368 -20.635  0.00  0.00    +0.148 HD
ATOM     21  H   UNL     1      32.506 -12.846 -24.369  0.00  0.00    +0.148 HD
BRANCH  18  25
ATOM     22  F   UNL     1      34.891 -18.717 -21.170  0.00  0.00    -0.166 F 
ATOM     23  F   UNL     1      34.797 -19.322 -23.250  0.00  0.00    -0.166 F 
ATOM     24  F   UNL     1      36.556 -18.286 -22.500  0.00  0.00    -0.166 F 
ATOM     25  C   UNL     1      35.193 -18.301 -22.435  0.00  0.00    +0.419 C 
ENDBRANCH  18  25
ENDBRANCH   3  13
BRANCH   9  26
ATOM     26  O   UNL     1      30.329  -6.156 -24.231  0.00  0.00    -0.454 OA
BRANCH  26  30
ATOM     27  O   UNL     1      35.787  -4.376 -26.916  0.00  0.00    -0.275 OA
ATOM     28  N   UNL     1      34.040  -3.476 -25.727  0.00  0.00    -0.270 N 
ATOM     29  N   UNL     1      32.308  -2.510 -24.438  0.00  0.00    -0.229 NA
ATOM     30  C   UNL     1      31.002  -4.973 -24.291  0.00  0.00    +0.146 C 
ATOM     31  C   UNL     1      32.213  -4.864 -24.977  0.00  0.00    +0.045 C 
ATOM     32  C   UNL     1      32.787  -6.017 -25.742  0.00  0.00    +0.042 C 
ATOM     33  C   UNL     1      30.457  -3.857 -23.667  0.00  0.00    +0.058 C 
ATOM     34  C   UNL     1      32.831  -3.615 -25.020  0.00  0.00    +0.133 C 
ATOM     35  C   UNL     1      34.301  -5.910 -25.826  0.00  0.00    +0.090 C 
ATOM     36  C   UNL     1      34.768  -4.530 -26.242  0.00  0.00    +0.227 C 
ATOM     37  C   UNL     1      31.141  -2.660 -23.773  0.00  0.00    +0.103 C 
ATOM     38  H   UNL     1      34.391  -2.566 -25.864  0.00  0.00    +0.156 HD
ENDBRANCH  26  30
ENDBRANCH   9  26
TORSDOF 4
ENDMDL
MODEL 9
REMARK VINA RESULT:     -13.2      2.720      4.078
REMARK  Name = 89670174
REMARK  4 active torsions:
REMARK  status: ('A' for Active; 'I' for Inactive)
REMARK    1  A    between atoms: C_3  and  C_13
REMARK    2  A    between atoms: C_9  and  O_26
REMARK    3  A    between atoms: C_18  and  C_25
REMARK    4  A    between atoms: O_26  and  C_30
REMARK                            x       y       z     vdW  Elec       q    Type
REMARK                         _______ _______ _______ _____ _____    ______ ____
ROOT
ATOM      1  O   UNL     1      33.418 -21.583 -20.040  0.00  0.00    -0.479 OA
ATOM      2  C   UNL     1      35.598 -20.907 -19.163  0.00  0.00    +0.072 C 
ATOM      3  C   UNL     1      34.817 -21.272 -17.910  0.00  0.00    +0.085 C 
ATOM      4  C   UNL     1      34.554 -22.017 -19.201  0.00  0.00    +0.174 C 
ATOM      5  C   UNL     1      35.044 -19.928 -20.133  0.00  0.00    +0.018 C 
ATOM      6  C   UNL     1      33.803 -20.377 -20.604  0.00  0.00    +0.135 C 
ATOM      7  C   UNL     1      35.554 -18.724 -20.595  0.00  0.00    +0.036 C 
ATOM      8  C   UNL     1      33.047 -19.668 -21.517  0.00  0.00    +0.040 C 
ATOM      9  C   UNL     1      34.807 -17.990 -21.523  0.00  0.00    +0.145 C 
ATOM     10  C   UNL     1      33.563 -18.459 -21.980  0.00  0.00    +0.041 C 
ENDROOT
BRANCH   3  13
ATOM     11  N   UNL     1      34.884 -22.467 -15.664  0.00  0.00    -0.318 N 
ATOM     12  N   UNL     1      36.819 -22.166 -16.716  0.00  0.00    -0.318 N 
ATOM     13  C   UNL     1      35.521 -21.969 -16.767  0.00  0.00    +0.148 C 
ATOM     14  C   UNL     1      35.836 -23.024 -14.848  0.00  0.00    +0.059 C 
ATOM     15  C   UNL     1      37.034 -22.824 -15.526  0.00  0.00    +0.059 C 
ATOM     16  C   UNL     1      35.752 -23.666 -13.611  0.00  0.00    +0.019 C 
ATOM     17  C   UNL     1      38.231 -23.284 -14.952  0.00  0.00    +0.016 C 
ATOM     18  C   UNL     1      36.953 -24.117 -13.054  0.00  0.00    +0.073 C 
ATOM     19  C   UNL     1      38.171 -23.931 -13.712  0.00  0.00    +0.005 C 
ATOM     20  H   UNL     1      33.917 -22.432 -15.488  0.00  0.00    +0.148 HD
ATOM     21  H   UNL     1      37.492 -21.903 -17.385  0.00  0.00    +0.148 HD
BRANCH  18  25
ATOM     22  F   UNL     1      37.714 -24.219 -10.790  0.00  0.00    -0.166 F 
ATOM     23  F   UNL     1      35.686 -24.882 -11.175  0.00  0.00    -0.166 F 
ATOM     24  F   UNL     1      37.366 -26.104 -11.816  0.00  0.00    -0.166 F 
ATOM     25  C   UNL     1      36.929 -24.814 -11.735  0.00  0.00    +0.419 C 
ENDBRANCH  18  25
ENDBRANCH   3  13
BRANCH   9  26
ATOM     26  O   UNL     1      35.298 -16.786 -21.996  0.00  0.00    -0.454 OA
BRANCH  26  30
ATOM     27  O   UNL     1      32.224 -13.162 -26.191  0.00  0.00    -0.275 OA
ATOM     28  N   UNL     1      32.505 -13.366 -23.921  0.00  0.00    -0.270 N 
ATOM     29  N   UNL     1      32.821 -13.477 -21.579  0.00  0.00    -0.229 NA
ATOM     30  C   UNL     1      34.500 -15.687 -21.880  0.00  0.00    +0.146 C 
ATOM     31  C   UNL     1      33.935 -15.081 -23.004  0.00  0.00    +0.045 C 
ATOM     32  C   UNL     1      34.113 -15.654 -24.376  0.00  0.00    +0.042 C 
ATOM     33  C   UNL     1      34.239 -15.178 -20.613  0.00  0.00    +0.058 C 
ATOM     34  C   UNL     1      33.106 -13.978 -22.805  0.00  0.00    +0.133 C 
ATOM     35  C   UNL     1      34.014 -14.566 -25.433  0.00  0.00    +0.090 C 
ATOM     36  C   UNL     1      32.813 -13.663 -25.233  0.00  0.00    +0.227 C 
ATOM     37  C   UNL     1      33.398 -14.084 -20.518  0.00  0.00    +0.103 C 
ATOM     38  H   UNL     1      31.820 -12.679 -23.755  0.00  0.00    +0.156 HD
ENDBRANCH  26  30
ENDBRANCH   9  26
TORSDOF 4
ENDMDL
