MODEL 1
REMARK VINA RESULT:     -10.6      0.000      0.000
REMARK  Name = 11840911
REMARK  2 active torsions:
REMARK  status: ('A' for Active; 'I' for Inactive)
REMARK    1  A    between atoms: C_2  and  C_13
REMARK    2  A    between atoms: C_4  and  C_24
REMARK                            x       y       z     vdW  Elec       q    Type
REMARK                         _______ _______ _______ _____ _____    ______ ____
ROOT
ATOM      1  N   UNL     1      33.855 -10.072 -23.261  0.00  0.00    -0.357 N 
ATOM      2  C   UNL     1      32.972 -10.888 -22.644  0.00  0.00    +0.053 A 
ATOM      3  C   UNL     1      31.844 -10.218 -22.330  0.00  0.00    -0.001 A 
ATOM      4  C   UNL     1      32.036  -8.889 -22.784  0.00  0.00    +0.062 A 
ATOM      5  C   UNL     1      33.288  -8.827 -23.355  0.00  0.00    +0.038 A 
ATOM      6  C   UNL     1      30.642 -10.745 -21.652  0.00  0.00    +0.033 C 
ATOM      7  C   UNL     1      34.015  -7.708 -23.988  0.00  0.00    +0.050 C 
ATOM      8  H   UNL     1      34.749 -10.326 -23.586  0.00  0.00    +0.166 HD
ENDROOT
BRANCH   2  13
ATOM      9 CL   UNL     1      35.270 -17.614 -20.968  0.00  0.00    -0.082 Cl
ATOM     10  O   UNL     1      32.408 -12.092 -25.243  0.00  0.00    -0.270 OA
ATOM     11  N   UNL     1      32.985 -14.383 -25.289  0.00  0.00    -0.280 N 
ATOM     12  C   UNL     1      33.354 -13.261 -23.328  0.00  0.00    +0.056 C 
ATOM     13  C   UNL     1      33.391 -12.257 -22.449  0.00  0.00    +0.021 C 
ATOM     14  C   UNL     1      33.774 -14.646 -23.145  0.00  0.00    +0.019 C 
ATOM     15  C   UNL     1      33.528 -15.282 -24.365  0.00  0.00    +0.051 C 
ATOM     16  C   UNL     1      32.843 -13.107 -24.731  0.00  0.00    +0.250 C 
ATOM     17  C   UNL     1      34.312 -15.345 -22.080  0.00  0.00    +0.013 C 
ATOM     18  C   UNL     1      33.804 -16.620 -24.570  0.00  0.00    +0.016 C 
ATOM     19  C   UNL     1      34.599 -16.701 -22.267  0.00  0.00    +0.058 C 
ATOM     20  C   UNL     1      34.347 -17.333 -23.499  0.00  0.00    +0.013 C 
ATOM     21  H   UNL     1      32.735 -14.617 -26.211  0.00  0.00    +0.155 HD
ENDBRANCH   2  13
BRANCH   4  24
ATOM     22  O   UNL     1      30.093  -7.698 -23.383  0.00  0.00    -0.270 OA
ATOM     23  N   UNL     1      31.435  -6.790 -21.743  0.00  0.00    -0.299 N 
ATOM     24  C   UNL     1      31.127  -7.782 -22.688  0.00  0.00    +0.247 C 
ATOM     25  C   UNL     1      30.604  -5.632 -21.506  0.00  0.00    +0.111 C 
ATOM     26  H   UNL     1      32.259  -6.891 -21.213  0.00  0.00    +0.150 HD
ENDBRANCH   4  24
TORSDOF 2
ENDMDL
MODEL 2
REMARK VINA RESULT:     -10.4      5.539      8.875
REMARK  Name = 11840911
REMARK  2 active torsions:
REMARK  status: ('A' for Active; 'I' for Inactive)
REMARK    1  A    between atoms: C_2  and  C_13
REMARK    2  A    between atoms: C_4  and  C_24
REMARK                            x       y       z     vdW  Elec       q    Type
REMARK                         _______ _______ _______ _____ _____    ______ ____
ROOT
ATOM      1  N   UNL     1      34.192 -19.663 -22.646  0.00  0.00    -0.357 N 
ATOM      2  C   UNL     1      34.540 -18.961 -21.544  0.00  0.00    +0.053 A 
ATOM      3  C   UNL     1      34.504 -17.637 -21.794  0.00  0.00    -0.001 A 
ATOM      4  C   UNL     1      34.106 -17.501 -23.148  0.00  0.00    +0.062 A 
ATOM      5  C   UNL     1      33.919 -18.771 -23.650  0.00  0.00    +0.038 A 
ATOM      6  C   UNL     1      34.815 -16.534 -20.860  0.00  0.00    +0.033 C 
ATOM      7  C   UNL     1      33.507 -19.237 -24.989  0.00  0.00    +0.050 C 
ATOM      8  H   UNL     1      34.142 -20.644 -22.715  0.00  0.00    +0.166 HD
ENDROOT
BRANCH   2  13
ATOM      9 CL   UNL     1      36.890 -22.622 -15.679  0.00  0.00    -0.082 Cl
ATOM     10  O   UNL     1      31.967 -20.144 -20.834  0.00  0.00    -0.270 OA
ATOM     11  N   UNL     1      32.131 -21.504 -18.909  0.00  0.00    -0.280 N 
ATOM     12  C   UNL     1      34.052 -20.485 -19.625  0.00  0.00    +0.056 C 
ATOM     13  C   UNL     1      34.867 -19.733 -20.368  0.00  0.00    +0.021 C 
ATOM     14  C   UNL     1      34.369 -21.269 -18.436  0.00  0.00    +0.019 C 
ATOM     15  C   UNL     1      33.168 -21.866 -18.043  0.00  0.00    +0.051 C 
ATOM     16  C   UNL     1      32.589 -20.650 -19.919  0.00  0.00    +0.250 C 
ATOM     17  C   UNL     1      35.533 -21.487 -17.722  0.00  0.00    +0.013 C 
ATOM     18  C   UNL     1      33.080 -22.692 -16.940  0.00  0.00    +0.016 C 
ATOM     19  C   UNL     1      35.465 -22.321 -16.601  0.00  0.00    +0.058 C 
ATOM     20  C   UNL     1      34.251 -22.918 -16.213  0.00  0.00    +0.013 C 
ATOM     21  H   UNL     1      31.200 -21.810 -18.820  0.00  0.00    +0.155 HD
ENDBRANCH   2  13
BRANCH   4  24
ATOM     22  O   UNL     1      34.167 -16.212 -25.119  0.00  0.00    -0.270 OA
ATOM     23  N   UNL     1      33.406 -15.187 -23.200  0.00  0.00    -0.299 N 
ATOM     24  C   UNL     1      33.919 -16.292 -23.898  0.00  0.00    +0.247 C 
ATOM     25  C   UNL     1      33.134 -13.910 -23.821  0.00  0.00    +0.111 C 
ATOM     26  H   UNL     1      33.221 -15.287 -22.238  0.00  0.00    +0.150 HD
ENDBRANCH   4  24
TORSDOF 2
ENDMDL
MODEL 3
REMARK VINA RESULT:     -10.4      3.268      7.786
REMARK  Name = 11840911
REMARK  2 active torsions:
REMARK  status: ('A' for Active; 'I' for Inactive)
REMARK    1  A    between atoms: C_2  and  C_13
REMARK    2  A    between atoms: C_4  and  C_24
REMARK                            x       y       z     vdW  Elec       q    Type
REMARK                         _______ _______ _______ _____ _____    ______ ____
ROOT
ATOM      1  N   UNL     1      33.834 -12.870 -22.232  0.00  0.00    -0.357 N 
ATOM      2  C   UNL     1      33.462 -12.312 -23.406  0.00  0.00    +0.053 A 
ATOM      3  C   UNL     1      33.214 -13.266 -24.327  0.00  0.00    -0.001 A 
ATOM      4  C   UNL     1      33.447 -14.507 -23.682  0.00  0.00    +0.062 A 
ATOM      5  C   UNL     1      33.830 -14.232 -22.388  0.00  0.00    +0.038 A 
ATOM      6  C   UNL     1      32.786 -13.076 -25.729  0.00  0.00    +0.033 C 
ATOM      7  C   UNL     1      34.194 -15.125 -21.270  0.00  0.00    +0.050 C 
ATOM      8  H   UNL     1      34.068 -12.383 -21.409  0.00  0.00    +0.166 HD
ENDROOT
BRANCH   2  13
ATOM      9 CL   UNL     1      33.791  -5.043 -24.008  0.00  0.00    -0.082 Cl
ATOM     10  O   UNL     1      31.079 -11.737 -21.821  0.00  0.00    -0.270 OA
ATOM     11  N   UNL     1      30.673  -9.415 -21.664  0.00  0.00    -0.280 N 
ATOM     12  C   UNL     1      32.504 -10.067 -22.873  0.00  0.00    +0.056 C 
ATOM     13  C   UNL     1      33.406 -10.870 -23.443  0.00  0.00    +0.021 C 
ATOM     14  C   UNL     1      32.437  -8.610 -22.902  0.00  0.00    +0.019 C 
ATOM     15  C   UNL     1      31.307  -8.267 -22.154  0.00  0.00    +0.051 C 
ATOM     16  C   UNL     1      31.347 -10.575 -22.062  0.00  0.00    +0.250 C 
ATOM     17  C   UNL     1      33.220  -7.632 -23.485  0.00  0.00    +0.013 C 
ATOM     18  C   UNL     1      30.919  -6.957 -21.959  0.00  0.00    +0.016 C 
ATOM     19  C   UNL     1      32.845  -6.298 -23.300  0.00  0.00    +0.058 C 
ATOM     20  C   UNL     1      31.706  -5.962 -22.544  0.00  0.00    +0.013 C 
ATOM     21  H   UNL     1      29.858  -9.407 -21.113  0.00  0.00    +0.155 HD
ENDBRANCH   2  13
BRANCH   4  24
ATOM     22  O   UNL     1      32.769 -16.050 -25.330  0.00  0.00    -0.270 OA
ATOM     23  N   UNL     1      33.888 -16.878 -23.493  0.00  0.00    -0.299 N 
ATOM     24  C   UNL     1      33.323 -15.827 -24.233  0.00  0.00    +0.247 C 
ATOM     25  C   UNL     1      33.873 -18.256 -23.928  0.00  0.00    +0.111 C 
ATOM     26  H   UNL     1      34.318 -16.664 -22.633  0.00  0.00    +0.150 HD
ENDBRANCH   4  24
TORSDOF 2
ENDMDL
MODEL 4
REMARK VINA RESULT:      -9.5     10.187     13.997
REMARK  Name = 11840911
REMARK  2 active torsions:
REMARK  status: ('A' for Active; 'I' for Inactive)
REMARK    1  A    between atoms: C_2  and  C_13
REMARK    2  A    between atoms: C_4  and  C_24
REMARK                            x       y       z     vdW  Elec       q    Type
REMARK                         _______ _______ _______ _____ _____    ______ ____
ROOT
ATOM      1  N   UNL     1      37.836 -23.176 -15.711  0.00  0.00    -0.357 N 
ATOM      2  C   UNL     1      36.722 -22.412 -15.773  0.00  0.00    +0.053 A 
ATOM      3  C   UNL     1      35.963 -22.591 -14.672  0.00  0.00    -0.001 A 
ATOM      4  C   UNL     1      36.652 -23.531 -13.866  0.00  0.00    +0.062 A 
ATOM      5  C   UNL     1      37.807 -23.876 -14.533  0.00  0.00    +0.038 A 
ATOM      6  C   UNL     1      34.672 -21.945 -14.353  0.00  0.00    +0.033 C 
ATOM      7  C   UNL     1      38.897 -24.804 -14.175  0.00  0.00    +0.050 C 
ATOM      8  H   UNL     1      38.544 -23.221 -16.394  0.00  0.00    +0.166 HD
ENDROOT
BRANCH   2  13
ATOM      9 CL   UNL     1      36.629 -18.008 -21.596  0.00  0.00    -0.082 Cl
ATOM     10  O   UNL     1      34.057 -23.152 -16.709  0.00  0.00    -0.270 OA
ATOM     11  N   UNL     1      33.462 -21.975 -18.670  0.00  0.00    -0.280 N 
ATOM     12  C   UNL     1      35.524 -21.530 -17.780  0.00  0.00    +0.056 C 
ATOM     13  C   UNL     1      36.569 -21.593 -16.952  0.00  0.00    +0.021 C 
ATOM     14  C   UNL     1      35.357 -20.708 -18.973  0.00  0.00    +0.019 C 
ATOM     15  C   UNL     1      34.089 -21.017 -19.474  0.00  0.00    +0.051 C 
ATOM     16  C   UNL     1      34.279 -22.350 -17.597  0.00  0.00    +0.250 C 
ATOM     17  C   UNL     1      36.160 -19.781 -19.611  0.00  0.00    +0.013 C 
ATOM     18  C   UNL     1      33.578 -20.425 -20.612  0.00  0.00    +0.016 C 
ATOM     19  C   UNL     1      35.662 -19.169 -20.766  0.00  0.00    +0.058 C 
ATOM     20  C   UNL     1      34.384 -19.487 -21.262  0.00  0.00    +0.013 C 
ATOM     21  H   UNL     1      32.563 -22.338 -18.837  0.00  0.00    +0.155 HD
ENDBRANCH   2  13
BRANCH   4  24
ATOM     22  O   UNL     1      36.028 -25.269 -12.402  0.00  0.00    -0.270 OA
ATOM     23  N   UNL     1      36.175 -23.142 -11.527  0.00  0.00    -0.299 N 
ATOM     24  C   UNL     1      36.260 -24.057 -12.588  0.00  0.00    +0.247 C 
ATOM     25  C   UNL     1      35.824 -23.521 -10.177  0.00  0.00    +0.111 C 
ATOM     26  H   UNL     1      36.367 -22.194 -11.711  0.00  0.00    +0.150 HD
ENDBRANCH   4  24
TORSDOF 2
ENDMDL
MODEL 5
REMARK VINA RESULT:      -8.8     13.095     15.354
REMARK  Name = 11840911
REMARK  2 active torsions:
REMARK  status: ('A' for Active; 'I' for Inactive)
REMARK    1  A    between atoms: C_2  and  C_13
REMARK    2  A    between atoms: C_4  and  C_24
REMARK                            x       y       z     vdW  Elec       q    Type
REMARK                         _______ _______ _______ _____ _____    ______ ____
ROOT
ATOM      1  N   UNL     1      31.082 -24.680 -14.349  0.00  0.00    -0.357 N 
ATOM      2  C   UNL     1      31.842 -23.889 -15.140  0.00  0.00    +0.053 A 
ATOM      3  C   UNL     1      31.065 -23.136 -15.945  0.00  0.00    -0.001 A 
ATOM      4  C   UNL     1      29.725 -23.480 -15.635  0.00  0.00    +0.062 A 
ATOM      5  C   UNL     1      29.766 -24.437 -14.645  0.00  0.00    +0.038 A 
ATOM      6  C   UNL     1      31.504 -22.147 -16.952  0.00  0.00    +0.033 C 
ATOM      7  C   UNL     1      28.684 -25.154 -13.941  0.00  0.00    +0.050 C 
ATOM      8  H   UNL     1      31.415 -25.319 -13.678  0.00  0.00    +0.166 HD
ENDROOT
BRANCH   2  13
ATOM      9 CL   UNL     1      39.098 -24.697 -15.007  0.00  0.00    -0.082 Cl
ATOM     10  O   UNL     1      32.227 -23.005 -12.384  0.00  0.00    -0.270 OA
ATOM     11  N   UNL     1      34.504 -23.063 -11.758  0.00  0.00    -0.280 N 
ATOM     12  C   UNL     1      33.999 -23.722 -13.891  0.00  0.00    +0.056 C 
ATOM     13  C   UNL     1      33.272 -24.002 -14.975  0.00  0.00    +0.021 C 
ATOM     14  C   UNL     1      35.443 -23.832 -13.711  0.00  0.00    +0.019 C 
ATOM     15  C   UNL     1      35.695 -23.419 -12.399  0.00  0.00    +0.051 C 
ATOM     16  C   UNL     1      33.404 -23.219 -12.608  0.00  0.00    +0.250 C 
ATOM     17  C   UNL     1      36.478 -24.231 -14.537  0.00  0.00    +0.013 C 
ATOM     18  C   UNL     1      36.969 -23.388 -11.866  0.00  0.00    +0.016 C 
ATOM     19  C   UNL     1      37.775 -24.208 -14.015  0.00  0.00    +0.058 C 
ATOM     20  C   UNL     1      38.019 -23.791 -12.693  0.00  0.00    +0.013 C 
ATOM     21  H   UNL     1      34.448 -22.743 -10.829  0.00  0.00    +0.155 HD
ENDBRANCH   2  13
BRANCH   4  24
ATOM     22  O   UNL     1      28.200 -23.170 -17.404  0.00  0.00    -0.270 OA
ATOM     23  N   UNL     1      27.685 -22.207 -15.375  0.00  0.00    -0.299 N 
ATOM     24  C   UNL     1      28.521 -22.957 -16.217  0.00  0.00    +0.247 C 
ATOM     25  C   UNL     1      26.426 -21.642 -15.803  0.00  0.00    +0.111 C 
ATOM     26  H   UNL     1      27.970 -22.061 -14.444  0.00  0.00    +0.150 HD
ENDBRANCH   4  24
TORSDOF 2
ENDMDL
MODEL 6
REMARK VINA RESULT:      -8.8      1.316      2.019
REMARK  Name = 11840911
REMARK  2 active torsions:
REMARK  status: ('A' for Active; 'I' for Inactive)
REMARK    1  A    between atoms: C_2  and  C_13
REMARK    2  A    between atoms: C_4  and  C_24
REMARK                            x       y       z     vdW  Elec       q    Type
REMARK                         _______ _______ _______ _____ _____    ______ ____
ROOT
ATOM      1  N   UNL     1      31.715 -11.571 -21.430  0.00  0.00    -0.357 N 
ATOM      2  C   UNL     1      32.794 -11.814 -22.207  0.00  0.00    +0.053 A 
ATOM      3  C   UNL     1      33.087 -10.735 -22.962  0.00  0.00    -0.001 A 
ATOM      4  C   UNL     1      32.124  -9.749 -22.633  0.00  0.00    +0.062 A 
ATOM      5  C   UNL     1      31.288 -10.293 -21.683  0.00  0.00    +0.038 A 
ATOM      6  C   UNL     1      34.187 -10.592 -23.940  0.00  0.00    +0.033 C 
ATOM      7  C   UNL     1      30.117  -9.731 -20.980  0.00  0.00    +0.050 C 
ATOM      8  H   UNL     1      31.306 -12.201 -20.793  0.00  0.00    +0.166 HD
ENDROOT
BRANCH   2  13
ATOM      9 CL   UNL     1      36.043 -18.221 -20.900  0.00  0.00    -0.082 Cl
ATOM     10  O   UNL     1      32.150 -13.045 -24.775  0.00  0.00    -0.270 OA
ATOM     11  N   UNL     1      32.998 -15.246 -24.926  0.00  0.00    -0.280 N 
ATOM     12  C   UNL     1      33.401 -14.111 -22.979  0.00  0.00    +0.056 C 
ATOM     13  C   UNL     1      33.393 -13.122 -22.083  0.00  0.00    +0.021 C 
ATOM     14  C   UNL     1      34.003 -15.435 -22.866  0.00  0.00    +0.019 C 
ATOM     15  C   UNL     1      33.728 -16.082 -24.075  0.00  0.00    +0.051 C 
ATOM     16  C   UNL     1      32.751 -14.005 -24.327  0.00  0.00    +0.250 C 
ATOM     17  C   UNL     1      34.717 -16.075 -21.870  0.00  0.00    +0.013 C 
ATOM     18  C   UNL     1      34.147 -17.372 -24.335  0.00  0.00    +0.016 C 
ATOM     19  C   UNL     1      35.150 -17.382 -22.113  0.00  0.00    +0.058 C 
ATOM     20  C   UNL     1      34.868 -18.025 -23.333  0.00  0.00    +0.013 C 
ATOM     21  H   UNL     1      32.696 -15.498 -25.828  0.00  0.00    +0.155 HD
ENDBRANCH   2  13
BRANCH   4  24
ATOM     22  O   UNL     1      31.146  -8.114 -24.019  0.00  0.00    -0.270 OA
ATOM     23  N   UNL     1      32.878  -7.451 -22.650  0.00  0.00    -0.299 N 
ATOM     24  C   UNL     1      32.002  -8.420 -23.163  0.00  0.00    +0.247 C 
ATOM     25  C   UNL     1      32.858  -6.065 -23.059  0.00  0.00    +0.111 C 
ATOM     26  H   UNL     1      33.538  -7.729 -21.974  0.00  0.00    +0.150 HD
ENDBRANCH   4  24
TORSDOF 2
ENDMDL
MODEL 7
REMARK VINA RESULT:      -8.7      9.619     13.586
REMARK  Name = 11840911
REMARK  2 active torsions:
REMARK  status: ('A' for Active; 'I' for Inactive)
REMARK    1  A    between atoms: C_2  and  C_13
REMARK    2  A    between atoms: C_4  and  C_24
REMARK                            x       y       z     vdW  Elec       q    Type
REMARK                         _______ _______ _______ _____ _____    ______ ____
ROOT
ATOM      1  N   UNL     1      33.907 -22.718 -15.996  0.00  0.00    -0.357 N 
ATOM      2  C   UNL     1      35.182 -22.394 -16.307  0.00  0.00    +0.053 A 
ATOM      3  C   UNL     1      36.039 -22.933 -15.417  0.00  0.00    -0.001 A 
ATOM      4  C   UNL     1      35.244 -23.645 -14.484  0.00  0.00    +0.062 A 
ATOM      5  C   UNL     1      33.929 -23.495 -14.867  0.00  0.00    +0.038 A 
ATOM      6  C   UNL     1      37.513 -22.816 -15.401  0.00  0.00    +0.033 C 
ATOM      7  C   UNL     1      32.679 -24.012 -14.275  0.00  0.00    +0.050 C 
ATOM      8  H   UNL     1      33.102 -22.445 -16.493  0.00  0.00    +0.166 HD
ENDROOT
BRANCH   2  13
ATOM      9 CL   UNL     1      36.820 -18.140 -22.011  0.00  0.00    -0.082 Cl
ATOM     10  O   UNL     1      32.538 -22.460 -17.544  0.00  0.00    -0.270 OA
ATOM     11  N   UNL     1      32.472 -21.186 -19.533  0.00  0.00    -0.280 N 
ATOM     12  C   UNL     1      34.468 -21.257 -18.414  0.00  0.00    +0.056 C 
ATOM     13  C   UNL     1      35.367 -21.569 -17.479  0.00  0.00    +0.021 C 
ATOM     14  C   UNL     1      34.641 -20.426 -19.601  0.00  0.00    +0.019 C 
ATOM     15  C   UNL     1      33.400 -20.417 -20.244  0.00  0.00    +0.051 C 
ATOM     16  C   UNL     1      33.048 -21.744 -18.386  0.00  0.00    +0.250 C 
ATOM     17  C   UNL     1      35.713 -19.730 -20.127  0.00  0.00    +0.013 C 
ATOM     18  C   UNL     1      33.180 -19.725 -21.418  0.00  0.00    +0.016 C 
ATOM     19  C   UNL     1      35.512 -19.022 -21.316  0.00  0.00    +0.058 C 
ATOM     20  C   UNL     1      34.259 -19.019 -21.956  0.00  0.00    +0.013 C 
ATOM     21  H   UNL     1      31.535 -21.318 -19.805  0.00  0.00    +0.155 HD
ENDBRANCH   2  13
BRANCH   4  24
ATOM     22  O   UNL     1      36.261 -25.497 -13.439  0.00  0.00    -0.270 OA
ATOM     23  N   UNL     1      35.455 -23.818 -12.081  0.00  0.00    -0.299 N 
ATOM     24  C   UNL     1      35.681 -24.395 -13.340  0.00  0.00    +0.247 C 
ATOM     25  C   UNL     1      35.864 -24.433 -10.839  0.00  0.00    +0.111 C 
ATOM     26  H   UNL     1      34.996 -22.947 -12.042  0.00  0.00    +0.150 HD
ENDBRANCH   4  24
TORSDOF 2
ENDMDL
MODEL 8
REMARK VINA RESULT:      -8.5      9.003     12.290
REMARK  Name = 11840911
REMARK  2 active torsions:
REMARK  status: ('A' for Active; 'I' for Inactive)
REMARK    1  A    between atoms: C_2  and  C_13
REMARK    2  A    between atoms: C_4  and  C_24
REMARK                            x       y       z     vdW  Elec       q    Type
REMARK                         _______ _______ _______ _____ _____    ______ ____
ROOT
ATOM      1  N   UNL     1      34.447 -21.843 -18.675  0.00  0.00    -0.357 N 
ATOM      2  C   UNL     1      33.140 -21.498 -18.648  0.00  0.00    +0.053 A 
ATOM      3  C   UNL     1      32.885 -20.531 -19.553  0.00  0.00    -0.001 A 
ATOM      4  C   UNL     1      34.120 -20.252 -20.190  0.00  0.00    +0.062 A 
ATOM      5  C   UNL     1      35.069 -21.078 -19.628  0.00  0.00    +0.038 A 
ATOM      6  C   UNL     1      31.588 -19.881 -19.836  0.00  0.00    +0.033 C 
ATOM      7  C   UNL     1      36.513 -21.224 -19.895  0.00  0.00    +0.050 C 
ATOM      8  H   UNL     1      34.878 -22.524 -18.110  0.00  0.00    +0.166 HD
ENDROOT
BRANCH   2  13
ATOM      9 CL   UNL     1      28.396 -25.002 -14.343  0.00  0.00    -0.082 Cl
ATOM     10  O   UNL     1      34.974 -21.942 -16.421  0.00  0.00    -0.270 OA
ATOM     11  N   UNL     1      33.928 -23.095 -14.643  0.00  0.00    -0.280 N 
ATOM     12  C   UNL     1      32.647 -22.653 -16.488  0.00  0.00    +0.056 C 
ATOM     13  C   UNL     1      32.310 -22.202 -17.698  0.00  0.00    +0.021 C 
ATOM     14  C   UNL     1      31.819 -23.364 -15.520  0.00  0.00    +0.019 C 
ATOM     15  C   UNL     1      32.646 -23.608 -14.419  0.00  0.00    +0.051 C 
ATOM     16  C   UNL     1      34.018 -22.487 -15.900  0.00  0.00    +0.250 C 
ATOM     17  C   UNL     1      30.502 -23.785 -15.520  0.00  0.00    +0.013 C 
ATOM     18  C   UNL     1      32.201 -24.271 -13.293  0.00  0.00    +0.016 C 
ATOM     19  C   UNL     1      30.031 -24.458 -14.388  0.00  0.00    +0.058 C 
ATOM     20  C   UNL     1      30.871 -24.699 -13.285  0.00  0.00    +0.013 C 
ATOM     21  H   UNL     1      34.671 -23.155 -14.001  0.00  0.00    +0.155 HD
ENDBRANCH   2  13
BRANCH   4  24
ATOM     22  O   UNL     1      34.286 -19.578 -22.442  0.00  0.00    -0.270 OA
ATOM     23  N   UNL     1      34.730 -17.999 -20.824  0.00  0.00    -0.299 N 
ATOM     24  C   UNL     1      34.383 -19.297 -21.230  0.00  0.00    +0.247 C 
ATOM     25  C   UNL     1      34.994 -16.920 -21.748  0.00  0.00    +0.111 C 
ATOM     26  H   UNL     1      34.795 -17.813 -19.859  0.00  0.00    +0.150 HD
ENDBRANCH   4  24
TORSDOF 2
ENDMDL
MODEL 9
REMARK VINA RESULT:      -8.5      2.228      3.217
REMARK  Name = 11840911
REMARK  2 active torsions:
REMARK  status: ('A' for Active; 'I' for Inactive)
REMARK    1  A    between atoms: C_2  and  C_13
REMARK    2  A    between atoms: C_4  and  C_24
REMARK                            x       y       z     vdW  Elec       q    Type
REMARK                         _______ _______ _______ _____ _____    ______ ____
ROOT
ATOM      1  N   UNL     1      31.543 -12.276 -22.014  0.00  0.00    -0.357 N 
ATOM      2  C   UNL     1      32.497 -12.481 -22.949  0.00  0.00    +0.053 A 
ATOM      3  C   UNL     1      32.866 -11.313 -23.514  0.00  0.00    -0.001 A 
ATOM      4  C   UNL     1      32.088 -10.308 -22.886  0.00  0.00    +0.062 A 
ATOM      5  C   UNL     1      31.278 -10.932 -21.963  0.00  0.00    +0.038 A 
ATOM      6  C   UNL     1      33.875 -11.104 -24.574  0.00  0.00    +0.033 C 
ATOM      7  C   UNL     1      30.272 -10.390 -21.028  0.00  0.00    +0.050 C 
ATOM      8  H   UNL     1      31.112 -12.971 -21.464  0.00  0.00    +0.166 HD
ENDROOT
BRANCH   2  13
ATOM      9 CL   UNL     1      34.357 -19.329 -24.668  0.00  0.00    -0.082 Cl
ATOM     10  O   UNL     1      33.609 -13.189 -20.344  0.00  0.00    -0.270 OA
ATOM     11  N   UNL     1      34.407 -15.413 -20.310  0.00  0.00    -0.280 N 
ATOM     12  C   UNL     1      33.495 -14.669 -22.274  0.00  0.00    +0.056 C 
ATOM     13  C   UNL     1      32.914 -13.848 -23.152  0.00  0.00    +0.021 C 
ATOM     14  C   UNL     1      33.921 -16.051 -22.466  0.00  0.00    +0.019 C 
ATOM     15  C   UNL     1      34.468 -16.454 -21.243  0.00  0.00    +0.051 C 
ATOM     16  C   UNL     1      33.820 -14.270 -20.864  0.00  0.00    +0.250 C 
ATOM     17  C   UNL     1      33.876 -16.922 -23.539  0.00  0.00    +0.013 C 
ATOM     18  C   UNL     1      34.982 -17.719 -21.044  0.00  0.00    +0.016 C 
ATOM     19  C   UNL     1      34.392 -18.209 -23.358  0.00  0.00    +0.058 C 
ATOM     20  C   UNL     1      34.940 -18.605 -22.124  0.00  0.00    +0.013 C 
ATOM     21  H   UNL     1      34.735 -15.476 -19.385  0.00  0.00    +0.155 HD
ENDBRANCH   2  13
BRANCH   4  24
ATOM     22  O   UNL     1      31.150  -8.293 -23.669  0.00  0.00    -0.270 OA
ATOM     23  N   UNL     1      33.245  -8.191 -22.714  0.00  0.00    -0.299 N 
ATOM     24  C   UNL     1      32.104  -8.893 -23.134  0.00  0.00    +0.247 C 
ATOM     25  C   UNL     1      33.398  -6.762 -22.864  0.00  0.00    +0.111 C 
ATOM     26  H   UNL     1      33.978  -8.698 -22.294  0.00  0.00    +0.150 HD
ENDBRANCH   4  24
TORSDOF 2
ENDMDL
