MODEL 1
REMARK VINA RESULT:     -11.2      0.000      0.000
REMARK  Name = 9549258
REMARK  5 active torsions:
REMARK  status: ('A' for Active; 'I' for Inactive)
REMARK    1  A    between atoms: N_2  and  C_22
REMARK    2  A    between atoms: C_3  and  N_7
REMARK    3  A    between atoms: N_7  and  S_9
REMARK    4  A    between atoms: S_9  and  C_14
REMARK    5  A    between atoms: C_22  and  C_27
REMARK                            x       y       z     vdW  Elec       q    Type
REMARK                         _______ _______ _______ _____ _____    ______ ____
ROOT
ATOM      1  O   UNL     1      36.288 -21.904 -14.770  0.00  0.00    -0.273 OA
ATOM      2  N   UNL     1      35.126 -23.239 -13.219  0.00  0.00    -0.272 N 
ATOM      3  C   UNL     1      34.059 -22.756 -15.234  0.00  0.00    +0.153 C 
ATOM      4  C   UNL     1      33.397 -23.966 -14.584  0.00  0.00    +0.048 C 
ATOM      5  C   UNL     1      33.830 -23.870 -13.133  0.00  0.00    +0.096 C 
ATOM      6  C   UNL     1      35.317 -22.562 -14.424  0.00  0.00    +0.242 C 
ENDROOT
BRANCH   3   7
ATOM      7  N   UNL     1      34.417 -23.036 -16.629  0.00  0.00    -0.171 NA
ATOM      8  H   UNL     1      35.241 -22.476 -16.849  0.00  0.00    +0.149 HD
BRANCH   7   9
ATOM      9  S   UNL     1      33.247 -22.718 -17.843  0.00  0.00    +0.066 S 
ATOM     10  O   UNL     1      32.077 -22.117 -17.232  0.00  0.00    -0.152 OA
ATOM     11  O   UNL     1      33.135 -23.875 -18.709  0.00  0.00    -0.152 OA
BRANCH   9  14
ATOM     12 CL   UNL     1      34.687 -16.749 -23.229  0.00  0.00    -0.082 Cl
ATOM     13  S   UNL     1      32.776 -20.671 -19.867  0.00  0.00    -0.067 S 
ATOM     14  C   UNL     1      33.931 -21.454 -18.914  0.00  0.00    +0.151 C 
ATOM     15  C   UNL     1      35.194 -21.014 -19.101  0.00  0.00    +0.027 C 
ATOM     16  C   UNL     1      35.254 -19.966 -20.081  0.00  0.00    +0.008 C 
ATOM     17  C   UNL     1      33.984 -19.675 -20.589  0.00  0.00    +0.032 C 
ATOM     18  C   UNL     1      36.358 -19.230 -20.576  0.00  0.00    +0.001 C 
ATOM     19  C   UNL     1      33.793 -18.679 -21.567  0.00  0.00    +0.018 C 
ATOM     20  C   UNL     1      36.172 -18.242 -21.545  0.00  0.00    +0.011 C 
ATOM     21  C   UNL     1      34.901 -17.970 -22.034  0.00  0.00    +0.058 C 
ENDBRANCH   9  14
ENDBRANCH   7   9
ENDBRANCH   3   7
BRANCH   2  22
ATOM     22  C   UNL     1      36.040 -23.230 -12.098  0.00  0.00    +0.152 C 
ATOM     23  C   UNL     1      35.328 -23.054 -10.778  0.00  0.00    +0.031 C 
BRANCH  22  27
ATOM     24  O   UNL     1      39.799 -25.027 -14.950  0.00  0.00    -0.350 OA
ATOM     25  O   UNL     1      36.225 -25.533 -11.569  0.00  0.00    -0.273 OA
ATOM     26  N   UNL     1      37.898 -24.637 -12.907  0.00  0.00    -0.273 N 
ATOM     27  C   UNL     1      36.724 -24.573 -12.161  0.00  0.00    +0.244 C 
ATOM     28  C   UNL     1      38.584 -23.494 -13.516  0.00  0.00    +0.126 C 
ATOM     29  C   UNL     1      38.622 -25.903 -13.024  0.00  0.00    +0.126 C 
ATOM     30  C   UNL     1      39.014 -23.831 -14.938  0.00  0.00    +0.164 C 
ATOM     31  C   UNL     1      39.045 -26.141 -14.467  0.00  0.00    +0.164 C 
ENDBRANCH  22  27
ENDBRANCH   2  22
TORSDOF 5
ENDMDL
MODEL 2
REMARK VINA RESULT:     -10.5      7.355     12.459
REMARK  Name = 9549258
REMARK  5 active torsions:
REMARK  status: ('A' for Active; 'I' for Inactive)
REMARK    1  A    between atoms: N_2  and  C_22
REMARK    2  A    between atoms: C_3  and  N_7
REMARK    3  A    between atoms: N_7  and  S_9
REMARK    4  A    between atoms: S_9  and  C_14
REMARK    5  A    between atoms: C_22  and  C_27
REMARK                            x       y       z     vdW  Elec       q    Type
REMARK                         _______ _______ _______ _____ _____    ______ ____
ROOT
ATOM      1  O   UNL     1      34.354 -15.030 -23.846  0.00  0.00    -0.273 OA
ATOM      2  N   UNL     1      33.489 -13.595 -22.194  0.00  0.00    -0.272 N 
ATOM      3  C   UNL     1      34.030 -15.769 -21.553  0.00  0.00    +0.153 C 
ATOM      4  C   UNL     1      33.943 -14.879 -20.317  0.00  0.00    +0.048 C 
ATOM      5  C   UNL     1      33.140 -13.685 -20.796  0.00  0.00    +0.096 C 
ATOM      6  C   UNL     1      34.008 -14.787 -22.699  0.00  0.00    +0.242 C 
ENDROOT
BRANCH   3   7
ATOM      7  N   UNL     1      35.292 -16.517 -21.577  0.00  0.00    -0.171 NA
ATOM      8  H   UNL     1      35.967 -15.958 -22.099  0.00  0.00    +0.149 HD
BRANCH   7   9
ATOM      9  S   UNL     1      35.288 -18.086 -22.269  0.00  0.00    +0.066 S 
ATOM     10  O   UNL     1      36.655 -18.512 -22.495  0.00  0.00    -0.152 OA
ATOM     11  O   UNL     1      34.298 -18.136 -23.328  0.00  0.00    -0.152 OA
BRANCH   9  14
ATOM     12 CL   UNL     1      34.011 -23.410 -16.207  0.00  0.00    -0.082 Cl
ATOM     13  S   UNL     1      35.824 -19.933 -20.075  0.00  0.00    -0.067 S 
ATOM     14  C   UNL     1      34.635 -19.206 -21.030  0.00  0.00    +0.151 C 
ATOM     15  C   UNL     1      33.373 -19.577 -20.722  0.00  0.00    +0.027 C 
ATOM     16  C   UNL     1      33.344 -20.514 -19.635  0.00  0.00    +0.008 C 
ATOM     17  C   UNL     1      34.634 -20.801 -19.179  0.00  0.00    +0.032 C 
ATOM     18  C   UNL     1      32.251 -21.151 -18.998  0.00  0.00    +0.001 C 
ATOM     19  C   UNL     1      34.856 -21.698 -18.116  0.00  0.00    +0.018 C 
ATOM     20  C   UNL     1      32.468 -22.041 -17.944  0.00  0.00    +0.011 C 
ATOM     21  C   UNL     1      33.759 -22.311 -17.508  0.00  0.00    +0.058 C 
ENDBRANCH   9  14
ENDBRANCH   7   9
ENDBRANCH   3   7
BRANCH   2  22
ATOM     22  C   UNL     1      33.193 -12.413 -22.974  0.00  0.00    +0.152 C 
ATOM     23  C   UNL     1      32.834 -12.743 -24.403  0.00  0.00    +0.031 C 
BRANCH  22  27
ATOM     24  O   UNL     1      31.862  -7.604 -22.201  0.00  0.00    -0.350 OA
ATOM     25  O   UNL     1      31.297 -12.474 -21.552  0.00  0.00    -0.273 OA
ATOM     26  N   UNL     1      31.847 -10.410 -22.462  0.00  0.00    -0.273 N 
ATOM     27  C   UNL     1      32.025 -11.777 -22.264  0.00  0.00    +0.244 C 
ATOM     28  C   UNL     1      32.612  -9.578 -23.395  0.00  0.00    +0.126 C 
ATOM     29  C   UNL     1      30.740  -9.713 -21.805  0.00  0.00    +0.126 C 
ATOM     30  C   UNL     1      33.014  -8.268 -22.729  0.00  0.00    +0.164 C 
ATOM     31  C   UNL     1      31.223  -8.401 -21.201  0.00  0.00    +0.164 C 
ENDBRANCH  22  27
ENDBRANCH   2  22
TORSDOF 5
ENDMDL
MODEL 3
REMARK VINA RESULT:     -10.5      4.511     10.061
REMARK  Name = 9549258
REMARK  5 active torsions:
REMARK  status: ('A' for Active; 'I' for Inactive)
REMARK    1  A    between atoms: N_2  and  C_22
REMARK    2  A    between atoms: C_3  and  N_7
REMARK    3  A    between atoms: N_7  and  S_9
REMARK    4  A    between atoms: S_9  and  C_14
REMARK    5  A    between atoms: C_22  and  C_27
REMARK                            x       y       z     vdW  Elec       q    Type
REMARK                         _______ _______ _______ _____ _____    ______ ____
ROOT
ATOM      1  O   UNL     1      36.065 -20.243 -19.436  0.00  0.00    -0.273 OA
ATOM      2  N   UNL     1      34.387 -19.211 -20.723  0.00  0.00    -0.272 N 
ATOM      3  C   UNL     1      33.793 -21.104 -19.500  0.00  0.00    +0.153 C 
ATOM      4  C   UNL     1      32.537 -20.322 -19.873  0.00  0.00    +0.048 C 
ATOM      5  C   UNL     1      32.994 -19.445 -21.023  0.00  0.00    +0.096 C 
ATOM      6  C   UNL     1      34.915 -20.155 -19.842  0.00  0.00    +0.242 C 
ENDROOT
BRANCH   3   7
ATOM      7  N   UNL     1      33.824 -21.398 -18.063  0.00  0.00    -0.171 NA
ATOM      8  H   UNL     1      34.802 -21.519 -17.800  0.00  0.00    +0.149 HD
BRANCH   7   9
ATOM      9  S   UNL     1      32.972 -22.776 -17.502  0.00  0.00    +0.066 S 
ATOM     10  O   UNL     1      33.175 -23.874 -18.428  0.00  0.00    -0.152 OA
ATOM     11  O   UNL     1      31.640 -22.376 -17.088  0.00  0.00    -0.152 OA
BRANCH   9  14
ATOM     12 CL   UNL     1      35.164 -24.284  -9.779  0.00  0.00    -0.082 Cl
ATOM     13  S   UNL     1      32.921 -22.797 -14.585  0.00  0.00    -0.067 S 
ATOM     14  C   UNL     1      33.751 -23.290 -15.972  0.00  0.00    +0.151 C 
ATOM     15  C   UNL     1      34.877 -23.995 -15.723  0.00  0.00    +0.027 C 
ATOM     16  C   UNL     1      35.101 -24.161 -14.315  0.00  0.00    +0.008 C 
ATOM     17  C   UNL     1      34.093 -23.546 -13.566  0.00  0.00    +0.032 C 
ATOM     18  C   UNL     1      36.141 -24.823 -13.619  0.00  0.00    +0.001 C 
ATOM     19  C   UNL     1      34.099 -23.576 -12.157  0.00  0.00    +0.018 C 
ATOM     20  C   UNL     1      36.151 -24.855 -12.223  0.00  0.00    +0.011 C 
ATOM     21  C   UNL     1      35.139 -24.237 -11.501  0.00  0.00    +0.058 C 
ENDBRANCH   9  14
ENDBRANCH   7   9
ENDBRANCH   3   7
BRANCH   2  22
ATOM     22  C   UNL     1      35.141 -18.171 -21.389  0.00  0.00    +0.152 C 
ATOM     23  C   UNL     1      36.624 -18.458 -21.403  0.00  0.00    +0.031 C 
BRANCH  22  27
ATOM     24  O   UNL     1      33.256 -14.472 -24.262  0.00  0.00    -0.350 OA
ATOM     25  O   UNL     1      34.344 -19.212 -23.364  0.00  0.00    -0.273 OA
ATOM     26  N   UNL     1      34.384 -16.891 -23.357  0.00  0.00    -0.273 N 
ATOM     27  C   UNL     1      34.589 -18.147 -22.792  0.00  0.00    +0.244 C 
ATOM     28  C   UNL     1      34.779 -15.613 -22.757  0.00  0.00    +0.126 C 
ATOM     29  C   UNL     1      33.846 -16.777 -24.713  0.00  0.00    +0.126 C 
ATOM     30  C   UNL     1      33.654 -14.594 -22.894  0.00  0.00    +0.164 C 
ATOM     31  C   UNL     1      32.757 -15.714 -24.764  0.00  0.00    +0.164 C 
ENDBRANCH  22  27
ENDBRANCH   2  22
TORSDOF 5
ENDMDL
MODEL 4
REMARK VINA RESULT:     -10.4      4.969     10.451
REMARK  Name = 9549258
REMARK  5 active torsions:
REMARK  status: ('A' for Active; 'I' for Inactive)
REMARK    1  A    between atoms: N_2  and  C_22
REMARK    2  A    between atoms: C_3  and  N_7
REMARK    3  A    between atoms: N_7  and  S_9
REMARK    4  A    between atoms: S_9  and  C_14
REMARK    5  A    between atoms: C_22  and  C_27
REMARK                            x       y       z     vdW  Elec       q    Type
REMARK                         _______ _______ _______ _____ _____    ______ ____
ROOT
ATOM      1  O   UNL     1      36.476 -18.096 -20.350  0.00  0.00    -0.273 OA
ATOM      2  N   UNL     1      34.714 -17.830 -21.886  0.00  0.00    -0.272 N 
ATOM      3  C   UNL     1      34.925 -19.902 -20.841  0.00  0.00    +0.153 C 
ATOM      4  C   UNL     1      33.518 -19.759 -21.410  0.00  0.00    +0.048 C 
ATOM      5  C   UNL     1      33.661 -18.650 -22.436  0.00  0.00    +0.096 C 
ATOM      6  C   UNL     1      35.496 -18.509 -20.952  0.00  0.00    +0.242 C 
ENDROOT
BRANCH   3   7
ATOM      7  N   UNL     1      34.886 -20.302 -19.430  0.00  0.00    -0.171 NA
ATOM      8  H   UNL     1      35.836 -20.562 -19.162  0.00  0.00    +0.149 HD
BRANCH   7   9
ATOM      9  S   UNL     1      33.859 -21.602 -18.987  0.00  0.00    +0.066 S 
ATOM     10  O   UNL     1      34.158 -22.752 -19.819  0.00  0.00    -0.152 OA
ATOM     11  O   UNL     1      32.503 -21.108 -18.843  0.00  0.00    -0.152 OA
BRANCH   9  14
ATOM     12 CL   UNL     1      37.476 -23.107 -11.820  0.00  0.00    -0.082 Cl
ATOM     13  S   UNL     1      35.902 -21.700 -16.908  0.00  0.00    -0.067 S 
ATOM     14  C   UNL     1      34.310 -22.085 -17.321  0.00  0.00    +0.151 C 
ATOM     15  C   UNL     1      33.615 -22.700 -16.339  0.00  0.00    +0.027 C 
ATOM     16  C   UNL     1      34.410 -22.880 -15.157  0.00  0.00    +0.008 C 
ATOM     17  C   UNL     1      35.701 -22.372 -15.332  0.00  0.00    +0.032 C 
ATOM     18  C   UNL     1      34.086 -23.467 -13.910  0.00  0.00    +0.001 C 
ATOM     19  C   UNL     1      36.663 -22.435 -14.305  0.00  0.00    +0.018 C 
ATOM     20  C   UNL     1      35.037 -23.532 -12.890  0.00  0.00    +0.011 C 
ATOM     21  C   UNL     1      36.313 -23.021 -13.087  0.00  0.00    +0.058 C 
ENDBRANCH   9  14
ENDBRANCH   7   9
ENDBRANCH   3   7
BRANCH   2  22
ATOM     22  C   UNL     1      34.969 -16.493 -22.379  0.00  0.00    +0.152 C 
ATOM     23  C   UNL     1      34.459 -16.294 -23.787  0.00  0.00    +0.031 C 
BRANCH  22  27
ATOM     24  O   UNL     1      32.560 -12.094 -22.960  0.00  0.00    -0.350 OA
ATOM     25  O   UNL     1      34.348 -15.790 -20.202  0.00  0.00    -0.273 OA
ATOM     26  N   UNL     1      33.477 -14.570 -21.975  0.00  0.00    -0.273 N 
ATOM     27  C   UNL     1      34.239 -15.592 -21.415  0.00  0.00    +0.244 C 
ATOM     28  C   UNL     1      33.224 -14.384 -23.407  0.00  0.00    +0.126 C 
ATOM     29  C   UNL     1      32.741 -13.648 -21.111  0.00  0.00    +0.126 C 
ATOM     30  C   UNL     1      33.387 -12.917 -23.786  0.00  0.00    +0.164 C 
ATOM     31  C   UNL     1      32.930 -12.213 -21.584  0.00  0.00    +0.164 C 
ENDBRANCH  22  27
ENDBRANCH   2  22
TORSDOF 5
ENDMDL
MODEL 5
REMARK VINA RESULT:     -10.3      3.431      5.425
REMARK  Name = 9549258
REMARK  5 active torsions:
REMARK  status: ('A' for Active; 'I' for Inactive)
REMARK    1  A    between atoms: N_2  and  C_22
REMARK    2  A    between atoms: C_3  and  N_7
REMARK    3  A    between atoms: N_7  and  S_9
REMARK    4  A    between atoms: S_9  and  C_14
REMARK    5  A    between atoms: C_22  and  C_27
REMARK                            x       y       z     vdW  Elec       q    Type
REMARK                         _______ _______ _______ _____ _____    ______ ____
ROOT
ATOM      1  O   UNL     1      31.868 -20.736 -19.016  0.00  0.00    -0.273 OA
ATOM      2  N   UNL     1      33.650 -21.678 -17.801  0.00  0.00    -0.272 N 
ATOM      3  C   UNL     1      34.142 -20.736 -19.875  0.00  0.00    +0.153 C 
ATOM      4  C   UNL     1      35.421 -20.860 -19.054  0.00  0.00    +0.048 C 
ATOM      5  C   UNL     1      35.065 -21.886 -17.996  0.00  0.00    +0.096 C 
ATOM      6  C   UNL     1      33.050 -21.017 -18.873  0.00  0.00    +0.242 C 
ENDROOT
BRANCH   3   7
ATOM      7  N   UNL     1      33.983 -19.375 -20.401  0.00  0.00    -0.171 NA
ATOM      8  H   UNL     1      33.180 -19.386 -21.031  0.00  0.00    +0.149 HD
BRANCH   7   9
ATOM      9  S   UNL     1      35.295 -18.683 -21.261  0.00  0.00    +0.066 S 
ATOM     10  O   UNL     1      35.635 -19.536 -22.383  0.00  0.00    -0.152 OA
ATOM     11  O   UNL     1      36.303 -18.243 -20.316  0.00  0.00    -0.152 OA
BRANCH   9  14
ATOM     12 CL   UNL     1      32.407 -12.698 -26.011  0.00  0.00    -0.082 Cl
ATOM     13  S   UNL     1      34.260 -17.296 -23.610  0.00  0.00    -0.067 S 
ATOM     14  C   UNL     1      34.701 -17.154 -21.985  0.00  0.00    +0.151 C 
ATOM     15  C   UNL     1      34.544 -15.913 -21.474  0.00  0.00    +0.027 C 
ATOM     16  C   UNL     1      34.028 -14.996 -22.451  0.00  0.00    +0.008 C 
ATOM     17  C   UNL     1      33.824 -15.629 -23.681  0.00  0.00    +0.032 C 
ATOM     18  C   UNL     1      33.715 -13.619 -22.346  0.00  0.00    +0.001 C 
ATOM     19  C   UNL     1      33.321 -14.928 -24.795  0.00  0.00    +0.018 C 
ATOM     20  C   UNL     1      33.217 -12.921 -23.449  0.00  0.00    +0.011 C 
ATOM     21  C   UNL     1      33.023 -13.571 -24.660  0.00  0.00    +0.058 C 
ENDBRANCH   9  14
ENDBRANCH   7   9
ENDBRANCH   3   7
BRANCH   2  22
ATOM     22  C   UNL     1      32.952 -22.230 -16.660  0.00  0.00    +0.152 C 
ATOM     23  C   UNL     1      31.469 -22.370 -16.907  0.00  0.00    +0.031 C 
BRANCH  22  27
ATOM     24  O   UNL     1      36.662 -23.829 -13.631  0.00  0.00    -0.350 OA
ATOM     25  O   UNL     1      33.349 -24.493 -17.243  0.00  0.00    -0.273 OA
ATOM     26  N   UNL     1      34.427 -23.705 -15.343  0.00  0.00    -0.273 N 
ATOM     27  C   UNL     1      33.588 -23.580 -16.448  0.00  0.00    +0.244 C 
ATOM     28  C   UNL     1      34.633 -22.685 -14.311  0.00  0.00    +0.126 C 
ATOM     29  C   UNL     1      35.088 -24.981 -15.067  0.00  0.00    +0.126 C 
ATOM     30  C   UNL     1      36.116 -22.555 -13.985  0.00  0.00    +0.164 C 
ATOM     31  C   UNL     1      36.553 -24.754 -14.715  0.00  0.00    +0.164 C 
ENDBRANCH  22  27
ENDBRANCH   2  22
TORSDOF 5
ENDMDL
MODEL 6
REMARK VINA RESULT:     -10.2      7.448     12.602
REMARK  Name = 9549258
REMARK  5 active torsions:
REMARK  status: ('A' for Active; 'I' for Inactive)
REMARK    1  A    between atoms: N_2  and  C_22
REMARK    2  A    between atoms: C_3  and  N_7
REMARK    3  A    between atoms: N_7  and  S_9
REMARK    4  A    between atoms: S_9  and  C_14
REMARK    5  A    between atoms: C_22  and  C_27
REMARK                            x       y       z     vdW  Elec       q    Type
REMARK                         _______ _______ _______ _____ _____    ______ ____
ROOT
ATOM      1  O   UNL     1      33.944 -13.877 -20.658  0.00  0.00    -0.273 OA
ATOM      2  N   UNL     1      32.903 -13.776 -22.765  0.00  0.00    -0.272 N 
ATOM      3  C   UNL     1      34.586 -15.361 -22.473  0.00  0.00    +0.153 C 
ATOM      4  C   UNL     1      33.734 -15.738 -23.680  0.00  0.00    +0.048 C 
ATOM      5  C   UNL     1      33.034 -14.442 -24.040  0.00  0.00    +0.096 C 
ATOM      6  C   UNL     1      33.792 -14.264 -21.807  0.00  0.00    +0.242 C 
ENDROOT
BRANCH   3   7
ATOM      7  N   UNL     1      34.724 -16.492 -21.549  0.00  0.00    -0.171 NA
ATOM      8  H   UNL     1      35.483 -16.268 -20.906  0.00  0.00    +0.149 HD
BRANCH   7   9
ATOM      9  S   UNL     1      35.057 -18.039 -22.210  0.00  0.00    +0.066 S 
ATOM     10  O   UNL     1      36.471 -18.132 -22.521  0.00  0.00    -0.152 OA
ATOM     11  O   UNL     1      34.046 -18.361 -23.199  0.00  0.00    -0.152 OA
BRANCH   9  14
ATOM     12 CL   UNL     1      32.069 -23.326 -16.747  0.00  0.00    -0.082 Cl
ATOM     13  S   UNL     1      33.145 -19.644 -20.700  0.00  0.00    -0.067 S 
ATOM     14  C   UNL     1      34.772 -19.240 -20.910  0.00  0.00    +0.151 C 
ATOM     15  C   UNL     1      35.615 -19.879 -20.069  0.00  0.00    +0.027 C 
ATOM     16  C   UNL     1      34.914 -20.765 -19.184  0.00  0.00    +0.008 C 
ATOM     17  C   UNL     1      33.536 -20.734 -19.423  0.00  0.00    +0.032 C 
ATOM     18  C   UNL     1      35.396 -21.617 -18.161  0.00  0.00    +0.001 C 
ATOM     19  C   UNL     1      32.641 -21.523 -18.675  0.00  0.00    +0.018 C 
ATOM     20  C   UNL     1      34.511 -22.401 -17.417  0.00  0.00    +0.011 C 
ATOM     21  C   UNL     1      33.148 -22.353 -17.673  0.00  0.00    +0.058 C 
ENDBRANCH   9  14
ENDBRANCH   7   9
ENDBRANCH   3   7
BRANCH   2  22
ATOM     22  C   UNL     1      32.019 -12.644 -22.589  0.00  0.00    +0.152 C 
ATOM     23  C   UNL     1      31.620 -12.447 -21.145  0.00  0.00    +0.031 C 
BRANCH  22  27
ATOM     24  O   UNL     1      31.123  -7.675 -22.615  0.00  0.00    -0.350 OA
ATOM     25  O   UNL     1      33.801 -11.660 -23.802  0.00  0.00    -0.273 OA
ATOM     26  N   UNL     1      32.363 -10.204 -22.706  0.00  0.00    -0.273 N 
ATOM     27  C   UNL     1      32.814 -11.465 -23.089  0.00  0.00    +0.244 C 
ATOM     28  C   UNL     1      31.274  -9.941 -21.760  0.00  0.00    +0.126 C 
ATOM     29  C   UNL     1      33.074  -9.006 -23.151  0.00  0.00    +0.126 C 
ATOM     30  C   UNL     1      30.362  -8.844 -22.297  0.00  0.00    +0.164 C 
ATOM     31  C   UNL     1      32.087  -7.952 -23.634  0.00  0.00    +0.164 C 
ENDBRANCH  22  27
ENDBRANCH   2  22
TORSDOF 5
ENDMDL
MODEL 7
REMARK VINA RESULT:     -10.1      3.788      5.939
REMARK  Name = 9549258
REMARK  5 active torsions:
REMARK  status: ('A' for Active; 'I' for Inactive)
REMARK    1  A    between atoms: N_2  and  C_22
REMARK    2  A    between atoms: C_3  and  N_7
REMARK    3  A    between atoms: N_7  and  S_9
REMARK    4  A    between atoms: S_9  and  C_14
REMARK    5  A    between atoms: C_22  and  C_27
REMARK                            x       y       z     vdW  Elec       q    Type
REMARK                         _______ _______ _______ _____ _____    ______ ____
ROOT
ATOM      1  O   UNL     1      32.332 -21.012 -19.394  0.00  0.00    -0.273 OA
ATOM      2  N   UNL     1      34.223 -21.624 -18.135  0.00  0.00    -0.272 N 
ATOM      3  C   UNL     1      34.586 -20.484 -20.135  0.00  0.00    +0.153 C 
ATOM      4  C   UNL     1      35.829 -20.383 -19.256  0.00  0.00    +0.048 C 
ATOM      5  C   UNL     1      35.657 -21.518 -18.266  0.00  0.00    +0.096 C 
ATOM      6  C   UNL     1      33.539 -21.045 -19.204  0.00  0.00    +0.242 C 
ENDROOT
BRANCH   3   7
ATOM      7  N   UNL     1      34.162 -19.161 -20.605  0.00  0.00    -0.171 NA
ATOM      8  H   UNL     1      33.375 -19.302 -21.238  0.00  0.00    +0.149 HD
BRANCH   7   9
ATOM      9  S   UNL     1      35.311 -18.190 -21.430  0.00  0.00    +0.066 S 
ATOM     10  O   UNL     1      35.426 -18.647 -22.802  0.00  0.00    -0.152 OA
ATOM     11  O   UNL     1      36.482 -18.024 -20.591  0.00  0.00    -0.152 OA
BRANCH   9  14
ATOM     12 CL   UNL     1      32.503 -10.838 -23.617  0.00  0.00    -0.082 Cl
ATOM     13  S   UNL     1      34.578 -15.915 -23.102  0.00  0.00    -0.067 S 
ATOM     14  C   UNL     1      34.627 -16.537 -21.532  0.00  0.00    +0.151 C 
ATOM     15  C   UNL     1      34.146 -15.698 -20.588  0.00  0.00    +0.027 C 
ATOM     16  C   UNL     1      33.699 -14.458 -21.156  0.00  0.00    +0.008 C 
ATOM     17  C   UNL     1      33.880 -14.441 -22.542  0.00  0.00    +0.032 C 
ATOM     18  C   UNL     1      33.132 -13.315 -20.541  0.00  0.00    +0.001 C 
ATOM     19  C   UNL     1      33.514 -13.324 -23.319  0.00  0.00    +0.018 C 
ATOM     20  C   UNL     1      32.768 -12.206 -21.308  0.00  0.00    +0.011 C 
ATOM     21  C   UNL     1      32.958 -12.212 -22.683  0.00  0.00    +0.058 C 
ENDBRANCH   9  14
ENDBRANCH   7   9
ENDBRANCH   3   7
BRANCH   2  22
ATOM     22  C   UNL     1      33.613 -22.373 -17.057  0.00  0.00    +0.152 C 
ATOM     23  C   UNL     1      32.952 -23.642 -17.542  0.00  0.00    +0.031 C 
BRANCH  22  27
ATOM     24  O   UNL     1      33.790 -23.859 -12.235  0.00  0.00    -0.350 OA
ATOM     25  O   UNL     1      35.906 -22.387 -16.456  0.00  0.00    -0.273 OA
ATOM     26  N   UNL     1      34.425 -23.312 -14.926  0.00  0.00    -0.273 N 
ATOM     27  C   UNL     1      34.756 -22.689 -16.127  0.00  0.00    +0.244 C 
ATOM     28  C   UNL     1      33.092 -23.798 -14.558  0.00  0.00    +0.126 C 
ATOM     29  C   UNL     1      35.474 -23.650 -13.963  0.00  0.00    +0.126 C 
ATOM     30  C   UNL     1      32.764 -23.405 -13.123  0.00  0.00    +0.164 C 
ATOM     31  C   UNL     1      35.047 -23.258 -12.555  0.00  0.00    +0.164 C 
ENDBRANCH  22  27
ENDBRANCH   2  22
TORSDOF 5
ENDMDL
MODEL 8
REMARK VINA RESULT:     -10.0      2.339      3.695
REMARK  Name = 9549258
REMARK  5 active torsions:
REMARK  status: ('A' for Active; 'I' for Inactive)
REMARK    1  A    between atoms: N_2  and  C_22
REMARK    2  A    between atoms: C_3  and  N_7
REMARK    3  A    between atoms: N_7  and  S_9
REMARK    4  A    between atoms: S_9  and  C_14
REMARK    5  A    between atoms: C_22  and  C_27
REMARK                            x       y       z     vdW  Elec       q    Type
REMARK                         _______ _______ _______ _____ _____    ______ ____
ROOT
ATOM      1  O   UNL     1      33.815 -22.216 -17.623  0.00  0.00    -0.273 OA
ATOM      2  N   UNL     1      35.266 -22.173 -15.771  0.00  0.00    -0.272 N 
ATOM      3  C   UNL     1      36.071 -21.328 -17.788  0.00  0.00    +0.153 C 
ATOM      4  C   UNL     1      36.927 -20.807 -16.639  0.00  0.00    +0.048 C 
ATOM      5  C   UNL     1      36.628 -21.772 -15.508  0.00  0.00    +0.096 C 
ATOM      6  C   UNL     1      34.883 -21.947 -17.094  0.00  0.00    +0.242 C 
ENDROOT
BRANCH   3   7
ATOM      7  N   UNL     1      35.616 -20.230 -18.648  0.00  0.00    -0.171 NA
ATOM      8  H   UNL     1      34.840 -19.772 -18.169  0.00  0.00    +0.149 HD
BRANCH   7   9
ATOM      9  S   UNL     1      35.083 -20.611 -20.233  0.00  0.00    +0.066 S 
ATOM     10  O   UNL     1      33.789 -21.261 -20.158  0.00  0.00    -0.152 OA
ATOM     11  O   UNL     1      36.182 -21.201 -20.974  0.00  0.00    -0.152 OA
BRANCH   9  14
ATOM     12 CL   UNL     1      33.376 -14.569 -25.458  0.00  0.00    -0.082 Cl
ATOM     13  S   UNL     1      34.321 -19.237 -22.691  0.00  0.00    -0.067 S 
ATOM     14  C   UNL     1      34.792 -19.057 -21.078  0.00  0.00    +0.151 C 
ATOM     15  C   UNL     1      34.880 -17.774 -20.666  0.00  0.00    +0.027 C 
ATOM     16  C   UNL     1      34.545 -16.853 -21.716  0.00  0.00    +0.008 C 
ATOM     17  C   UNL     1      34.214 -17.528 -22.895  0.00  0.00    +0.032 C 
ATOM     18  C   UNL     1      34.505 -15.438 -21.721  0.00  0.00    +0.001 C 
ATOM     19  C   UNL     1      33.850 -16.833 -24.064  0.00  0.00    +0.018 C 
ATOM     20  C   UNL     1      34.143 -14.745 -22.879  0.00  0.00    +0.011 C 
ATOM     21  C   UNL     1      33.820 -15.437 -24.038  0.00  0.00    +0.058 C 
ENDBRANCH   9  14
ENDBRANCH   7   9
ENDBRANCH   3   7
BRANCH   2  22
ATOM     22  C   UNL     1      34.468 -22.850 -14.772  0.00  0.00    +0.152 C 
ATOM     23  C   UNL     1      33.082 -23.181 -15.272  0.00  0.00    +0.031 C 
BRANCH  22  27
ATOM     24  O   UNL     1      37.316 -24.250 -10.844  0.00  0.00    -0.350 OA
ATOM     25  O   UNL     1      35.416 -24.942 -15.359  0.00  0.00    -0.273 OA
ATOM     26  N   UNL     1      35.715 -24.245 -13.164  0.00  0.00    -0.273 N 
ATOM     27  C   UNL     1      35.239 -24.109 -14.466  0.00  0.00    +0.244 C 
ATOM     28  C   UNL     1      35.417 -23.340 -12.050  0.00  0.00    +0.126 C 
ATOM     29  C   UNL     1      36.477 -25.434 -12.784  0.00  0.00    +0.126 C 
ATOM     30  C   UNL     1      36.686 -23.036 -11.262  0.00  0.00    +0.164 C 
ATOM     31  C   UNL     1      37.704 -25.041 -11.971  0.00  0.00    +0.164 C 
ENDBRANCH  22  27
ENDBRANCH   2  22
TORSDOF 5
ENDMDL
MODEL 9
REMARK VINA RESULT:     -10.0      4.547      6.903
REMARK  Name = 9549258
REMARK  5 active torsions:
REMARK  status: ('A' for Active; 'I' for Inactive)
REMARK    1  A    between atoms: N_2  and  C_22
REMARK    2  A    between atoms: C_3  and  N_7
REMARK    3  A    between atoms: N_7  and  S_9
REMARK    4  A    between atoms: S_9  and  C_14
REMARK    5  A    between atoms: C_22  and  C_27
REMARK                            x       y       z     vdW  Elec       q    Type
REMARK                         _______ _______ _______ _____ _____    ______ ____
ROOT
ATOM      1  O   UNL     1      32.170 -21.688 -19.840  0.00  0.00    -0.273 OA
ATOM      2  N   UNL     1      33.610 -22.161 -18.040  0.00  0.00    -0.272 N 
ATOM      3  C   UNL     1      34.474 -20.914 -19.810  0.00  0.00    +0.153 C 
ATOM      4  C   UNL     1      35.351 -20.725 -18.576  0.00  0.00    +0.048 C 
ATOM      5  C   UNL     1      34.991 -21.909 -17.700  0.00  0.00    +0.096 C 
ATOM      6  C   UNL     1      33.249 -21.610 -19.270  0.00  0.00    +0.242 C 
ENDROOT
BRANCH   3   7
ATOM      7  N   UNL     1      34.087 -19.621 -20.385  0.00  0.00    -0.171 NA
ATOM      8  H   UNL     1      33.185 -19.752 -20.845  0.00  0.00    +0.149 HD
BRANCH   7   9
ATOM      9  S   UNL     1      35.140 -18.896 -21.528  0.00  0.00    +0.066 S 
ATOM     10  O   UNL     1      34.899 -19.476 -22.835  0.00  0.00    -0.152 OA
ATOM     11  O   UNL     1      36.477 -18.831 -20.967  0.00  0.00    -0.152 OA
BRANCH   9  14
ATOM     12 CL   UNL     1      32.966 -11.391 -23.907  0.00  0.00    -0.082 Cl
ATOM     13  S   UNL     1      34.448 -16.657 -23.264  0.00  0.00    -0.067 S 
ATOM     14  C   UNL     1      34.659 -17.176 -21.671  0.00  0.00    +0.151 C 
ATOM     15  C   UNL     1      34.437 -16.219 -20.742  0.00  0.00    +0.027 C 
ATOM     16  C   UNL     1      34.066 -14.970 -21.344  0.00  0.00    +0.008 C 
ATOM     17  C   UNL     1      34.032 -15.069 -22.738  0.00  0.00    +0.032 C 
ATOM     18  C   UNL     1      33.747 -13.723 -20.754  0.00  0.00    +0.001 C 
ATOM     19  C   UNL     1      33.693 -13.966 -23.547  0.00  0.00    +0.018 C 
ATOM     20  C   UNL     1      33.409 -12.628 -21.552  0.00  0.00    +0.011 C 
ATOM     21  C   UNL     1      33.383 -12.750 -22.935  0.00  0.00    +0.058 C 
ENDBRANCH   9  14
ENDBRANCH   7   9
ENDBRANCH   3   7
BRANCH   2  22
ATOM     22  C   UNL     1      32.770 -23.007 -17.221  0.00  0.00    +0.152 C 
ATOM     23  C   UNL     1      33.376 -23.275 -15.863  0.00  0.00    +0.031 C 
BRANCH  22  27
ATOM     24  O   UNL     1      28.355 -24.087 -15.022  0.00  0.00    -0.350 OA
ATOM     25  O   UNL     1      31.311 -21.219 -17.762  0.00  0.00    -0.273 OA
ATOM     26  N   UNL     1      30.542 -22.750 -16.194  0.00  0.00    -0.273 N 
ATOM     27  C   UNL     1      31.480 -22.239 -17.088  0.00  0.00    +0.244 C 
ATOM     28  C   UNL     1      30.758 -23.882 -15.289  0.00  0.00    +0.126 C 
ATOM     29  C   UNL     1      29.261 -22.069 -16.008  0.00  0.00    +0.126 C 
ATOM     30  C   UNL     1      29.553 -24.814 -15.310  0.00  0.00    +0.164 C 
ATOM     31  C   UNL     1      28.119 -23.076 -16.005  0.00  0.00    +0.164 C 
ENDBRANCH  22  27
ENDBRANCH   2  22
TORSDOF 5
ENDMDL
