MODEL 1
REMARK VINA RESULT:     -12.0      0.000      0.000
REMARK  Name = 445459
REMARK  7 active torsions:
REMARK  status: ('A' for Active; 'I' for Inactive)
REMARK    1  A    between atoms: C_1  and  C_7
REMARK    2  A    between atoms: C_1  and  N_13
REMARK    3  A    between atoms: C_1  and  C_27
REMARK    4  A    between atoms: C_4  and  C_9
REMARK    5  A    between atoms: C_9  and  O_10
REMARK    6  A    between atoms: C_14  and  C_18
REMARK    7  A    between atoms: C_27  and  C_28
REMARK                            x       y       z     vdW  Elec       q    Type
REMARK                         _______ _______ _______ _____ _____    ______ ____
ROOT
ATOM      1  C   UNL     1      34.220 -22.406 -15.604  0.00  0.00    +0.153 C 
ENDROOT
BRANCH   1   7
ATOM      2  O   UNL     1      36.494 -22.984 -16.059  0.00  0.00    -0.273 OA
ATOM      3  N   UNL     1      35.769 -23.088 -13.883  0.00  0.00    -0.277 N 
ATOM      4  C   UNL     1      36.150 -23.152 -11.872  0.00  0.00    +0.138 C 
ATOM      5  C   UNL     1      36.915 -23.569 -13.134  0.00  0.00    +0.106 C 
ATOM      6  C   UNL     1      34.890 -23.003 -12.734  0.00  0.00    +0.106 C 
ATOM      7  C   UNL     1      35.605 -22.853 -15.219  0.00  0.00    +0.244 C 
BRANCH   4   9
ATOM      8  O   UNL     1      36.049 -25.434 -10.875  0.00  0.00    -0.250 OA
ATOM      9  C   UNL     1      36.080 -24.213 -10.729  0.00  0.00    +0.317 C 
BRANCH   9  10
ATOM     10  O   UNL     1      36.063 -23.637  -9.496  0.00  0.00    -0.480 OA
ATOM     11  H   UNL     1      35.469 -23.948  -8.841  0.00  0.00    +0.295 HD
ENDBRANCH   9  10
ENDBRANCH   4   9
ENDBRANCH   1   7
BRANCH   1  13
ATOM     12  O   UNL     1      33.678 -23.113 -18.279  0.00  0.00    -0.269 OA
ATOM     13  N   UNL     1      34.433 -21.564 -16.761  0.00  0.00    -0.294 N 
ATOM     14  C   UNL     1      34.145 -21.966 -18.082  0.00  0.00    +0.260 C 
ATOM     15  H   UNL     1      34.800 -20.662 -16.618  0.00  0.00    +0.150 HD
BRANCH  14  18
ATOM     16 CL   UNL     1      34.361 -16.982 -23.905  0.00  0.00    -0.082 Cl
ATOM     17  N   UNL     1      35.594 -20.417 -19.344  0.00  0.00    -0.309 N 
ATOM     18  C   UNL     1      34.381 -21.012 -19.121  0.00  0.00    +0.102 C 
ATOM     19  C   UNL     1      33.492 -20.526 -20.051  0.00  0.00    +0.020 C 
ATOM     20  C   UNL     1      34.191 -19.598 -20.873  0.00  0.00    +0.016 C 
ATOM     21  C   UNL     1      35.507 -19.549 -20.408  0.00  0.00    +0.048 C 
ATOM     22  C   UNL     1      33.829 -18.793 -21.971  0.00  0.00    +0.013 C 
ATOM     23  C   UNL     1      36.483 -18.731 -20.989  0.00  0.00    +0.015 C 
ATOM     24  C   UNL     1      34.795 -17.969 -22.562  0.00  0.00    +0.058 C 
ATOM     25  C   UNL     1      36.101 -17.941 -22.077  0.00  0.00    +0.013 C 
ATOM     26  H   UNL     1      36.410 -20.586 -18.819  0.00  0.00    +0.152 HD
ENDBRANCH  14  18
ENDBRANCH   1  13
BRANCH   1  27
ATOM     27  C   UNL     1      33.328 -23.609 -15.902  0.00  0.00    +0.055 C 
BRANCH  27  28
ATOM     28  C   UNL     1      31.925 -23.436 -15.372  0.00  0.00    -0.020 C 
ATOM     29  C   UNL     1      30.992 -22.748 -16.131  0.00  0.00    -0.004 C 
ATOM     30  C   UNL     1      31.595 -23.969 -14.136  0.00  0.00    -0.004 C 
ATOM     31  C   UNL     1      29.695 -22.588 -15.643  0.00  0.00    -0.000 C 
ATOM     32  C   UNL     1      30.298 -23.810 -13.647  0.00  0.00    -0.000 C 
ATOM     33  C   UNL     1      29.349 -23.119 -14.401  0.00  0.00    -0.000 C 
ENDBRANCH  27  28
ENDBRANCH   1  27
TORSDOF 7
ENDMDL
MODEL 2
REMARK VINA RESULT:     -11.7      2.744      5.617
REMARK  Name = 445459
REMARK  7 active torsions:
REMARK  status: ('A' for Active; 'I' for Inactive)
REMARK    1  A    between atoms: C_1  and  C_7
REMARK    2  A    between atoms: C_1  and  N_13
REMARK    3  A    between atoms: C_1  and  C_27
REMARK    4  A    between atoms: C_4  and  C_9
REMARK    5  A    between atoms: C_9  and  O_10
REMARK    6  A    between atoms: C_14  and  C_18
REMARK    7  A    between atoms: C_27  and  C_28
REMARK                            x       y       z     vdW  Elec       q    Type
REMARK                         _______ _______ _______ _____ _____    ______ ____
ROOT
ATOM      1  C   UNL     1      32.537 -23.454 -14.658  0.00  0.00    +0.153 C 
ENDROOT
BRANCH   1   7
ATOM      2  O   UNL     1      31.487 -22.107 -12.985  0.00  0.00    -0.273 OA
ATOM      3  N   UNL     1      30.285 -22.612 -14.875  0.00  0.00    -0.277 N 
ATOM      4  C   UNL     1      28.724 -22.254 -16.150  0.00  0.00    +0.138 C 
ATOM      5  C   UNL     1      28.986 -22.002 -14.660  0.00  0.00    +0.106 C 
ATOM      6  C   UNL     1      29.954 -23.170 -16.171  0.00  0.00    +0.106 C 
ATOM      7  C   UNL     1      31.396 -22.659 -14.080  0.00  0.00    +0.244 C 
BRANCH   4   9
ATOM      8  O   UNL     1      27.194 -23.864 -17.282  0.00  0.00    -0.250 OA
ATOM      9  C   UNL     1      27.360 -22.926 -16.504  0.00  0.00    +0.317 C 
BRANCH   9  10
ATOM     10  O   UNL     1      26.320 -22.357 -15.834  0.00  0.00    -0.480 OA
ATOM     11  H   UNL     1      26.257 -22.445 -14.903  0.00  0.00    +0.295 HD
ENDBRANCH   9  10
ENDBRANCH   4   9
ENDBRANCH   1   7
BRANCH   1  13
ATOM     12  O   UNL     1      33.004 -24.268 -17.317  0.00  0.00    -0.269 OA
ATOM     13  N   UNL     1      33.045 -22.616 -15.721  0.00  0.00    -0.294 N 
ATOM     14  C   UNL     1      33.262 -23.072 -17.038  0.00  0.00    +0.260 C 
ATOM     15  H   UNL     1      33.251 -21.676 -15.513  0.00  0.00    +0.150 HD
BRANCH  14  18
ATOM     16 CL   UNL     1      36.819 -18.169 -21.740  0.00  0.00    -0.082 Cl
ATOM     17  N   UNL     1      32.930 -21.445 -18.864  0.00  0.00    -0.309 N 
ATOM     18  C   UNL     1      33.741 -22.118 -17.989  0.00  0.00    +0.102 C 
ATOM     19  C   UNL     1      35.035 -21.706 -18.208  0.00  0.00    +0.020 C 
ATOM     20  C   UNL     1      35.012 -20.745 -19.257  0.00  0.00    +0.016 C 
ATOM     21  C   UNL     1      33.680 -20.600 -19.651  0.00  0.00    +0.048 C 
ATOM     22  C   UNL     1      35.999 -19.982 -19.912  0.00  0.00    +0.013 C 
ATOM     23  C   UNL     1      33.284 -19.727 -20.670  0.00  0.00    +0.015 C 
ATOM     24  C   UNL     1      35.618 -19.105 -20.934  0.00  0.00    +0.058 C 
ATOM     25  C   UNL     1      34.281 -18.981 -21.306  0.00  0.00    +0.013 C 
ATOM     26  H   UNL     1      31.953 -21.551 -18.922  0.00  0.00    +0.152 HD
ENDBRANCH  14  18
ENDBRANCH   1  13
BRANCH   1  27
ATOM     27  C   UNL     1      33.583 -23.751 -13.586  0.00  0.00    +0.055 C 
BRANCH  27  28
ATOM     28  C   UNL     1      34.995 -23.671 -14.115  0.00  0.00    -0.020 C 
ATOM     29  C   UNL     1      35.593 -22.431 -14.272  0.00  0.00    -0.004 C 
ATOM     30  C   UNL     1      35.668 -24.841 -14.434  0.00  0.00    -0.004 C 
ATOM     31  C   UNL     1      36.898 -22.357 -14.760  0.00  0.00    -0.000 C 
ATOM     32  C   UNL     1      36.973 -24.766 -14.923  0.00  0.00    -0.000 C 
ATOM     33  C   UNL     1      37.587 -23.525 -15.086  0.00  0.00    -0.000 C 
ENDBRANCH  27  28
ENDBRANCH   1  27
TORSDOF 7
ENDMDL
MODEL 3
REMARK VINA RESULT:     -11.2      2.556      4.688
REMARK  Name = 445459
REMARK  7 active torsions:
REMARK  status: ('A' for Active; 'I' for Inactive)
REMARK    1  A    between atoms: C_1  and  C_7
REMARK    2  A    between atoms: C_1  and  N_13
REMARK    3  A    between atoms: C_1  and  C_27
REMARK    4  A    between atoms: C_4  and  C_9
REMARK    5  A    between atoms: C_9  and  O_10
REMARK    6  A    between atoms: C_14  and  C_18
REMARK    7  A    between atoms: C_27  and  C_28
REMARK                            x       y       z     vdW  Elec       q    Type
REMARK                         _______ _______ _______ _____ _____    ______ ____
ROOT
ATOM      1  C   UNL     1      32.752 -22.760 -16.643  0.00  0.00    +0.153 C 
ENDROOT
BRANCH   1   7
ATOM      2  O   UNL     1      30.716 -21.713 -17.332  0.00  0.00    -0.273 OA
ATOM      3  N   UNL     1      30.583 -23.452 -15.839  0.00  0.00    -0.277 N 
ATOM      4  C   UNL     1      29.514 -24.921 -14.896  0.00  0.00    +0.138 C 
ATOM      5  C   UNL     1      29.170 -23.570 -15.535  0.00  0.00    +0.106 C 
ATOM      6  C   UNL     1      30.996 -24.529 -14.962  0.00  0.00    +0.106 C 
ATOM      7  C   UNL     1      31.256 -22.579 -16.646  0.00  0.00    +0.244 C 
BRANCH   4   9
ATOM      8  O   UNL     1      29.452 -24.841 -12.405  0.00  0.00    -0.250 OA
ATOM      9  C   UNL     1      28.933 -25.175 -13.469  0.00  0.00    +0.317 C 
BRANCH   9  10
ATOM     10  O   UNL     1      27.737 -25.824 -13.511  0.00  0.00    -0.480 OA
ATOM     11  H   UNL     1      26.987 -25.453 -13.089  0.00  0.00    +0.295 HD
ENDBRANCH   9  10
ENDBRANCH   4   9
ENDBRANCH   1   7
BRANCH   1  13
ATOM     12  O   UNL     1      33.548 -23.243 -19.304  0.00  0.00    -0.269 OA
ATOM     13  N   UNL     1      33.227 -21.764 -17.577  0.00  0.00    -0.294 N 
ATOM     14  C   UNL     1      33.614 -22.057 -18.902  0.00  0.00    +0.260 C 
ATOM     15  H   UNL     1      33.283 -20.829 -17.272  0.00  0.00    +0.150 HD
BRANCH  14  18
ATOM     16 CL   UNL     1      34.829 -16.103 -23.579  0.00  0.00    -0.082 Cl
ATOM     17  N   UNL     1      35.328 -20.514 -19.780  0.00  0.00    -0.309 N 
ATOM     18  C   UNL     1      34.035 -20.961 -19.717  0.00  0.00    +0.102 C 
ATOM     19  C   UNL     1      33.274 -20.177 -20.554  0.00  0.00    +0.020 C 
ATOM     20  C   UNL     1      34.137 -19.215 -21.149  0.00  0.00    +0.016 C 
ATOM     21  C   UNL     1      35.419 -19.448 -20.647  0.00  0.00    +0.048 C 
ATOM     22  C   UNL     1      33.949 -18.166 -22.070  0.00  0.00    +0.013 C 
ATOM     23  C   UNL     1      36.528 -18.681 -21.021  0.00  0.00    +0.015 C 
ATOM     24  C   UNL     1      35.049 -17.389 -22.453  0.00  0.00    +0.058 C 
ATOM     25  C   UNL     1      36.318 -17.644 -21.936  0.00  0.00    +0.013 C 
ATOM     26  H   UNL     1      36.082 -20.898 -19.278  0.00  0.00    +0.152 HD
ENDBRANCH  14  18
ENDBRANCH   1  13
BRANCH   1  27
ATOM     27  C   UNL     1      33.314 -22.569 -15.236  0.00  0.00    +0.055 C 
BRANCH  27  28
ATOM     28  C   UNL     1      34.753 -23.011 -15.122  0.00  0.00    -0.020 C 
ATOM     29  C   UNL     1      35.037 -24.309 -14.731  0.00  0.00    -0.004 C 
ATOM     30  C   UNL     1      35.766 -22.109 -15.412  0.00  0.00    -0.004 C 
ATOM     31  C   UNL     1      36.367 -24.718 -14.626  0.00  0.00    -0.000 C 
ATOM     32  C   UNL     1      37.096 -22.518 -15.306  0.00  0.00    -0.000 C 
ATOM     33  C   UNL     1      37.395 -23.822 -14.914  0.00  0.00    -0.000 C 
ENDBRANCH  27  28
ENDBRANCH   1  27
TORSDOF 7
ENDMDL
MODEL 4
REMARK VINA RESULT:     -11.1      1.455      1.980
REMARK  Name = 445459
REMARK  7 active torsions:
REMARK  status: ('A' for Active; 'I' for Inactive)
REMARK    1  A    between atoms: C_1  and  C_7
REMARK    2  A    between atoms: C_1  and  N_13
REMARK    3  A    between atoms: C_1  and  C_27
REMARK    4  A    between atoms: C_4  and  C_9
REMARK    5  A    between atoms: C_9  and  O_10
REMARK    6  A    between atoms: C_14  and  C_18
REMARK    7  A    between atoms: C_27  and  C_28
REMARK                            x       y       z     vdW  Elec       q    Type
REMARK                         _______ _______ _______ _____ _____    ______ ____
ROOT
ATOM      1  C   UNL     1      33.022 -23.337 -14.971  0.00  0.00    +0.153 C 
ENDROOT
BRANCH   1   7
ATOM      2  O   UNL     1      34.775 -24.893 -15.437  0.00  0.00    -0.273 OA
ATOM      3  N   UNL     1      34.676 -23.978 -13.334  0.00  0.00    -0.277 N 
ATOM      4  C   UNL     1      35.547 -23.526 -11.537  0.00  0.00    +0.138 C 
ATOM      5  C   UNL     1      35.764 -24.604 -12.607  0.00  0.00    +0.106 C 
ATOM      6  C   UNL     1      34.217 -23.176 -12.217  0.00  0.00    +0.106 C 
ATOM      7  C   UNL     1      34.240 -24.150 -14.617  0.00  0.00    +0.244 C 
BRANCH   4   9
ATOM      8  O   UNL     1      34.828 -25.015  -9.672  0.00  0.00    -0.250 OA
ATOM      9  C   UNL     1      35.453 -24.031 -10.063  0.00  0.00    +0.317 C 
BRANCH   9  10
ATOM     10  O   UNL     1      36.167 -23.249  -9.207  0.00  0.00    -0.480 OA
ATOM     11  H   UNL     1      37.104 -23.237  -9.254  0.00  0.00    +0.295 HD
ENDBRANCH   9  10
ENDBRANCH   4   9
ENDBRANCH   1   7
BRANCH   1  13
ATOM     12  O   UNL     1      32.875 -23.945 -17.721  0.00  0.00    -0.269 OA
ATOM     13  N   UNL     1      33.471 -22.486 -16.050  0.00  0.00    -0.294 N 
ATOM     14  C   UNL     1      33.376 -22.836 -17.414  0.00  0.00    +0.260 C 
ATOM     15  H   UNL     1      33.866 -21.613 -15.821  0.00  0.00    +0.150 HD
BRANCH  14  18
ATOM     16 CL   UNL     1      36.839 -17.903 -22.153  0.00  0.00    -0.082 Cl
ATOM     17  N   UNL     1      33.009 -21.208 -19.231  0.00  0.00    -0.309 N 
ATOM     18  C   UNL     1      33.836 -21.877 -18.369  0.00  0.00    +0.102 C 
ATOM     19  C   UNL     1      35.125 -21.457 -18.604  0.00  0.00    +0.020 C 
ATOM     20  C   UNL     1      35.081 -20.494 -19.651  0.00  0.00    +0.016 C 
ATOM     21  C   UNL     1      33.743 -20.357 -20.026  0.00  0.00    +0.048 C 
ATOM     22  C   UNL     1      36.055 -19.725 -20.318  0.00  0.00    +0.013 C 
ATOM     23  C   UNL     1      33.328 -19.484 -21.038  0.00  0.00    +0.015 C 
ATOM     24  C   UNL     1      35.655 -18.848 -21.333  0.00  0.00    +0.058 C 
ATOM     25  C   UNL     1      34.312 -18.731 -21.686  0.00  0.00    +0.013 C 
ATOM     26  H   UNL     1      32.032 -21.319 -19.276  0.00  0.00    +0.152 HD
ENDBRANCH  14  18
ENDBRANCH   1  13
BRANCH   1  27
ATOM     27  C   UNL     1      31.865 -24.247 -15.377  0.00  0.00    +0.055 C 
BRANCH  27  28
ATOM     28  C   UNL     1      30.527 -23.553 -15.304  0.00  0.00    -0.020 C 
ATOM     29  C   UNL     1      30.422 -22.349 -14.626  0.00  0.00    -0.004 C 
ATOM     30  C   UNL     1      29.427 -24.132 -15.918  0.00  0.00    -0.004 C 
ATOM     31  C   UNL     1      29.185 -21.706 -14.560  0.00  0.00    -0.000 C 
ATOM     32  C   UNL     1      28.190 -23.489 -15.852  0.00  0.00    -0.000 C 
ATOM     33  C   UNL     1      28.070 -22.277 -15.173  0.00  0.00    -0.000 C 
ENDBRANCH  27  28
ENDBRANCH   1  27
TORSDOF 7
ENDMDL
MODEL 5
REMARK VINA RESULT:     -10.9     11.608     16.491
REMARK  Name = 445459
REMARK  7 active torsions:
REMARK  status: ('A' for Active; 'I' for Inactive)
REMARK    1  A    between atoms: C_1  and  C_7
REMARK    2  A    between atoms: C_1  and  N_13
REMARK    3  A    between atoms: C_1  and  C_27
REMARK    4  A    between atoms: C_4  and  C_9
REMARK    5  A    between atoms: C_9  and  O_10
REMARK    6  A    between atoms: C_14  and  C_18
REMARK    7  A    between atoms: C_27  and  C_28
REMARK                            x       y       z     vdW  Elec       q    Type
REMARK                         _______ _______ _______ _____ _____    ______ ____
ROOT
ATOM      1  C   UNL     1      32.466  -8.413 -23.010  0.00  0.00    +0.153 C 
ENDROOT
BRANCH   1   7
ATOM      2  O   UNL     1      34.770  -7.813 -23.224  0.00  0.00    -0.273 OA
ATOM      3  N   UNL     1      33.251  -6.759 -24.585  0.00  0.00    -0.277 N 
ATOM      4  C   UNL     1      32.805  -5.662 -26.254  0.00  0.00    +0.138 C 
ATOM      5  C   UNL     1      34.037  -5.814 -25.354  0.00  0.00    +0.106 C 
ATOM      6  C   UNL     1      31.983  -6.394 -25.185  0.00  0.00    +0.106 C 
ATOM      7  C   UNL     1      33.614  -7.640 -23.605  0.00  0.00    +0.244 C 
BRANCH   4   9
ATOM      8  O   UNL     1      31.678  -3.474 -25.860  0.00  0.00    -0.250 OA
ATOM      9  C   UNL     1      32.366  -4.199 -26.577  0.00  0.00    +0.317 C 
BRANCH   9  10
ATOM     10  O   UNL     1      32.844  -3.774 -27.778  0.00  0.00    -0.480 OA
ATOM     11  H   UNL     1      33.756  -3.583 -27.879  0.00  0.00    +0.295 HD
ENDBRANCH   9  10
ENDBRANCH   4   9
ENDBRANCH   1   7
BRANCH   1  13
ATOM     12  O   UNL     1      30.998 -10.648 -22.116  0.00  0.00    -0.269 OA
ATOM     13  N   UNL     1      32.892  -9.792 -23.093  0.00  0.00    -0.294 N 
ATOM     14  C   UNL     1      32.119 -10.878 -22.630  0.00  0.00    +0.260 C 
ATOM     15  H   UNL     1      33.771  -9.984 -23.494  0.00  0.00    +0.150 HD
BRANCH  14  18
ATOM     16 CL   UNL     1      35.334 -17.838 -22.539  0.00  0.00    -0.082 Cl
ATOM     17  N   UNL     1      32.587 -12.888 -23.982  0.00  0.00    -0.309 N 
ATOM     18  C   UNL     1      32.661 -12.188 -22.807  0.00  0.00    +0.102 C 
ATOM     19  C   UNL     1      33.326 -12.969 -21.889  0.00  0.00    +0.020 C 
ATOM     20  C   UNL     1      33.670 -14.192 -22.531  0.00  0.00    +0.016 C 
ATOM     21  C   UNL     1      33.195 -14.115 -23.841  0.00  0.00    +0.048 C 
ATOM     22  C   UNL     1      34.342 -15.359 -22.120  0.00  0.00    +0.013 C 
ATOM     23  C   UNL     1      33.360 -15.153 -24.766  0.00  0.00    +0.015 C 
ATOM     24  C   UNL     1      34.514 -16.406 -23.033  0.00  0.00    +0.058 C 
ATOM     25  C   UNL     1      34.029 -16.302 -24.336  0.00  0.00    +0.013 C 
ATOM     26  H   UNL     1      32.160 -12.561 -24.807  0.00  0.00    +0.152 HD
ENDBRANCH  14  18
ENDBRANCH   1  13
BRANCH   1  27
ATOM     27  C   UNL     1      32.197  -7.960 -21.577  0.00  0.00    +0.055 C 
BRANCH  27  28
ATOM     28  C   UNL     1      31.504  -6.621 -21.511  0.00  0.00    -0.020 C 
ATOM     29  C   UNL     1      30.401  -6.386 -22.317  0.00  0.00    -0.004 C 
ATOM     30  C   UNL     1      31.984  -5.650 -20.646  0.00  0.00    -0.004 C 
ATOM     31  C   UNL     1      29.760  -5.148 -22.256  0.00  0.00    -0.000 C 
ATOM     32  C   UNL     1      31.343  -4.411 -20.585  0.00  0.00    -0.000 C 
ATOM     33  C   UNL     1      30.231  -4.162 -21.390  0.00  0.00    -0.000 C 
ENDBRANCH  27  28
ENDBRANCH   1  27
TORSDOF 7
ENDMDL
MODEL 6
REMARK VINA RESULT:      -9.9     10.302     14.837
REMARK  Name = 445459
REMARK  7 active torsions:
REMARK  status: ('A' for Active; 'I' for Inactive)
REMARK    1  A    between atoms: C_1  and  C_7
REMARK    2  A    between atoms: C_1  and  N_13
REMARK    3  A    between atoms: C_1  and  C_27
REMARK    4  A    between atoms: C_4  and  C_9
REMARK    5  A    between atoms: C_9  and  O_10
REMARK    6  A    between atoms: C_14  and  C_18
REMARK    7  A    between atoms: C_27  and  C_28
REMARK                            x       y       z     vdW  Elec       q    Type
REMARK                         _______ _______ _______ _____ _____    ______ ____
ROOT
ATOM      1  C   UNL     1      32.018  -9.660 -23.684  0.00  0.00    +0.153 C 
ENDROOT
BRANCH   1   7
ATOM      2  O   UNL     1      34.301  -9.227 -23.122  0.00  0.00    -0.273 OA
ATOM      3  N   UNL     1      32.952  -7.434 -23.611  0.00  0.00    -0.277 N 
ATOM      4  C   UNL     1      32.707  -5.475 -24.148  0.00  0.00    +0.138 C 
ATOM      5  C   UNL     1      33.800  -6.273 -23.428  0.00  0.00    +0.106 C 
ATOM      6  C   UNL     1      31.771  -6.677 -23.975  0.00  0.00    +0.106 C 
ATOM      7  C   UNL     1      33.206  -8.766 -23.441  0.00  0.00    +0.244 C 
BRANCH   4   9
ATOM      8  O   UNL     1      31.904  -4.024 -22.288  0.00  0.00    -0.250 OA
ATOM      9  C   UNL     1      32.257  -4.148 -23.459  0.00  0.00    +0.317 C 
BRANCH   9  10
ATOM     10  O   UNL     1      32.299  -3.088 -24.312  0.00  0.00    -0.480 OA
ATOM     11  H   UNL     1      33.053  -2.949 -24.851  0.00  0.00    +0.295 HD
ENDBRANCH   9  10
ENDBRANCH   4   9
ENDBRANCH   1   7
BRANCH   1  13
ATOM     12  O   UNL     1      32.197 -11.838 -25.466  0.00  0.00    -0.269 OA
ATOM     13  N   UNL     1      32.502 -10.982 -23.357  0.00  0.00    -0.294 N 
ATOM     14  C   UNL     1      32.572 -12.041 -24.286  0.00  0.00    +0.260 C 
ATOM     15  H   UNL     1      32.798 -11.153 -22.433  0.00  0.00    +0.150 HD
BRANCH  14  18
ATOM     16 CL   UNL     1      35.622 -18.188 -20.864  0.00  0.00    -0.082 Cl
ATOM     17  N   UNL     1      33.120 -14.430 -24.572  0.00  0.00    -0.309 N 
ATOM     18  C   UNL     1      33.101 -13.285 -23.821  0.00  0.00    +0.102 C 
ATOM     19  C   UNL     1      33.663 -13.570 -22.598  0.00  0.00    +0.020 C 
ATOM     20  C   UNL     1      34.039 -14.943 -22.604  0.00  0.00    +0.016 C 
ATOM     21  C   UNL     1      33.688 -15.458 -23.853  0.00  0.00    +0.048 C 
ATOM     22  C   UNL     1      34.647 -15.798 -21.664  0.00  0.00    +0.013 C 
ATOM     23  C   UNL     1      33.914 -16.792 -24.211  0.00  0.00    +0.015 C 
ATOM     24  C   UNL     1      34.879 -17.135 -22.007  0.00  0.00    +0.058 C 
ATOM     25  C   UNL     1      34.518 -17.622 -23.262  0.00  0.00    +0.013 C 
ATOM     26  H   UNL     1      32.777 -14.507 -25.492  0.00  0.00    +0.152 HD
ENDBRANCH  14  18
ENDBRANCH   1  13
BRANCH   1  27
ATOM     27  C   UNL     1      30.835  -9.230 -22.820  0.00  0.00    +0.055 C 
BRANCH  27  28
ATOM     28  C   UNL     1      31.121  -9.350 -21.343  0.00  0.00    -0.020 C 
ATOM     29  C   UNL     1      31.309  -8.201 -20.592  0.00  0.00    -0.004 C 
ATOM     30  C   UNL     1      31.190 -10.608 -20.764  0.00  0.00    -0.004 C 
ATOM     31  C   UNL     1      31.573  -8.311 -19.226  0.00  0.00    -0.000 C 
ATOM     32  C   UNL     1      31.455 -10.718 -19.399  0.00  0.00    -0.000 C 
ATOM     33  C   UNL     1      31.646  -9.570 -18.631  0.00  0.00    -0.000 C 
ENDBRANCH  27  28
ENDBRANCH   1  27
TORSDOF 7
ENDMDL
MODEL 7
REMARK VINA RESULT:      -9.8     13.103     18.136
REMARK  Name = 445459
REMARK  7 active torsions:
REMARK  status: ('A' for Active; 'I' for Inactive)
REMARK    1  A    between atoms: C_1  and  C_7
REMARK    2  A    between atoms: C_1  and  N_13
REMARK    3  A    between atoms: C_1  and  C_27
REMARK    4  A    between atoms: C_4  and  C_9
REMARK    5  A    between atoms: C_9  and  O_10
REMARK    6  A    between atoms: C_14  and  C_18
REMARK    7  A    between atoms: C_27  and  C_28
REMARK                            x       y       z     vdW  Elec       q    Type
REMARK                         _______ _______ _______ _____ _____    ______ ____
ROOT
ATOM      1  C   UNL     1      32.972  -6.503 -23.994  0.00  0.00    +0.153 C 
ENDROOT
BRANCH   1   7
ATOM      2  O   UNL     1      34.979  -7.072 -25.162  0.00  0.00    -0.273 OA
ATOM      3  N   UNL     1      33.559  -5.551 -26.134  0.00  0.00    -0.277 N 
ATOM      4  C   UNL     1      32.891  -4.522 -27.772  0.00  0.00    +0.138 C 
ATOM      5  C   UNL     1      34.226  -5.155 -27.359  0.00  0.00    +0.106 C 
ATOM      6  C   UNL     1      32.410  -4.688 -26.325  0.00  0.00    +0.106 C 
ATOM      7  C   UNL     1      33.941  -6.412 -25.143  0.00  0.00    +0.244 C 
BRANCH   4   9
ATOM      8  O   UNL     1      33.408  -2.085 -27.703  0.00  0.00    -0.250 OA
ATOM      9  C   UNL     1      32.962  -3.057 -28.308  0.00  0.00    +0.317 C 
BRANCH   9  10
ATOM     10  O   UNL     1      32.468  -2.950 -29.572  0.00  0.00    -0.480 OA
ATOM     11  H   UNL     1      31.958  -2.202 -29.815  0.00  0.00    +0.295 HD
ENDBRANCH   9  10
ENDBRANCH   4   9
ENDBRANCH   1   7
BRANCH   1  13
ATOM     12  O   UNL     1      30.871  -8.300 -23.440  0.00  0.00    -0.269 OA
ATOM     13  N   UNL     1      33.124  -7.858 -23.514  0.00  0.00    -0.294 N 
ATOM     14  C   UNL     1      32.038  -8.720 -23.252  0.00  0.00    +0.260 C 
ATOM     15  H   UNL     1      34.036  -8.198 -23.362  0.00  0.00    +0.150 HD
BRANCH  14  18
ATOM     16 CL   UNL     1      34.384 -15.858 -21.720  0.00  0.00    -0.082 Cl
ATOM     17  N   UNL     1      31.775 -10.631 -21.713  0.00  0.00    -0.309 N 
ATOM     18  C   UNL     1      32.347 -10.044 -22.810  0.00  0.00    +0.102 C 
ATOM     19  C   UNL     1      33.229 -10.944 -23.361  0.00  0.00    +0.020 C 
ATOM     20  C   UNL     1      33.193 -12.126 -22.568  0.00  0.00    +0.016 C 
ATOM     21  C   UNL     1      32.273 -11.903 -21.542  0.00  0.00    +0.048 C 
ATOM     22  C   UNL     1      33.857 -13.367 -22.626  0.00  0.00    +0.013 C 
ATOM     23  C   UNL     1      31.983 -12.863 -20.566  0.00  0.00    +0.015 C 
ATOM     24  C   UNL     1      33.577 -14.337 -21.657  0.00  0.00    +0.058 C 
ATOM     25  C   UNL     1      32.654 -14.087 -20.643  0.00  0.00    +0.013 C 
ATOM     26  H   UNL     1      31.104 -10.205 -21.131  0.00  0.00    +0.152 HD
ENDBRANCH  14  18
ENDBRANCH   1  13
BRANCH   1  27
ATOM     27  C   UNL     1      33.299  -5.458 -22.929  0.00  0.00    +0.055 C 
BRANCH  27  28
ATOM     28  C   UNL     1      32.073  -4.727 -22.438  0.00  0.00    -0.020 C 
ATOM     29  C   UNL     1      31.335  -5.262 -21.395  0.00  0.00    -0.004 C 
ATOM     30  C   UNL     1      31.708  -3.532 -23.039  0.00  0.00    -0.004 C 
ATOM     31  C   UNL     1      30.202  -4.586 -20.940  0.00  0.00    -0.000 C 
ATOM     32  C   UNL     1      30.575  -2.856 -22.585  0.00  0.00    -0.000 C 
ATOM     33  C   UNL     1      29.823  -3.384 -21.535  0.00  0.00    -0.000 C 
ENDBRANCH  27  28
ENDBRANCH   1  27
TORSDOF 7
ENDMDL
MODEL 8
REMARK VINA RESULT:      -9.8      1.865      2.289
REMARK  Name = 445459
REMARK  7 active torsions:
REMARK  status: ('A' for Active; 'I' for Inactive)
REMARK    1  A    between atoms: C_1  and  C_7
REMARK    2  A    between atoms: C_1  and  N_13
REMARK    3  A    between atoms: C_1  and  C_27
REMARK    4  A    between atoms: C_4  and  C_9
REMARK    5  A    between atoms: C_9  and  O_10
REMARK    6  A    between atoms: C_14  and  C_18
REMARK    7  A    between atoms: C_27  and  C_28
REMARK                            x       y       z     vdW  Elec       q    Type
REMARK                         _______ _______ _______ _____ _____    ______ ____
ROOT
ATOM      1  C   UNL     1      34.561 -21.985 -15.604  0.00  0.00    +0.153 C 
ENDROOT
BRANCH   1   7
ATOM      2  O   UNL     1      36.839 -21.401 -15.180  0.00  0.00    -0.273 OA
ATOM      3  N   UNL     1      36.237 -23.608 -14.983  0.00  0.00    -0.277 N 
ATOM      4  C   UNL     1      36.589 -25.503 -14.293  0.00  0.00    +0.138 C 
ATOM      5  C   UNL     1      37.469 -24.299 -14.652  0.00  0.00    +0.106 C 
ATOM      6  C   UNL     1      35.415 -24.802 -14.989  0.00  0.00    +0.106 C 
ATOM      7  C   UNL     1      35.990 -22.288 -15.239  0.00  0.00    +0.244 C 
BRANCH   4   9
ATOM      8  O   UNL     1      37.815 -27.670 -14.392  0.00  0.00    -0.250 OA
ATOM      9  C   UNL     1      37.024 -26.876 -14.896  0.00  0.00    +0.317 C 
BRANCH   9  10
ATOM     10  O   UNL     1      36.414 -27.129 -16.086  0.00  0.00    -0.480 OA
ATOM     11  H   UNL     1      36.562 -26.563 -16.819  0.00  0.00    +0.295 HD
ENDBRANCH   9  10
ENDBRANCH   4   9
ENDBRANCH   1   7
BRANCH   1  13
ATOM     12  O   UNL     1      33.995 -22.920 -18.203  0.00  0.00    -0.269 OA
ATOM     13  N   UNL     1      34.667 -21.213 -16.822  0.00  0.00    -0.294 N 
ATOM     14  C   UNL     1      34.372 -21.728 -18.102  0.00  0.00    +0.260 C 
ATOM     15  H   UNL     1      34.962 -20.276 -16.754  0.00  0.00    +0.150 HD
BRANCH  14  18
ATOM     16 CL   UNL     1      34.002 -17.188 -24.270  0.00  0.00    -0.082 Cl
ATOM     17  N   UNL     1      35.637 -20.134 -19.498  0.00  0.00    -0.309 N 
ATOM     18  C   UNL     1      34.495 -20.834 -19.210  0.00  0.00    +0.102 C 
ATOM     19  C   UNL     1      33.550 -20.511 -20.157  0.00  0.00    +0.020 C 
ATOM     20  C   UNL     1      34.140 -19.579 -21.056  0.00  0.00    +0.016 C 
ATOM     21  C   UNL     1      35.448 -19.359 -20.620  0.00  0.00    +0.048 C 
ATOM     22  C   UNL     1      33.684 -18.898 -22.202  0.00  0.00    +0.013 C 
ATOM     23  C   UNL     1      36.327 -18.490 -21.275  0.00  0.00    +0.015 C 
ATOM     24  C   UNL     1      34.551 -18.025 -22.868  0.00  0.00    +0.058 C 
ATOM     25  C   UNL     1      35.852 -17.825 -22.410  0.00  0.00    +0.013 C 
ATOM     26  H   UNL     1      36.471 -20.179 -18.977  0.00  0.00    +0.152 HD
ENDBRANCH  14  18
ENDBRANCH   1  13
BRANCH   1  27
ATOM     27  C   UNL     1      33.766 -23.276 -15.788  0.00  0.00    +0.055 C 
BRANCH  27  28
ATOM     28  C   UNL     1      32.352 -23.166 -15.269  0.00  0.00    -0.020 C 
ATOM     29  C   UNL     1      32.079 -23.519 -13.958  0.00  0.00    -0.004 C 
ATOM     30  C   UNL     1      31.352 -22.712 -16.115  0.00  0.00    -0.004 C 
ATOM     31  C   UNL     1      30.774 -23.417 -13.478  0.00  0.00    -0.000 C 
ATOM     32  C   UNL     1      30.045 -22.610 -15.636  0.00  0.00    -0.000 C 
ATOM     33  C   UNL     1      29.757 -22.962 -14.317  0.00  0.00    -0.000 C 
ENDBRANCH  27  28
ENDBRANCH   1  27
TORSDOF 7
ENDMDL
MODEL 9
REMARK VINA RESULT:      -9.1     12.257     17.326
REMARK  Name = 445459
REMARK  7 active torsions:
REMARK  status: ('A' for Active; 'I' for Inactive)
REMARK    1  A    between atoms: C_1  and  C_7
REMARK    2  A    between atoms: C_1  and  N_13
REMARK    3  A    between atoms: C_1  and  C_27
REMARK    4  A    between atoms: C_4  and  C_9
REMARK    5  A    between atoms: C_9  and  O_10
REMARK    6  A    between atoms: C_14  and  C_18
REMARK    7  A    between atoms: C_27  and  C_28
REMARK                            x       y       z     vdW  Elec       q    Type
REMARK                         _______ _______ _______ _____ _____    ______ ____
ROOT
ATOM      1  C   UNL     1      32.964  -7.205 -23.246  0.00  0.00    +0.153 C 
ENDROOT
BRANCH   1   7
ATOM      2  O   UNL     1      31.914  -7.483 -21.117  0.00  0.00    -0.273 OA
ATOM      3  N   UNL     1      31.745  -5.436 -22.144  0.00  0.00    -0.277 N 
ATOM      4  C   UNL     1      31.368  -3.426 -22.073  0.00  0.00    +0.138 C 
ATOM      5  C   UNL     1      30.924  -4.641 -21.250  0.00  0.00    +0.106 C 
ATOM      6  C   UNL     1      31.908  -4.391 -23.135  0.00  0.00    +0.106 C 
ATOM      7  C   UNL     1      32.159  -6.736 -22.063  0.00  0.00    +0.244 C 
BRANCH   4   9
ATOM      8  O   UNL     1      29.850  -2.293 -23.693  0.00  0.00    -0.250 OA
ATOM      9  C   UNL     1      30.234  -2.458 -22.536  0.00  0.00    +0.317 C 
BRANCH   9  10
ATOM     10  O   UNL     1      29.676  -1.786 -21.492  0.00  0.00    -0.480 OA
ATOM     11  H   UNL     1      30.063  -0.989 -21.187  0.00  0.00    +0.295 HD
ENDBRANCH   9  10
ENDBRANCH   4   9
ENDBRANCH   1   7
BRANCH   1  13
ATOM     12  O   UNL     1      31.179  -9.354 -23.628  0.00  0.00    -0.269 OA
ATOM     13  N   UNL     1      33.239  -8.594 -22.955  0.00  0.00    -0.294 N 
ATOM     14  C   UNL     1      32.310  -9.635 -23.164  0.00  0.00    +0.260 C 
ATOM     15  H   UNL     1      34.123  -8.826 -22.589  0.00  0.00    +0.150 HD
BRANCH  14  18
ATOM     16 CL   UNL     1      34.882 -16.833 -22.556  0.00  0.00    -0.082 Cl
ATOM     17  N   UNL     1      32.652 -11.517 -21.605  0.00  0.00    -0.309 N 
ATOM     18  C   UNL     1      32.737 -10.964 -22.855  0.00  0.00    +0.102 C 
ATOM     19  C   UNL     1      33.289 -11.901 -23.698  0.00  0.00    +0.020 C 
ATOM     20  C   UNL     1      33.550 -13.071 -22.931  0.00  0.00    +0.016 C 
ATOM     21  C   UNL     1      33.142 -12.804 -21.623  0.00  0.00    +0.048 C 
ATOM     22  C   UNL     1      34.096 -14.335 -23.227  0.00  0.00    +0.013 C 
ATOM     23  C   UNL     1      33.254 -13.742 -20.591  0.00  0.00    +0.015 C 
ATOM     24  C   UNL     1      34.215 -15.284 -22.204  0.00  0.00    +0.058 C 
ATOM     25  C   UNL     1      33.799 -14.989 -20.907  0.00  0.00    +0.013 C 
ATOM     26  H   UNL     1      32.294 -11.061 -20.810  0.00  0.00    +0.152 HD
ENDBRANCH  14  18
ENDBRANCH   1  13
BRANCH   1  27
ATOM     27  C   UNL     1      32.179  -7.015 -24.542  0.00  0.00    +0.055 C 
BRANCH  27  28
ATOM     28  C   UNL     1      32.975  -6.296 -25.604  0.00  0.00    -0.020 C 
ATOM     29  C   UNL     1      34.313  -6.014 -25.376  0.00  0.00    -0.004 C 
ATOM     30  C   UNL     1      32.354  -5.931 -26.788  0.00  0.00    -0.004 C 
ATOM     31  C   UNL     1      35.049  -5.350 -26.357  0.00  0.00    -0.000 C 
ATOM     32  C   UNL     1      33.091  -5.266 -27.769  0.00  0.00    -0.000 C 
ATOM     33  C   UNL     1      34.438  -4.977 -27.553  0.00  0.00    -0.000 C 
ENDBRANCH  27  28
ENDBRANCH   1  27
TORSDOF 7
ENDMDL
