MODEL 1
REMARK VINA RESULT:     -10.3      0.000      0.000
REMARK  Name = 46944259
REMARK  8 active torsions:
REMARK  status: ('A' for Active; 'I' for Inactive)
REMARK    1  A    between atoms: C_5  and  O_22
REMARK    2  A    between atoms: C_6  and  C_11
REMARK    3  A    between atoms: C_12  and  C_15
REMARK    4  A    between atoms: N_13  and  C_18
REMARK    5  A    between atoms: C_18  and  C_19
REMARK    6  A    between atoms: C_19  and  O_20
REMARK    7  A    between atoms: O_22  and  C_23
REMARK    8  A    between atoms: C_23  and  C_28
REMARK                            x       y       z     vdW  Elec       q    Type
REMARK                         _______ _______ _______ _____ _____    ______ ____
ROOT
ATOM      1  N   UNL     1      30.002 -23.553 -15.748  0.00  0.00    -0.276 N 
ATOM      2  N   UNL     1      30.188 -22.831 -16.865  0.00  0.00    -0.173 NA
ATOM      3  C   UNL     1      32.092 -22.905 -15.595  0.00  0.00    +0.039 A 
ATOM      4  C   UNL     1      31.105 -23.637 -14.943  0.00  0.00    +0.076 A 
ATOM      5  C   UNL     1      33.600 -23.434 -13.791  0.00  0.00    +0.139 C 
ATOM      6  C   UNL     1      31.461 -22.437 -16.768  0.00  0.00    +0.102 A 
ATOM      7  C   UNL     1      33.366 -22.795 -15.014  0.00  0.00    +0.040 C 
ATOM      8  C   UNL     1      31.318 -24.282 -13.722  0.00  0.00    +0.022 C 
ATOM      9  C   UNL     1      32.592 -24.164 -13.156  0.00  0.00    +0.038 C 
ATOM     10  H   UNL     1      29.146 -23.986 -15.527  0.00  0.00    +0.189 HD
ENDROOT
BRANCH   6  11
ATOM     11  C   UNL     1      32.094 -21.634 -17.752  0.00  0.00    +0.021 C 
ATOM     12  C   UNL     1      33.351 -21.823 -18.275  0.00  0.00    +0.005 C 
BRANCH  12  15
ATOM     13  N   UNL     1      34.363 -19.630 -20.973  0.00  0.00    -0.208 N 
ATOM     14  N   UNL     1      35.600 -20.004 -20.603  0.00  0.00    -0.176 NA
ATOM     15  C   UNL     1      34.001 -20.997 -19.308  0.00  0.00    +0.037 C 
ATOM     16  C   UNL     1      33.370 -20.197 -20.229  0.00  0.00    +0.086 C 
ATOM     17  C   UNL     1      35.373 -20.839 -19.586  0.00  0.00    +0.119 C 
BRANCH  13  18
ATOM     18  C   UNL     1      34.193 -18.710 -22.071  0.00  0.00    +0.148 C 
BRANCH  18  19
ATOM     19  C   UNL     1      35.107 -17.494 -21.957  0.00  0.00    +0.161 C 
BRANCH  19  20
ATOM     20  O   UNL     1      35.205 -17.093 -20.597  0.00  0.00    -0.380 OA
ATOM     21  H   UNL     1      34.816 -16.210 -20.492  0.00  0.00    +0.211 HD
ENDBRANCH  19  20
ENDBRANCH  18  19
ENDBRANCH  13  18
ENDBRANCH  12  15
ENDBRANCH   6  11
BRANCH   5  22
ATOM     22  O   UNL     1      34.830 -23.341 -13.210  0.00  0.00    -0.475 OA
BRANCH  22  23
ATOM     23  C   UNL     1      35.395 -24.544 -12.697  0.00  0.00    +0.190 C 
ATOM     24  C   UNL     1      35.326 -24.527 -11.173  0.00  0.00    +0.052 C 
BRANCH  23  28
ATOM     25 CL   UNL     1      37.521 -22.688 -11.472  0.00  0.00    -0.081 Cl
ATOM     26 CL   UNL     1      35.930 -26.660 -14.864  0.00  0.00    -0.081 Cl
ATOM     27  N   UNL     1      39.436 -24.941 -14.128  0.00  0.00    -0.241 NA
ATOM     28  C   UNL     1      36.813 -24.683 -13.199  0.00  0.00    +0.041 C 
ATOM     29  C   UNL     1      37.818 -23.873 -12.684  0.00  0.00    +0.077 C 
ATOM     30  C   UNL     1      37.117 -25.623 -14.177  0.00  0.00    +0.077 C 
ATOM     31  C   UNL     1      39.102 -24.039 -13.177  0.00  0.00    +0.110 C 
ATOM     32  C   UNL     1      38.432 -25.712 -14.604  0.00  0.00    +0.110 C 
ENDBRANCH  23  28
ENDBRANCH  22  23
ENDBRANCH   5  22
TORSDOF 8
ENDMDL
MODEL 2
REMARK VINA RESULT:     -10.2      0.131      1.655
REMARK  Name = 46944259
REMARK  8 active torsions:
REMARK  status: ('A' for Active; 'I' for Inactive)
REMARK    1  A    between atoms: C_5  and  O_22
REMARK    2  A    between atoms: C_6  and  C_11
REMARK    3  A    between atoms: C_12  and  C_15
REMARK    4  A    between atoms: N_13  and  C_18
REMARK    5  A    between atoms: C_18  and  C_19
REMARK    6  A    between atoms: C_19  and  O_20
REMARK    7  A    between atoms: O_22  and  C_23
REMARK    8  A    between atoms: C_23  and  C_28
REMARK                            x       y       z     vdW  Elec       q    Type
REMARK                         _______ _______ _______ _____ _____    ______ ____
ROOT
ATOM      1  N   UNL     1      29.986 -23.619 -15.800  0.00  0.00    -0.276 N 
ATOM      2  N   UNL     1      30.180 -22.888 -16.910  0.00  0.00    -0.173 NA
ATOM      3  C   UNL     1      32.056 -22.924 -15.598  0.00  0.00    +0.039 A 
ATOM      4  C   UNL     1      31.073 -23.681 -14.971  0.00  0.00    +0.076 A 
ATOM      5  C   UNL     1      33.536 -23.425 -13.764  0.00  0.00    +0.139 C 
ATOM      6  C   UNL     1      31.441 -22.466 -16.783  0.00  0.00    +0.102 A 
ATOM      7  C   UNL     1      33.314 -22.787 -14.989  0.00  0.00    +0.040 C 
ATOM      8  C   UNL     1      31.274 -24.326 -13.748  0.00  0.00    +0.022 C 
ATOM      9  C   UNL     1      32.533 -24.181 -13.154  0.00  0.00    +0.038 C 
ATOM     10  H   UNL     1      29.135 -24.073 -15.599  0.00  0.00    +0.189 HD
ENDROOT
BRANCH   6  11
ATOM     11  C   UNL     1      32.077 -21.643 -17.750  0.00  0.00    +0.021 C 
ATOM     12  C   UNL     1      33.315 -21.850 -18.309  0.00  0.00    +0.005 C 
BRANCH  12  15
ATOM     13  N   UNL     1      34.332 -19.615 -20.970  0.00  0.00    -0.208 N 
ATOM     14  N   UNL     1      35.569 -19.975 -20.587  0.00  0.00    -0.176 NA
ATOM     15  C   UNL     1      33.967 -21.004 -19.325  0.00  0.00    +0.037 C 
ATOM     16  C   UNL     1      33.337 -20.204 -20.247  0.00  0.00    +0.086 C 
ATOM     17  C   UNL     1      35.340 -20.823 -19.581  0.00  0.00    +0.119 C 
BRANCH  13  18
ATOM     18  C   UNL     1      34.163 -18.686 -22.062  0.00  0.00    +0.148 C 
BRANCH  18  19
ATOM     19  C   UNL     1      35.059 -17.459 -21.924  0.00  0.00    +0.161 C 
BRANCH  19  20
ATOM     20  O   UNL     1      35.121 -17.061 -20.560  0.00  0.00    -0.380 OA
ATOM     21  H   UNL     1      35.795 -17.585 -20.101  0.00  0.00    +0.211 HD
ENDBRANCH  19  20
ENDBRANCH  18  19
ENDBRANCH  13  18
ENDBRANCH  12  15
ENDBRANCH   6  11
BRANCH   5  22
ATOM     22  O   UNL     1      34.752 -23.306 -13.156  0.00  0.00    -0.475 OA
BRANCH  22  23
ATOM     23  C   UNL     1      35.356 -24.505 -12.678  0.00  0.00    +0.190 C 
ATOM     24  C   UNL     1      35.243 -24.559 -11.158  0.00  0.00    +0.052 C 
BRANCH  23  28
ATOM     25 CL   UNL     1      36.071 -26.588 -14.827  0.00  0.00    -0.081 Cl
ATOM     26 CL   UNL     1      37.334 -22.527 -11.402  0.00  0.00    -0.081 Cl
ATOM     27  N   UNL     1      39.448 -24.660 -14.004  0.00  0.00    -0.241 NA
ATOM     28  C   UNL     1      36.791 -24.560 -13.143  0.00  0.00    +0.041 C 
ATOM     29  C   UNL     1      37.176 -25.480 -14.112  0.00  0.00    +0.077 C 
ATOM     30  C   UNL     1      37.732 -23.690 -12.604  0.00  0.00    +0.077 C 
ATOM     31  C   UNL     1      38.505 -25.490 -14.505  0.00  0.00    +0.110 C 
ATOM     32  C   UNL     1      39.036 -23.780 -13.064  0.00  0.00    +0.110 C 
ENDBRANCH  23  28
ENDBRANCH  22  23
ENDBRANCH   5  22
TORSDOF 8
ENDMDL
MODEL 3
REMARK VINA RESULT:     -10.1      5.172      9.633
REMARK  Name = 46944259
REMARK  8 active torsions:
REMARK  status: ('A' for Active; 'I' for Inactive)
REMARK    1  A    between atoms: C_5  and  O_22
REMARK    2  A    between atoms: C_6  and  C_11
REMARK    3  A    between atoms: C_12  and  C_15
REMARK    4  A    between atoms: N_13  and  C_18
REMARK    5  A    between atoms: C_18  and  C_19
REMARK    6  A    between atoms: C_19  and  O_20
REMARK    7  A    between atoms: O_22  and  C_23
REMARK    8  A    between atoms: C_23  and  C_28
REMARK                            x       y       z     vdW  Elec       q    Type
REMARK                         _______ _______ _______ _____ _____    ______ ____
ROOT
ATOM      1  N   UNL     1      35.184 -22.492 -17.047  0.00  0.00    -0.276 N 
ATOM      2  N   UNL     1      34.000 -22.879 -16.544  0.00  0.00    -0.173 NA
ATOM      3  C   UNL     1      33.727 -21.493 -18.346  0.00  0.00    +0.039 A 
ATOM      4  C   UNL     1      35.090 -21.660 -18.129  0.00  0.00    +0.076 A 
ATOM      5  C   UNL     1      34.255 -20.060 -20.211  0.00  0.00    +0.139 C 
ATOM      6  C   UNL     1      33.116 -22.268 -17.337  0.00  0.00    +0.102 A 
ATOM      7  C   UNL     1      33.292 -20.678 -19.404  0.00  0.00    +0.040 C 
ATOM      8  C   UNL     1      36.067 -21.053 -18.922  0.00  0.00    +0.022 C 
ATOM      9  C   UNL     1      35.619 -20.245 -19.973  0.00  0.00    +0.038 C 
ATOM     10  H   UNL     1      36.046 -22.783 -16.670  0.00  0.00    +0.189 HD
ENDROOT
BRANCH   6  11
ATOM     11  C   UNL     1      31.713 -22.397 -17.166  0.00  0.00    +0.021 C 
ATOM     12  C   UNL     1      31.062 -22.765 -16.012  0.00  0.00    +0.005 C 
BRANCH  12  15
ATOM     13  N   UNL     1      27.457 -22.482 -15.826  0.00  0.00    -0.208 N 
ATOM     14  N   UNL     1      27.546 -23.706 -15.277  0.00  0.00    -0.176 NA
ATOM     15  C   UNL     1      29.604 -22.883 -15.831  0.00  0.00    +0.037 C 
ATOM     16  C   UNL     1      28.661 -21.945 -16.175  0.00  0.00    +0.086 C 
ATOM     17  C   UNL     1      28.860 -23.945 -15.283  0.00  0.00    +0.119 C 
BRANCH  13  18
ATOM     18  C   UNL     1      26.162 -21.865 -15.991  0.00  0.00    +0.148 C 
BRANCH  18  19
ATOM     19  C   UNL     1      25.924 -21.389 -17.421  0.00  0.00    +0.161 C 
BRANCH  19  20
ATOM     20  O   UNL     1      25.570 -20.012 -17.415  0.00  0.00    -0.380 OA
ATOM     21  H   UNL     1      25.477 -19.706 -16.499  0.00  0.00    +0.211 HD
ENDBRANCH  19  20
ENDBRANCH  18  19
ENDBRANCH  13  18
ENDBRANCH  12  15
ENDBRANCH   6  11
BRANCH   5  22
ATOM     22  O   UNL     1      33.854 -19.266 -21.244  0.00  0.00    -0.475 OA
BRANCH  22  23
ATOM     23  C   UNL     1      34.877 -18.708 -22.065  0.00  0.00    +0.190 C 
ATOM     24  C   UNL     1      35.921 -18.030 -21.184  0.00  0.00    +0.052 C 
BRANCH  23  28
ATOM     25 CL   UNL     1      34.580 -15.773 -21.190  0.00  0.00    -0.081 Cl
ATOM     26 CL   UNL     1      34.009 -19.840 -24.790  0.00  0.00    -0.081 Cl
ATOM     27  N   UNL     1      33.109 -15.971 -24.877  0.00  0.00    -0.241 NA
ATOM     28  C   UNL     1      34.257 -17.748 -23.051  0.00  0.00    +0.041 C 
ATOM     29  C   UNL     1      34.095 -16.409 -22.714  0.00  0.00    +0.077 C 
ATOM     30  C   UNL     1      33.845 -18.200 -24.300  0.00  0.00    +0.077 C 
ATOM     31  C   UNL     1      33.521 -15.568 -23.654  0.00  0.00    +0.110 C 
ATOM     32  C   UNL     1      33.282 -17.279 -25.169  0.00  0.00    +0.110 C 
ENDBRANCH  23  28
ENDBRANCH  22  23
ENDBRANCH   5  22
TORSDOF 8
ENDMDL
MODEL 4
REMARK VINA RESULT:      -9.5      4.044      9.860
REMARK  Name = 46944259
REMARK  8 active torsions:
REMARK  status: ('A' for Active; 'I' for Inactive)
REMARK    1  A    between atoms: C_5  and  O_22
REMARK    2  A    between atoms: C_6  and  C_11
REMARK    3  A    between atoms: C_12  and  C_15
REMARK    4  A    between atoms: N_13  and  C_18
REMARK    5  A    between atoms: C_18  and  C_19
REMARK    6  A    between atoms: C_19  and  O_20
REMARK    7  A    between atoms: O_22  and  C_23
REMARK    8  A    between atoms: C_23  and  C_28
REMARK                            x       y       z     vdW  Elec       q    Type
REMARK                         _______ _______ _______ _____ _____    ______ ____
ROOT
ATOM      1  N   UNL     1      31.660 -21.826 -17.860  0.00  0.00    -0.276 N 
ATOM      2  N   UNL     1      32.575 -22.409 -17.068  0.00  0.00    -0.173 NA
ATOM      3  C   UNL     1      33.567 -21.284 -18.797  0.00  0.00    +0.039 A 
ATOM      4  C   UNL     1      32.189 -21.135 -18.916  0.00  0.00    +0.076 A 
ATOM      5  C   UNL     1      33.826 -19.945 -20.785  0.00  0.00    +0.139 C 
ATOM      6  C   UNL     1      33.735 -22.077 -17.642  0.00  0.00    +0.102 A 
ATOM      7  C   UNL     1      34.408 -20.681 -19.747  0.00  0.00    +0.040 C 
ATOM      8  C   UNL     1      31.588 -20.405 -19.943  0.00  0.00    +0.022 C 
ATOM      9  C   UNL     1      32.439 -19.810 -20.881  0.00  0.00    +0.038 C 
ATOM     10  H   UNL     1      30.691 -21.890 -17.694  0.00  0.00    +0.189 HD
ENDROOT
BRANCH   6  11
ATOM     11  C   UNL     1      34.992 -22.490 -17.130  0.00  0.00    +0.021 C 
ATOM     12  C   UNL     1      35.263 -22.862 -15.835  0.00  0.00    +0.005 C 
BRANCH  12  15
ATOM     13  N   UNL     1      38.142 -24.440 -14.307  0.00  0.00    -0.208 N 
ATOM     14  N   UNL     1      38.797 -23.385 -14.823  0.00  0.00    -0.176 NA
ATOM     15  C   UNL     1      36.566 -23.306 -15.308  0.00  0.00    +0.037 C 
ATOM     16  C   UNL     1      36.804 -24.440 -14.568  0.00  0.00    +0.086 C 
ATOM     17  C   UNL     1      37.829 -22.697 -15.433  0.00  0.00    +0.119 C 
BRANCH  13  18
ATOM     18  C   UNL     1      38.868 -25.434 -13.554  0.00  0.00    +0.148 C 
BRANCH  18  19
ATOM     19  C   UNL     1      40.202 -25.792 -14.201  0.00  0.00    +0.161 C 
BRANCH  19  20
ATOM     20  O   UNL     1      40.081 -25.729 -15.617  0.00  0.00    -0.380 OA
ATOM     21  H   UNL     1      39.970 -26.625 -15.971  0.00  0.00    +0.211 HD
ENDBRANCH  19  20
ENDBRANCH  18  19
ENDBRANCH  13  18
ENDBRANCH  12  15
ENDBRANCH   6  11
BRANCH   5  22
ATOM     22  O   UNL     1      34.625 -19.352 -21.717  0.00  0.00    -0.475 OA
BRANCH  22  23
ATOM     23  C   UNL     1      34.077 -19.175 -23.021  0.00  0.00    +0.190 C 
ATOM     24  C   UNL     1      34.914 -19.950 -24.033  0.00  0.00    +0.052 C 
BRANCH  23  28
ATOM     25 CL   UNL     1      32.129 -18.279 -25.228  0.00  0.00    -0.081 Cl
ATOM     26 CL   UNL     1      35.918 -17.304 -21.418  0.00  0.00    -0.081 Cl
ATOM     27  N   UNL     1      33.915 -14.971 -23.935  0.00  0.00    -0.241 NA
ATOM     28  C   UNL     1      34.020 -17.700 -23.342  0.00  0.00    +0.041 C 
ATOM     29  C   UNL     1      33.160 -17.234 -24.330  0.00  0.00    +0.077 C 
ATOM     30  C   UNL     1      34.828 -16.804 -22.650  0.00  0.00    +0.077 C 
ATOM     31  C   UNL     1      33.145 -15.872 -24.586  0.00  0.00    +0.110 C 
ATOM     32  C   UNL     1      34.738 -15.462 -22.982  0.00  0.00    +0.110 C 
ENDBRANCH  23  28
ENDBRANCH  22  23
ENDBRANCH   5  22
TORSDOF 8
ENDMDL
MODEL 5
REMARK VINA RESULT:      -9.5     12.194     17.620
REMARK  Name = 46944259
REMARK  8 active torsions:
REMARK  status: ('A' for Active; 'I' for Inactive)
REMARK    1  A    between atoms: C_5  and  O_22
REMARK    2  A    between atoms: C_6  and  C_11
REMARK    3  A    between atoms: C_12  and  C_15
REMARK    4  A    between atoms: N_13  and  C_18
REMARK    5  A    between atoms: C_18  and  C_19
REMARK    6  A    between atoms: C_19  and  O_20
REMARK    7  A    between atoms: O_22  and  C_23
REMARK    8  A    between atoms: C_23  and  C_28
REMARK                            x       y       z     vdW  Elec       q    Type
REMARK                         _______ _______ _______ _____ _____    ______ ____
ROOT
ATOM      1  N   UNL     1      31.215  -9.769 -19.489  0.00  0.00    -0.276 N 
ATOM      2  N   UNL     1      31.287 -11.013 -19.991  0.00  0.00    -0.173 NA
ATOM      3  C   UNL     1      31.717  -9.441 -21.598  0.00  0.00    +0.039 A 
ATOM      4  C   UNL     1      31.463  -8.780 -20.402  0.00  0.00    +0.076 A 
ATOM      5  C   UNL     1      32.041  -7.296 -22.650  0.00  0.00    +0.139 C 
ATOM      6  C   UNL     1      31.592 -10.809 -21.275  0.00  0.00    +0.102 A 
ATOM      7  C   UNL     1      32.011  -8.692 -22.750  0.00  0.00    +0.040 C 
ATOM      8  C   UNL     1      31.487  -7.388 -20.281  0.00  0.00    +0.022 C 
ATOM      9  C   UNL     1      31.782  -6.656 -21.436  0.00  0.00    +0.038 C 
ATOM     10  H   UNL     1      31.002  -9.584 -18.545  0.00  0.00    +0.189 HD
ENDROOT
BRANCH   6  11
ATOM     11  C   UNL     1      31.767 -11.870 -22.201  0.00  0.00    +0.021 C 
ATOM     12  C   UNL     1      32.965 -12.414 -22.601  0.00  0.00    +0.005 C 
BRANCH  12  15
ATOM     13  N   UNL     1      33.660 -15.452 -24.444  0.00  0.00    -0.208 N 
ATOM     14  N   UNL     1      33.110 -14.772 -25.465  0.00  0.00    -0.176 NA
ATOM     15  C   UNL     1      33.145 -13.527 -23.550  0.00  0.00    +0.037 C 
ATOM     16  C   UNL     1      33.705 -14.751 -23.275  0.00  0.00    +0.086 C 
ATOM     17  C   UNL     1      32.797 -13.597 -24.913  0.00  0.00    +0.119 C 
BRANCH  13  18
ATOM     18  C   UNL     1      34.138 -16.798 -24.656  0.00  0.00    +0.148 C 
BRANCH  18  19
ATOM     19  C   UNL     1      33.031 -17.837 -24.505  0.00  0.00    +0.161 C 
BRANCH  19  20
ATOM     20  O   UNL     1      31.908 -17.460 -25.292  0.00  0.00    -0.380 OA
ATOM     21  H   UNL     1      31.919 -16.499 -25.430  0.00  0.00    +0.211 HD
ENDBRANCH  19  20
ENDBRANCH  18  19
ENDBRANCH  13  18
ENDBRANCH  12  15
ENDBRANCH   6  11
BRANCH   5  22
ATOM     22  O   UNL     1      32.325  -6.551 -23.756  0.00  0.00    -0.475 OA
BRANCH  22  23
ATOM     23  C   UNL     1      31.234  -5.881 -24.382  0.00  0.00    +0.190 C 
ATOM     24  C   UNL     1      30.681  -6.752 -25.505  0.00  0.00    +0.052 C 
BRANCH  23  28
ATOM     25 CL   UNL     1      32.891  -5.829 -26.974  0.00  0.00    -0.081 Cl
ATOM     26 CL   UNL     1      30.449  -3.406 -22.733  0.00  0.00    -0.081 Cl
ATOM     27  N   UNL     1      32.555  -2.042 -25.814  0.00  0.00    -0.241 NA
ATOM     28  C   UNL     1      31.698  -4.534 -24.884  0.00  0.00    +0.041 C 
ATOM     29  C   UNL     1      32.450  -4.446 -26.050  0.00  0.00    +0.077 C 
ATOM     30  C   UNL     1      31.373  -3.379 -24.182  0.00  0.00    +0.077 C 
ATOM     31  C   UNL     1      32.851  -3.187 -26.469  0.00  0.00    +0.110 C 
ATOM     32  C   UNL     1      31.822  -2.168 -24.685  0.00  0.00    +0.110 C 
ENDBRANCH  23  28
ENDBRANCH  22  23
ENDBRANCH   5  22
TORSDOF 8
ENDMDL
MODEL 6
REMARK VINA RESULT:      -9.5      1.974      2.360
REMARK  Name = 46944259
REMARK  8 active torsions:
REMARK  status: ('A' for Active; 'I' for Inactive)
REMARK    1  A    between atoms: C_5  and  O_22
REMARK    2  A    between atoms: C_6  and  C_11
REMARK    3  A    between atoms: C_12  and  C_15
REMARK    4  A    between atoms: N_13  and  C_18
REMARK    5  A    between atoms: C_18  and  C_19
REMARK    6  A    between atoms: C_19  and  O_20
REMARK    7  A    between atoms: O_22  and  C_23
REMARK    8  A    between atoms: C_23  and  C_28
REMARK                            x       y       z     vdW  Elec       q    Type
REMARK                         _______ _______ _______ _____ _____    ______ ____
ROOT
ATOM      1  N   UNL     1      30.406 -22.504 -16.542  0.00  0.00    -0.276 N 
ATOM      2  N   UNL     1      30.414 -21.715 -17.628  0.00  0.00    -0.173 NA
ATOM      3  C   UNL     1      32.537 -22.327 -17.027  0.00  0.00    +0.039 A 
ATOM      4  C   UNL     1      31.647 -22.907 -16.130  0.00  0.00    +0.076 A 
ATOM      5  C   UNL     1      34.347 -23.359 -15.816  0.00  0.00    +0.139 C 
ATOM      6  C   UNL     1      31.713 -21.608 -17.920  0.00  0.00    +0.102 A 
ATOM      7  C   UNL     1      33.915 -22.551 -16.874  0.00  0.00    +0.040 C 
ATOM      8  C   UNL     1      32.057 -23.716 -15.067  0.00  0.00    +0.022 C 
ATOM      9  C   UNL     1      33.433 -23.930 -14.928  0.00  0.00    +0.038 C 
ATOM     10  H   UNL     1      29.578 -22.772 -16.081  0.00  0.00    +0.189 HD
ENDROOT
BRANCH   6  11
ATOM     11  C   UNL     1      32.194 -20.848 -19.018  0.00  0.00    +0.021 C 
ATOM     12  C   UNL     1      33.511 -20.661 -19.367  0.00  0.00    +0.005 C 
BRANCH  12  15
ATOM     13  N   UNL     1      34.144 -18.797 -22.406  0.00  0.00    -0.208 N 
ATOM     14  N   UNL     1      35.393 -18.723 -21.914  0.00  0.00    -0.176 NA
ATOM     15  C   UNL     1      34.008 -19.885 -20.517  0.00  0.00    +0.037 C 
ATOM     16  C   UNL     1      33.277 -19.483 -21.608  0.00  0.00    +0.086 C 
ATOM     17  C   UNL     1      35.304 -19.389 -20.760  0.00  0.00    +0.119 C 
BRANCH  13  18
ATOM     18  C   UNL     1      33.838 -18.181 -23.675  0.00  0.00    +0.148 C 
BRANCH  18  19
ATOM     19  C   UNL     1      34.268 -16.719 -23.729  0.00  0.00    +0.161 C 
BRANCH  19  20
ATOM     20  O   UNL     1      34.051 -16.202 -25.036  0.00  0.00    -0.380 OA
ATOM     21  H   UNL     1      33.117 -16.313 -25.276  0.00  0.00    +0.211 HD
ENDBRANCH  19  20
ENDBRANCH  18  19
ENDBRANCH  13  18
ENDBRANCH  12  15
ENDBRANCH   6  11
BRANCH   5  22
ATOM     22  O   UNL     1      35.680 -23.590 -15.649  0.00  0.00    -0.475 OA
BRANCH  22  23
ATOM     23  C   UNL     1      36.346 -22.835 -14.641  0.00  0.00    +0.190 C 
ATOM     24  C   UNL     1      37.447 -21.994 -15.280  0.00  0.00    +0.052 C 
BRANCH  23  28
ATOM     25 CL   UNL     1      34.745 -23.112 -12.028  0.00  0.00    -0.081 Cl
ATOM     26 CL   UNL     1      38.963 -24.320 -15.280  0.00  0.00    -0.081 Cl
ATOM     27  N   UNL     1      37.889 -25.514 -11.645  0.00  0.00    -0.241 NA
ATOM     28  C   UNL     1      36.888 -23.774 -13.590  0.00  0.00    +0.041 C 
ATOM     29  C   UNL     1      36.209 -23.942 -12.388  0.00  0.00    +0.077 C 
ATOM     30  C   UNL     1      38.066 -24.475 -13.821  0.00  0.00    +0.077 C 
ATOM     31  C   UNL     1      36.746 -24.816 -11.456  0.00  0.00    +0.110 C 
ATOM     32  C   UNL     1      38.520 -25.325 -12.826  0.00  0.00    +0.110 C 
ENDBRANCH  23  28
ENDBRANCH  22  23
ENDBRANCH   5  22
TORSDOF 8
ENDMDL
MODEL 7
REMARK VINA RESULT:      -9.5     12.199     17.604
REMARK  Name = 46944259
REMARK  8 active torsions:
REMARK  status: ('A' for Active; 'I' for Inactive)
REMARK    1  A    between atoms: C_5  and  O_22
REMARK    2  A    between atoms: C_6  and  C_11
REMARK    3  A    between atoms: C_12  and  C_15
REMARK    4  A    between atoms: N_13  and  C_18
REMARK    5  A    between atoms: C_18  and  C_19
REMARK    6  A    between atoms: C_19  and  O_20
REMARK    7  A    between atoms: O_22  and  C_23
REMARK    8  A    between atoms: C_23  and  C_28
REMARK                            x       y       z     vdW  Elec       q    Type
REMARK                         _______ _______ _______ _____ _____    ______ ____
ROOT
ATOM      1  N   UNL     1      31.186  -9.641 -19.425  0.00  0.00    -0.276 N 
ATOM      2  N   UNL     1      31.248 -10.893 -19.907  0.00  0.00    -0.173 NA
ATOM      3  C   UNL     1      31.720  -9.352 -21.532  0.00  0.00    +0.039 A 
ATOM      4  C   UNL     1      31.459  -8.669 -20.349  0.00  0.00    +0.076 A 
ATOM      5  C   UNL     1      32.085  -7.228 -22.612  0.00  0.00    +0.139 C 
ATOM      6  C   UNL     1      31.573 -10.713 -21.190  0.00  0.00    +0.102 A 
ATOM      7  C   UNL     1      32.039  -8.624 -22.691  0.00  0.00    +0.040 C 
ATOM      8  C   UNL     1      31.499  -7.276 -20.249  0.00  0.00    +0.022 C 
ATOM      9  C   UNL     1      31.819  -6.566 -21.411  0.00  0.00    +0.038 C 
ATOM     10  H   UNL     1      30.963  -9.439 -18.487  0.00  0.00    +0.189 HD
ENDROOT
BRANCH   6  11
ATOM     11  C   UNL     1      31.746 -11.790 -22.098  0.00  0.00    +0.021 C 
ATOM     12  C   UNL     1      32.937 -12.225 -22.631  0.00  0.00    +0.005 C 
BRANCH  12  15
ATOM     13  N   UNL     1      33.643 -15.291 -24.422  0.00  0.00    -0.208 N 
ATOM     14  N   UNL     1      33.076 -14.636 -25.450  0.00  0.00    -0.176 NA
ATOM     15  C   UNL     1      33.118 -13.354 -23.560  0.00  0.00    +0.037 C 
ATOM     16  C   UNL     1      33.693 -14.567 -23.268  0.00  0.00    +0.086 C 
ATOM     17  C   UNL     1      32.757 -13.454 -24.917  0.00  0.00    +0.119 C 
BRANCH  13  18
ATOM     18  C   UNL     1      34.131 -16.635 -24.613  0.00  0.00    +0.148 C 
BRANCH  18  19
ATOM     19  C   UNL     1      33.042 -17.683 -24.406  0.00  0.00    +0.161 C 
BRANCH  19  20
ATOM     20  O   UNL     1      31.922 -17.380 -25.227  0.00  0.00    -0.380 OA
ATOM     21  H   UNL     1      31.625 -18.186 -25.678  0.00  0.00    +0.211 HD
ENDBRANCH  19  20
ENDBRANCH  18  19
ENDBRANCH  13  18
ENDBRANCH  12  15
ENDBRANCH   6  11
BRANCH   5  22
ATOM     22  O   UNL     1      32.393  -6.503 -23.725  0.00  0.00    -0.475 OA
BRANCH  22  23
ATOM     23  C   UNL     1      31.313  -5.859 -24.396  0.00  0.00    +0.190 C 
ATOM     24  C   UNL     1      30.809  -6.755 -25.523  0.00  0.00    +0.052 C 
BRANCH  23  28
ATOM     25 CL   UNL     1      30.496  -3.375 -22.774  0.00  0.00    -0.081 Cl
ATOM     26 CL   UNL     1      32.994  -5.816 -26.972  0.00  0.00    -0.081 Cl
ATOM     27  N   UNL     1      32.627  -2.024 -25.845  0.00  0.00    -0.241 NA
ATOM     28  C   UNL     1      31.774  -4.513 -24.905  0.00  0.00    +0.041 C 
ATOM     29  C   UNL     1      31.436  -3.354 -24.215  0.00  0.00    +0.077 C 
ATOM     30  C   UNL     1      32.538  -4.430 -26.063  0.00  0.00    +0.077 C 
ATOM     31  C   UNL     1      31.884  -2.144 -24.722  0.00  0.00    +0.110 C 
ATOM     32  C   UNL     1      32.936  -3.172 -26.488  0.00  0.00    +0.110 C 
ENDBRANCH  23  28
ENDBRANCH  22  23
ENDBRANCH   5  22
TORSDOF 8
ENDMDL
MODEL 8
REMARK VINA RESULT:      -9.2     11.062     15.896
REMARK  Name = 46944259
REMARK  8 active torsions:
REMARK  status: ('A' for Active; 'I' for Inactive)
REMARK    1  A    between atoms: C_5  and  O_22
REMARK    2  A    between atoms: C_6  and  C_11
REMARK    3  A    between atoms: C_12  and  C_15
REMARK    4  A    between atoms: N_13  and  C_18
REMARK    5  A    between atoms: C_18  and  C_19
REMARK    6  A    between atoms: C_19  and  O_20
REMARK    7  A    between atoms: O_22  and  C_23
REMARK    8  A    between atoms: C_23  and  C_28
REMARK                            x       y       z     vdW  Elec       q    Type
REMARK                         _______ _______ _______ _____ _____    ______ ____
ROOT
ATOM      1  N   UNL     1      31.231  -7.564 -19.120  0.00  0.00    -0.276 N 
ATOM      2  N   UNL     1      31.355  -6.481 -19.904  0.00  0.00    -0.173 NA
ATOM      3  C   UNL     1      31.582  -8.411 -21.113  0.00  0.00    +0.039 A 
ATOM      4  C   UNL     1      31.358  -8.755 -19.784  0.00  0.00    +0.076 A 
ATOM      5  C   UNL     1      31.696 -10.760 -21.642  0.00  0.00    +0.139 C 
ATOM      6  C   UNL     1      31.569  -7.000 -21.116  0.00  0.00    +0.102 A 
ATOM      7  C   UNL     1      31.757  -9.428 -22.066  0.00  0.00    +0.040 C 
ATOM      8  C   UNL     1      31.294 -10.078 -19.340  0.00  0.00    +0.022 C 
ATOM      9  C   UNL     1      31.469 -11.078 -20.302  0.00  0.00    +0.038 C 
ATOM     10  H   UNL     1      31.064  -7.508 -18.151  0.00  0.00    +0.189 HD
ENDROOT
BRANCH   6  11
ATOM     11  C   UNL     1      31.760  -6.200 -22.272  0.00  0.00    +0.021 C 
ATOM     12  C   UNL     1      32.910  -5.531 -22.621  0.00  0.00    +0.005 C 
BRANCH  12  15
ATOM     13  N   UNL     1      33.959  -3.823 -25.635  0.00  0.00    -0.208 N 
ATOM     14  N   UNL     1      32.771  -3.207 -25.512  0.00  0.00    -0.176 NA
ATOM     15  C   UNL     1      33.113  -4.715 -23.830  0.00  0.00    +0.037 C 
ATOM     16  C   UNL     1      34.212  -4.734 -24.653  0.00  0.00    +0.086 C 
ATOM     17  C   UNL     1      32.258  -3.756 -24.408  0.00  0.00    +0.119 C 
BRANCH  13  18
ATOM     18  C   UNL     1      34.829  -3.485 -26.737  0.00  0.00    +0.148 C 
BRANCH  18  19
ATOM     19  C   UNL     1      34.597  -4.376 -27.953  0.00  0.00    +0.161 C 
BRANCH  19  20
ATOM     20  O   UNL     1      33.235  -4.783 -27.998  0.00  0.00    -0.380 OA
ATOM     21  H   UNL     1      33.158  -5.689 -27.658  0.00  0.00    +0.211 HD
ENDBRANCH  19  20
ENDBRANCH  18  19
ENDBRANCH  13  18
ENDBRANCH  12  15
ENDBRANCH   6  11
BRANCH   5  22
ATOM     22  O   UNL     1      31.863 -11.762 -22.553  0.00  0.00    -0.475 OA
BRANCH  22  23
ATOM     23  C   UNL     1      33.181 -11.965 -23.056  0.00  0.00    +0.190 C 
ATOM     24  C   UNL     1      33.354 -11.183 -24.354  0.00  0.00    +0.052 C 
BRANCH  23  28
ATOM     25 CL   UNL     1      32.623 -13.138 -25.845  0.00  0.00    -0.081 Cl
ATOM     26 CL   UNL     1      34.183 -13.567 -20.629  0.00  0.00    -0.081 Cl
ATOM     27  N   UNL     1      33.859 -16.181 -23.605  0.00  0.00    -0.241 NA
ATOM     28  C   UNL     1      33.418 -13.444 -23.248  0.00  0.00    +0.041 C 
ATOM     29  C   UNL     1      33.184 -14.033 -24.486  0.00  0.00    +0.077 C 
ATOM     30  C   UNL     1      33.872 -14.221 -22.189  0.00  0.00    +0.077 C 
ATOM     31  C   UNL     1      33.418 -15.393 -24.612  0.00  0.00    +0.110 C 
ATOM     32  C   UNL     1      34.075 -15.572 -22.417  0.00  0.00    +0.110 C 
ENDBRANCH  23  28
ENDBRANCH  22  23
ENDBRANCH   5  22
TORSDOF 8
ENDMDL
MODEL 9
REMARK VINA RESULT:      -9.1     11.094     15.877
REMARK  Name = 46944259
REMARK  8 active torsions:
REMARK  status: ('A' for Active; 'I' for Inactive)
REMARK    1  A    between atoms: C_5  and  O_22
REMARK    2  A    between atoms: C_6  and  C_11
REMARK    3  A    between atoms: C_12  and  C_15
REMARK    4  A    between atoms: N_13  and  C_18
REMARK    5  A    between atoms: C_18  and  C_19
REMARK    6  A    between atoms: C_19  and  O_20
REMARK    7  A    between atoms: O_22  and  C_23
REMARK    8  A    between atoms: C_23  and  C_28
REMARK                            x       y       z     vdW  Elec       q    Type
REMARK                         _______ _______ _______ _____ _____    ______ ____
ROOT
ATOM      1  N   UNL     1      31.202  -7.545 -19.127  0.00  0.00    -0.276 N 
ATOM      2  N   UNL     1      31.337  -6.461 -19.908  0.00  0.00    -0.173 NA
ATOM      3  C   UNL     1      31.575  -8.391 -21.115  0.00  0.00    +0.039 A 
ATOM      4  C   UNL     1      31.334  -8.735 -19.789  0.00  0.00    +0.076 A 
ATOM      5  C   UNL     1      31.692 -10.740 -21.644  0.00  0.00    +0.139 C 
ATOM      6  C   UNL     1      31.564  -6.980 -21.117  0.00  0.00    +0.102 A 
ATOM      7  C   UNL     1      31.760  -9.407 -22.067  0.00  0.00    +0.040 C 
ATOM      8  C   UNL     1      31.263 -10.058 -19.346  0.00  0.00    +0.022 C 
ATOM      9  C   UNL     1      31.448 -11.058 -20.307  0.00  0.00    +0.038 C 
ATOM     10  H   UNL     1      31.023  -7.489 -18.160  0.00  0.00    +0.189 HD
ENDROOT
BRANCH   6  11
ATOM     11  C   UNL     1      31.771  -6.180 -22.271  0.00  0.00    +0.021 C 
ATOM     12  C   UNL     1      32.937  -5.542 -22.624  0.00  0.00    +0.005 C 
BRANCH  12  15
ATOM     13  N   UNL     1      34.010  -3.856 -25.643  0.00  0.00    -0.208 N 
ATOM     14  N   UNL     1      32.852  -3.190 -25.495  0.00  0.00    -0.176 NA
ATOM     15  C   UNL     1      33.156  -4.725 -23.830  0.00  0.00    +0.037 C 
ATOM     16  C   UNL     1      34.240  -4.786 -24.672  0.00  0.00    +0.086 C 
ATOM     17  C   UNL     1      32.334  -3.725 -24.387  0.00  0.00    +0.119 C 
BRANCH  13  18
ATOM     18  C   UNL     1      34.875  -3.548 -26.757  0.00  0.00    +0.148 C 
BRANCH  18  19
ATOM     19  C   UNL     1      34.183  -3.744 -28.101  0.00  0.00    +0.161 C 
BRANCH  19  20
ATOM     20  O   UNL     1      33.448  -4.962 -28.090  0.00  0.00    -0.380 OA
ATOM     21  H   UNL     1      32.883  -5.006 -28.878  0.00  0.00    +0.211 HD
ENDBRANCH  19  20
ENDBRANCH  18  19
ENDBRANCH  13  18
ENDBRANCH  12  15
ENDBRANCH   6  11
BRANCH   5  22
ATOM     22  O   UNL     1      31.868 -11.741 -22.553  0.00  0.00    -0.475 OA
BRANCH  22  23
ATOM     23  C   UNL     1      33.193 -11.952 -23.035  0.00  0.00    +0.190 C 
ATOM     24  C   UNL     1      33.409 -11.128 -24.300  0.00  0.00    +0.052 C 
BRANCH  23  28
ATOM     25 CL   UNL     1      34.149 -13.649 -20.653  0.00  0.00    -0.081 Cl
ATOM     26 CL   UNL     1      32.641 -13.023 -25.864  0.00  0.00    -0.081 Cl
ATOM     27  N   UNL     1      33.805 -16.158 -23.718  0.00  0.00    -0.241 NA
ATOM     28  C   UNL     1      33.408 -13.427 -23.274  0.00  0.00    +0.041 C 
ATOM     29  C   UNL     1      33.840 -14.247 -22.237  0.00  0.00    +0.077 C 
ATOM     30  C   UNL     1      33.174 -13.970 -24.532  0.00  0.00    +0.077 C 
ATOM     31  C   UNL     1      34.021 -15.593 -22.508  0.00  0.00    +0.110 C 
ATOM     32  C   UNL     1      33.386 -15.329 -24.700  0.00  0.00    +0.110 C 
ENDBRANCH  23  28
ENDBRANCH  22  23
ENDBRANCH   5  22
TORSDOF 8
ENDMDL
