MODEL 1
REMARK VINA RESULT:     -11.2      0.000      0.000
REMARK  Name = 83975
REMARK  5 active torsions:
REMARK  status: ('A' for Active; 'I' for Inactive)
REMARK    1  A    between atoms: O_1  and  C_3
REMARK    2  A    between atoms: O_1  and  C_13
REMARK    3  A    between atoms: C_3  and  C_6
REMARK    4  A    between atoms: C_5  and  C_9
REMARK    5  A    between atoms: C_13  and  N_16
REMARK                            x       y       z     vdW  Elec       q    Type
REMARK                         _______ _______ _______ _____ _____    ______ ____
ROOT
ATOM      1  O   UNL     1      34.425 -22.775 -16.864  0.00  0.00    -0.426 OA
ENDROOT
BRANCH   1   3
ATOM      2  O   UNL     1      33.058 -22.335 -15.051  0.00  0.00    -0.250 OA
ATOM      3  C   UNL     1      34.154 -22.544 -15.550  0.00  0.00    +0.318 C 
BRANCH   3   6
ATOM      4  C   UNL     1      35.403 -23.301 -13.420  0.00  0.00    +0.015 C 
ATOM      5  C   UNL     1      36.131 -23.869 -14.604  0.00  0.00    +0.032 C 
ATOM      6  C   UNL     1      35.391 -22.574 -14.727  0.00  0.00    +0.103 C 
ATOM      7  C   UNL     1      34.174 -24.013 -12.965  0.00  0.00    +0.001 C 
ATOM      8  C   UNL     1      36.178 -22.677 -12.307  0.00  0.00    +0.001 C 
BRANCH   5   9
ATOM      9  C   UNL     1      37.583 -23.841 -14.659  0.00  0.00    -0.034 C 
ATOM     10  C   UNL     1      38.438 -24.850 -14.404  0.00  0.00    -0.048 C 
ATOM     11  C   UNL     1      39.925 -24.655 -14.506  0.00  0.00    +0.026 C 
ATOM     12  C   UNL     1      38.003 -26.231 -14.001  0.00  0.00    +0.026 C 
ENDBRANCH   5   9
ENDBRANCH   3   6
ENDBRANCH   1   3
BRANCH   1  13
ATOM     13  C   UNL     1      33.367 -22.456 -17.771  0.00  0.00    +0.317 C 
BRANCH  13  16
ATOM     14  O   UNL     1      31.881 -21.007 -19.894  0.00  0.00    -0.270 OA
ATOM     15  O   UNL     1      36.139 -21.410 -18.166  0.00  0.00    -0.270 OA
ATOM     16  N   UNL     1      33.865 -21.503 -18.743  0.00  0.00    -0.184 N 
ATOM     17  C   UNL     1      33.975 -20.012 -20.447  0.00  0.00    +0.032 C 
ATOM     18  C   UNL     1      35.209 -20.134 -19.949  0.00  0.00    +0.032 C 
ATOM     19  C   UNL     1      33.605 -19.144 -21.593  0.00  0.00    +0.031 C 
ATOM     20  C   UNL     1      36.396 -19.393 -20.442  0.00  0.00    +0.031 C 
ATOM     21  C   UNL     1      34.857 -18.650 -22.336  0.00  0.00    +0.005 C 
ATOM     22  C   UNL     1      35.982 -18.242 -21.375  0.00  0.00    +0.005 C 
ATOM     23  C   UNL     1      33.077 -20.891 -19.686  0.00  0.00    +0.253 C 
ATOM     24  C   UNL     1      35.171 -21.091 -18.835  0.00  0.00    +0.253 C 
ENDBRANCH  13  16
ENDBRANCH   1  13
TORSDOF 5
ENDMDL
MODEL 2
REMARK VINA RESULT:     -11.2      0.056      1.821
REMARK  Name = 83975
REMARK  5 active torsions:
REMARK  status: ('A' for Active; 'I' for Inactive)
REMARK    1  A    between atoms: O_1  and  C_3
REMARK    2  A    between atoms: O_1  and  C_13
REMARK    3  A    between atoms: C_3  and  C_6
REMARK    4  A    between atoms: C_5  and  C_9
REMARK    5  A    between atoms: C_13  and  N_16
REMARK                            x       y       z     vdW  Elec       q    Type
REMARK                         _______ _______ _______ _____ _____    ______ ____
ROOT
ATOM      1  O   UNL     1      34.383 -22.761 -16.913  0.00  0.00    -0.426 OA
ENDROOT
BRANCH   1   3
ATOM      2  O   UNL     1      33.021 -22.349 -15.089  0.00  0.00    -0.250 OA
ATOM      3  C   UNL     1      34.116 -22.546 -15.595  0.00  0.00    +0.318 C 
BRANCH   3   6
ATOM      4  C   UNL     1      35.373 -23.295 -13.467  0.00  0.00    +0.015 C 
ATOM      5  C   UNL     1      36.091 -23.874 -14.651  0.00  0.00    +0.032 C 
ATOM      6  C   UNL     1      35.357 -22.577 -14.778  0.00  0.00    +0.103 C 
ATOM      7  C   UNL     1      34.142 -23.999 -13.001  0.00  0.00    +0.001 C 
ATOM      8  C   UNL     1      36.155 -22.668 -12.361  0.00  0.00    +0.001 C 
BRANCH   5   9
ATOM      9  C   UNL     1      37.544 -23.853 -14.712  0.00  0.00    -0.034 C 
ATOM     10  C   UNL     1      38.396 -24.857 -14.427  0.00  0.00    -0.048 C 
ATOM     11  C   UNL     1      39.883 -24.671 -14.543  0.00  0.00    +0.026 C 
ATOM     12  C   UNL     1      37.958 -26.222 -13.977  0.00  0.00    +0.026 C 
ENDBRANCH   5   9
ENDBRANCH   3   6
ENDBRANCH   1   3
BRANCH   1  13
ATOM     13  C   UNL     1      33.323 -22.431 -17.812  0.00  0.00    +0.317 C 
BRANCH  13  16
ATOM     14  O   UNL     1      36.091 -21.428 -18.189  0.00  0.00    -0.270 OA
ATOM     15  O   UNL     1      31.860 -20.963 -19.967  0.00  0.00    -0.270 OA
ATOM     16  N   UNL     1      33.822 -21.475 -18.781  0.00  0.00    -0.184 N 
ATOM     17  C   UNL     1      35.197 -20.123 -19.971  0.00  0.00    +0.032 C 
ATOM     18  C   UNL     1      33.970 -19.985 -20.482  0.00  0.00    +0.032 C 
ATOM     19  C   UNL     1      36.400 -19.397 -20.449  0.00  0.00    +0.031 C 
ATOM     20  C   UNL     1      33.625 -19.110 -21.629  0.00  0.00    +0.031 C 
ATOM     21  C   UNL     1      36.010 -18.239 -21.383  0.00  0.00    +0.005 C 
ATOM     22  C   UNL     1      34.891 -18.629 -22.359  0.00  0.00    +0.005 C 
ATOM     23  C   UNL     1      35.135 -21.083 -18.862  0.00  0.00    +0.253 C 
ATOM     24  C   UNL     1      33.053 -20.856 -19.735  0.00  0.00    +0.253 C 
ENDBRANCH  13  16
ENDBRANCH   1  13
TORSDOF 5
ENDMDL
MODEL 3
REMARK VINA RESULT:     -11.2      8.076     13.151
REMARK  Name = 83975
REMARK  5 active torsions:
REMARK  status: ('A' for Active; 'I' for Inactive)
REMARK    1  A    between atoms: O_1  and  C_3
REMARK    2  A    between atoms: O_1  and  C_13
REMARK    3  A    between atoms: C_3  and  C_6
REMARK    4  A    between atoms: C_5  and  C_9
REMARK    5  A    between atoms: C_13  and  N_16
REMARK                            x       y       z     vdW  Elec       q    Type
REMARK                         _______ _______ _______ _____ _____    ______ ____
ROOT
ATOM      1  O   UNL     1      31.985 -12.646 -23.003  0.00  0.00    -0.426 OA
ENDROOT
BRANCH   1   3
ATOM      2  O   UNL     1      31.880 -11.715 -20.888  0.00  0.00    -0.250 OA
ATOM      3  C   UNL     1      31.868 -11.628 -22.108  0.00  0.00    +0.318 C 
BRANCH   3   6
ATOM      4  C   UNL     1      31.228  -9.127 -22.032  0.00  0.00    +0.015 C 
ATOM      5  C   UNL     1      32.669  -9.219 -22.444  0.00  0.00    +0.032 C 
ATOM      6  C   UNL     1      31.716 -10.318 -22.793  0.00  0.00    +0.103 C 
ATOM      7  C   UNL     1      30.922  -9.260 -20.578  0.00  0.00    +0.001 C 
ATOM      8  C   UNL     1      30.312  -8.193 -22.750  0.00  0.00    +0.001 C 
BRANCH   5   9
ATOM      9  C   UNL     1      33.182  -8.384 -23.518  0.00  0.00    -0.034 C 
ATOM     10  C   UNL     1      33.663  -7.129 -23.430  0.00  0.00    -0.048 C 
ATOM     11  C   UNL     1      34.159  -6.399 -24.646  0.00  0.00    +0.026 C 
ATOM     12  C   UNL     1      33.747  -6.356 -22.144  0.00  0.00    +0.026 C 
ENDBRANCH   5   9
ENDBRANCH   3   6
ENDBRANCH   1   3
BRANCH   1  13
ATOM     13  C   UNL     1      33.305 -12.870 -23.504  0.00  0.00    +0.317 C 
BRANCH  13  16
ATOM     14  O   UNL     1      34.254 -14.083 -20.967  0.00  0.00    -0.270 OA
ATOM     15  O   UNL     1      33.298 -15.237 -25.329  0.00  0.00    -0.270 OA
ATOM     16  N   UNL     1      33.674 -14.245 -23.234  0.00  0.00    -0.184 N 
ATOM     17  C   UNL     1      34.360 -16.131 -22.181  0.00  0.00    +0.032 C 
ATOM     18  C   UNL     1      34.088 -16.463 -23.446  0.00  0.00    +0.032 C 
ATOM     19  C   UNL     1      34.859 -17.071 -21.146  0.00  0.00    +0.031 C 
ATOM     20  C   UNL     1      34.209 -17.832 -24.006  0.00  0.00    +0.031 C 
ATOM     21  C   UNL     1      35.326 -18.392 -21.782  0.00  0.00    +0.005 C 
ATOM     22  C   UNL     1      34.376 -18.874 -22.887  0.00  0.00    +0.005 C 
ATOM     23  C   UNL     1      34.103 -14.695 -22.010  0.00  0.00    +0.253 C 
ATOM     24  C   UNL     1      33.633 -15.261 -24.157  0.00  0.00    +0.253 C 
ENDBRANCH  13  16
ENDBRANCH   1  13
TORSDOF 5
ENDMDL
MODEL 4
REMARK VINA RESULT:     -11.2      8.091     13.098
REMARK  Name = 83975
REMARK  5 active torsions:
REMARK  status: ('A' for Active; 'I' for Inactive)
REMARK    1  A    between atoms: O_1  and  C_3
REMARK    2  A    between atoms: O_1  and  C_13
REMARK    3  A    between atoms: C_3  and  C_6
REMARK    4  A    between atoms: C_5  and  C_9
REMARK    5  A    between atoms: C_13  and  N_16
REMARK                            x       y       z     vdW  Elec       q    Type
REMARK                         _______ _______ _______ _____ _____    ______ ____
ROOT
ATOM      1  O   UNL     1      31.961 -12.633 -22.957  0.00  0.00    -0.426 OA
ENDROOT
BRANCH   1   3
ATOM      2  O   UNL     1      31.916 -11.659 -20.859  0.00  0.00    -0.250 OA
ATOM      3  C   UNL     1      31.879 -11.596 -22.079  0.00  0.00    +0.318 C 
BRANCH   3   6
ATOM      4  C   UNL     1      31.244  -9.092 -22.047  0.00  0.00    +0.015 C 
ATOM      5  C   UNL     1      32.685  -9.194 -22.453  0.00  0.00    +0.032 C 
ATOM      6  C   UNL     1      31.731 -10.297 -22.787  0.00  0.00    +0.103 C 
ATOM      7  C   UNL     1      30.932  -9.201 -20.592  0.00  0.00    +0.001 C 
ATOM      8  C   UNL     1      30.332  -8.169 -22.784  0.00  0.00    +0.001 C 
BRANCH   5   9
ATOM      9  C   UNL     1      33.203  -8.378 -23.540  0.00  0.00    -0.034 C 
ATOM     10  C   UNL     1      33.685  -7.122 -23.471  0.00  0.00    -0.048 C 
ATOM     11  C   UNL     1      34.186  -6.413 -24.698  0.00  0.00    +0.026 C 
ATOM     12  C   UNL     1      33.764  -6.327 -22.198  0.00  0.00    +0.026 C 
ENDBRANCH   5   9
ENDBRANCH   3   6
ENDBRANCH   1   3
BRANCH   1  13
ATOM     13  C   UNL     1      33.260 -12.865 -23.507  0.00  0.00    +0.317 C 
BRANCH  13  16
ATOM     14  O   UNL     1      33.292 -15.210 -25.327  0.00  0.00    -0.270 OA
ATOM     15  O   UNL     1      34.241 -14.079 -20.957  0.00  0.00    -0.270 OA
ATOM     16  N   UNL     1      33.643 -14.234 -23.222  0.00  0.00    -0.184 N 
ATOM     17  C   UNL     1      34.081 -16.446 -23.449  0.00  0.00    +0.032 C 
ATOM     18  C   UNL     1      34.351 -16.119 -22.182  0.00  0.00    +0.032 C 
ATOM     19  C   UNL     1      34.216 -17.810 -24.018  0.00  0.00    +0.031 C 
ATOM     20  C   UNL     1      34.860 -17.061 -21.155  0.00  0.00    +0.031 C 
ATOM     21  C   UNL     1      34.395 -18.857 -22.906  0.00  0.00    +0.005 C 
ATOM     22  C   UNL     1      35.341 -18.373 -21.797  0.00  0.00    +0.005 C 
ATOM     23  C   UNL     1      33.617 -15.244 -24.152  0.00  0.00    +0.253 C 
ATOM     24  C   UNL     1      34.083 -14.685 -22.003  0.00  0.00    +0.253 C 
ENDBRANCH  13  16
ENDBRANCH   1  13
TORSDOF 5
ENDMDL
MODEL 5
REMARK VINA RESULT:     -11.1      1.868      3.039
REMARK  Name = 83975
REMARK  5 active torsions:
REMARK  status: ('A' for Active; 'I' for Inactive)
REMARK    1  A    between atoms: O_1  and  C_3
REMARK    2  A    between atoms: O_1  and  C_13
REMARK    3  A    between atoms: C_3  and  C_6
REMARK    4  A    between atoms: C_5  and  C_9
REMARK    5  A    between atoms: C_13  and  N_16
REMARK                            x       y       z     vdW  Elec       q    Type
REMARK                         _______ _______ _______ _____ _____    ______ ____
ROOT
ATOM      1  O   UNL     1      33.050 -22.235 -16.729  0.00  0.00    -0.426 OA
ENDROOT
BRANCH   1   3
ATOM      2  O   UNL     1      30.746 -22.174 -16.922  0.00  0.00    -0.250 OA
ATOM      3  C   UNL     1      31.771 -22.315 -16.271  0.00  0.00    +0.318 C 
BRANCH   3   6
ATOM      4  C   UNL     1      30.823 -23.672 -14.288  0.00  0.00    +0.015 C 
ATOM      5  C   UNL     1      32.305 -23.906 -14.337  0.00  0.00    +0.032 C 
ATOM      6  C   UNL     1      31.733 -22.609 -14.815  0.00  0.00    +0.103 C 
ATOM      7  C   UNL     1      29.975 -24.448 -15.239  0.00  0.00    +0.001 C 
ATOM      8  C   UNL     1      30.159 -23.407 -12.978  0.00  0.00    +0.001 C 
BRANCH   5   9
ATOM      9  C   UNL     1      33.091 -23.905 -13.114  0.00  0.00    -0.034 C 
ATOM     10  C   UNL     1      34.381 -23.548 -12.962  0.00  0.00    -0.048 C 
ATOM     11  C   UNL     1      35.051 -23.605 -11.618  0.00  0.00    +0.026 C 
ATOM     12  C   UNL     1      35.254 -23.073 -14.090  0.00  0.00    +0.026 C 
ENDBRANCH   5   9
ENDBRANCH   3   6
ENDBRANCH   1   3
BRANCH   1  13
ATOM     13  C   UNL     1      33.267 -22.780 -18.032  0.00  0.00    +0.317 C 
BRANCH  13  16
ATOM     14  O   UNL     1      31.852 -21.140 -20.063  0.00  0.00    -0.270 OA
ATOM     15  O   UNL     1      36.042 -21.685 -18.213  0.00  0.00    -0.270 OA
ATOM     16  N   UNL     1      33.794 -21.734 -18.887  0.00  0.00    -0.184 N 
ATOM     17  C   UNL     1      33.957 -20.084 -20.432  0.00  0.00    +0.032 C 
ATOM     18  C   UNL     1      35.171 -20.247 -19.900  0.00  0.00    +0.032 C 
ATOM     19  C   UNL     1      33.625 -19.111 -21.503  0.00  0.00    +0.031 C 
ATOM     20  C   UNL     1      36.370 -19.455 -20.271  0.00  0.00    +0.031 C 
ATOM     21  C   UNL     1      34.900 -18.540 -22.144  0.00  0.00    +0.005 C 
ATOM     22  C   UNL     1      35.983 -18.222 -21.103  0.00  0.00    +0.005 C 
ATOM     23  C   UNL     1      33.038 -21.038 -19.797  0.00  0.00    +0.253 C 
ATOM     24  C   UNL     1      35.099 -21.308 -18.886  0.00  0.00    +0.253 C 
ENDBRANCH  13  16
ENDBRANCH   1  13
TORSDOF 5
ENDMDL
MODEL 6
REMARK VINA RESULT:     -11.1      1.867      3.530
REMARK  Name = 83975
REMARK  5 active torsions:
REMARK  status: ('A' for Active; 'I' for Inactive)
REMARK    1  A    between atoms: O_1  and  C_3
REMARK    2  A    between atoms: O_1  and  C_13
REMARK    3  A    between atoms: C_3  and  C_6
REMARK    4  A    between atoms: C_5  and  C_9
REMARK    5  A    between atoms: C_13  and  N_16
REMARK                            x       y       z     vdW  Elec       q    Type
REMARK                         _______ _______ _______ _____ _____    ______ ____
ROOT
ATOM      1  O   UNL     1      33.025 -22.209 -16.733  0.00  0.00    -0.426 OA
ENDROOT
BRANCH   1   3
ATOM      2  O   UNL     1      30.719 -22.237 -16.915  0.00  0.00    -0.250 OA
ATOM      3  C   UNL     1      31.752 -22.328 -16.267  0.00  0.00    +0.318 C 
BRANCH   3   6
ATOM      4  C   UNL     1      30.827 -23.649 -14.249  0.00  0.00    +0.015 C 
ATOM      5  C   UNL     1      32.308 -23.885 -14.312  0.00  0.00    +0.032 C 
ATOM      6  C   UNL     1      31.731 -22.596 -14.805  0.00  0.00    +0.103 C 
ATOM      7  C   UNL     1      29.967 -24.441 -15.176  0.00  0.00    +0.001 C 
ATOM      8  C   UNL     1      30.179 -23.361 -12.936  0.00  0.00    +0.001 C 
BRANCH   5   9
ATOM      9  C   UNL     1      33.109 -23.863 -13.098  0.00  0.00    -0.034 C 
ATOM     10  C   UNL     1      34.413 -23.551 -12.976  0.00  0.00    -0.048 C 
ATOM     11  C   UNL     1      35.097 -23.577 -11.638  0.00  0.00    +0.026 C 
ATOM     12  C   UNL     1      35.290 -23.159 -14.132  0.00  0.00    +0.026 C 
ENDBRANCH   5   9
ENDBRANCH   3   6
ENDBRANCH   1   3
BRANCH   1  13
ATOM     13  C   UNL     1      33.253 -22.757 -18.033  0.00  0.00    +0.317 C 
BRANCH  13  16
ATOM     14  O   UNL     1      36.024 -21.709 -18.220  0.00  0.00    -0.270 OA
ATOM     15  O   UNL     1      31.849 -21.097 -20.084  0.00  0.00    -0.270 OA
ATOM     16  N   UNL     1      33.775 -21.710 -18.889  0.00  0.00    -0.184 N 
ATOM     17  C   UNL     1      35.177 -20.243 -19.898  0.00  0.00    +0.032 C 
ATOM     18  C   UNL     1      33.966 -20.063 -20.433  0.00  0.00    +0.032 C 
ATOM     19  C   UNL     1      36.389 -19.468 -20.264  0.00  0.00    +0.031 C 
ATOM     20  C   UNL     1      33.651 -19.083 -21.502  0.00  0.00    +0.031 C 
ATOM     21  C   UNL     1      36.020 -18.228 -21.095  0.00  0.00    +0.005 C 
ATOM     22  C   UNL     1      34.936 -18.528 -22.140  0.00  0.00    +0.005 C 
ATOM     23  C   UNL     1      35.087 -21.306 -18.888  0.00  0.00    +0.253 C 
ATOM     24  C   UNL     1      33.032 -21.006 -19.804  0.00  0.00    +0.253 C 
ENDBRANCH  13  16
ENDBRANCH   1  13
TORSDOF 5
ENDMDL
MODEL 7
REMARK VINA RESULT:     -11.0      2.838      5.012
REMARK  Name = 83975
REMARK  5 active torsions:
REMARK  status: ('A' for Active; 'I' for Inactive)
REMARK    1  A    between atoms: O_1  and  C_3
REMARK    2  A    between atoms: O_1  and  C_13
REMARK    3  A    between atoms: C_3  and  C_6
REMARK    4  A    between atoms: C_5  and  C_9
REMARK    5  A    between atoms: C_13  and  N_16
REMARK                            x       y       z     vdW  Elec       q    Type
REMARK                         _______ _______ _______ _____ _____    ______ ____
ROOT
ATOM      1  O   UNL     1      33.409 -22.193 -16.507  0.00  0.00    -0.426 OA
ENDROOT
BRANCH   1   3
ATOM      2  O   UNL     1      34.035 -23.492 -14.698  0.00  0.00    -0.250 OA
ATOM      3  C   UNL     1      33.211 -23.101 -15.512  0.00  0.00    +0.318 C 
BRANCH   3   6
ATOM      4  C   UNL     1      30.976 -23.472 -14.272  0.00  0.00    +0.015 C 
ATOM      5  C   UNL     1      30.700 -22.602 -15.463  0.00  0.00    +0.032 C 
ATOM      6  C   UNL     1      31.812 -23.602 -15.505  0.00  0.00    +0.103 C 
ATOM      7  C   UNL     1      31.550 -22.815 -13.062  0.00  0.00    +0.001 C 
ATOM      8  C   UNL     1      30.057 -24.605 -13.955  0.00  0.00    +0.001 C 
BRANCH   5   9
ATOM      9  C   UNL     1      29.528 -22.838 -16.292  0.00  0.00    -0.034 C 
ATOM     10  C   UNL     1      28.258 -22.457 -16.053  0.00  0.00    -0.048 C 
ATOM     11  C   UNL     1      27.154 -22.783 -17.019  0.00  0.00    +0.026 C 
ATOM     12  C   UNL     1      27.832 -21.690 -14.833  0.00  0.00    +0.026 C 
ENDBRANCH   5   9
ENDBRANCH   3   6
ENDBRANCH   1   3
BRANCH   1  13
ATOM     13  C   UNL     1      33.425 -22.733 -17.831  0.00  0.00    +0.317 C 
BRANCH  13  16
ATOM     14  O   UNL     1      31.925 -21.175 -19.864  0.00  0.00    -0.270 OA
ATOM     15  O   UNL     1      36.183 -21.624 -18.147  0.00  0.00    -0.270 OA
ATOM     16  N   UNL     1      33.912 -21.713 -18.738  0.00  0.00    -0.184 N 
ATOM     17  C   UNL     1      34.005 -20.116 -20.344  0.00  0.00    +0.032 C 
ATOM     18  C   UNL     1      35.239 -20.251 -19.850  0.00  0.00    +0.032 C 
ATOM     19  C   UNL     1      33.626 -19.183 -21.434  0.00  0.00    +0.031 C 
ATOM     20  C   UNL     1      36.417 -19.463 -20.290  0.00  0.00    +0.031 C 
ATOM     21  C   UNL     1      34.873 -18.624 -22.139  0.00  0.00    +0.005 C 
ATOM     22  C   UNL     1      35.989 -18.262 -21.149  0.00  0.00    +0.005 C 
ATOM     23  C   UNL     1      33.118 -21.054 -19.644  0.00  0.00    +0.253 C 
ATOM     24  C   UNL     1      35.212 -21.277 -18.798  0.00  0.00    +0.253 C 
ENDBRANCH  13  16
ENDBRANCH   1  13
TORSDOF 5
ENDMDL
MODEL 8
REMARK VINA RESULT:     -11.0      2.687      5.206
REMARK  Name = 83975
REMARK  5 active torsions:
REMARK  status: ('A' for Active; 'I' for Inactive)
REMARK    1  A    between atoms: O_1  and  C_3
REMARK    2  A    between atoms: O_1  and  C_13
REMARK    3  A    between atoms: C_3  and  C_6
REMARK    4  A    between atoms: C_5  and  C_9
REMARK    5  A    between atoms: C_13  and  N_16
REMARK                            x       y       z     vdW  Elec       q    Type
REMARK                         _______ _______ _______ _____ _____    ______ ____
ROOT
ATOM      1  O   UNL     1      33.675 -22.231 -16.367  0.00  0.00    -0.426 OA
ENDROOT
BRANCH   1   3
ATOM      2  O   UNL     1      34.256 -23.516 -14.533  0.00  0.00    -0.250 OA
ATOM      3  C   UNL     1      33.452 -23.130 -15.368  0.00  0.00    +0.318 C 
BRANCH   3   6
ATOM      4  C   UNL     1      31.192 -23.493 -14.173  0.00  0.00    +0.015 C 
ATOM      5  C   UNL     1      30.942 -22.625 -15.372  0.00  0.00    +0.032 C 
ATOM      6  C   UNL     1      32.052 -23.627 -15.389  0.00  0.00    +0.103 C 
ATOM      7  C   UNL     1      31.743 -22.835 -12.953  0.00  0.00    +0.001 C 
ATOM      8  C   UNL     1      30.264 -24.623 -13.873  0.00  0.00    +0.001 C 
BRANCH   5   9
ATOM      9  C   UNL     1      29.787 -22.861 -16.224  0.00  0.00    -0.034 C 
ATOM     10  C   UNL     1      28.514 -22.475 -16.013  0.00  0.00    -0.048 C 
ATOM     11  C   UNL     1      27.428 -22.801 -17.000  0.00  0.00    +0.026 C 
ATOM     12  C   UNL     1      28.064 -21.704 -14.804  0.00  0.00    +0.026 C 
ENDBRANCH   5   9
ENDBRANCH   3   6
ENDBRANCH   1   3
BRANCH   1  13
ATOM     13  C   UNL     1      33.496 -22.735 -17.692  0.00  0.00    +0.317 C 
BRANCH  13  16
ATOM     14  O   UNL     1      36.226 -21.640 -18.097  0.00  0.00    -0.270 OA
ATOM     15  O   UNL     1      31.938 -21.222 -19.745  0.00  0.00    -0.270 OA
ATOM     16  N   UNL     1      33.943 -21.726 -18.633  0.00  0.00    -0.184 N 
ATOM     17  C   UNL     1      35.249 -20.288 -19.799  0.00  0.00    +0.032 C 
ATOM     18  C   UNL     1      34.006 -20.163 -20.272  0.00  0.00    +0.032 C 
ATOM     19  C   UNL     1      36.419 -19.508 -20.276  0.00  0.00    +0.031 C 
ATOM     20  C   UNL     1      33.607 -19.251 -21.372  0.00  0.00    +0.031 C 
ATOM     21  C   UNL     1      35.973 -18.324 -21.150  0.00  0.00    +0.005 C 
ATOM     22  C   UNL     1      34.840 -18.705 -22.113  0.00  0.00    +0.005 C 
ATOM     23  C   UNL     1      35.243 -21.295 -18.730  0.00  0.00    +0.253 C 
ATOM     24  C   UNL     1      33.132 -21.090 -19.540  0.00  0.00    +0.253 C 
ENDBRANCH  13  16
ENDBRANCH   1  13
TORSDOF 5
ENDMDL
MODEL 9
REMARK VINA RESULT:     -11.0      2.469      8.593
REMARK  Name = 83975
REMARK  5 active torsions:
REMARK  status: ('A' for Active; 'I' for Inactive)
REMARK    1  A    between atoms: O_1  and  C_3
REMARK    2  A    between atoms: O_1  and  C_13
REMARK    3  A    between atoms: C_3  and  C_6
REMARK    4  A    between atoms: C_5  and  C_9
REMARK    5  A    between atoms: C_13  and  N_16
REMARK                            x       y       z     vdW  Elec       q    Type
REMARK                         _______ _______ _______ _____ _____    ______ ____
ROOT
ATOM      1  O   UNL     1      35.100 -19.561 -20.058  0.00  0.00    -0.426 OA
ENDROOT
BRANCH   1   3
ATOM      2  O   UNL     1      37.126 -18.464 -20.273  0.00  0.00    -0.250 OA
ATOM      3  C   UNL     1      35.985 -18.705 -20.640  0.00  0.00    +0.318 C 
BRANCH   3   6
ATOM      4  C   UNL     1      34.015 -18.405 -22.284  0.00  0.00    +0.015 C 
ATOM      5  C   UNL     1      34.283 -17.075 -21.641  0.00  0.00    +0.032 C 
ATOM      6  C   UNL     1      35.399 -18.051 -21.839  0.00  0.00    +0.103 C 
ATOM      7  C   UNL     1      33.224 -19.398 -21.501  0.00  0.00    +0.001 C 
ATOM      8  C   UNL     1      33.776 -18.480 -23.755  0.00  0.00    +0.001 C 
BRANCH   5   9
ATOM      9  C   UNL     1      34.281 -15.858 -22.438  0.00  0.00    -0.034 C 
ATOM     10  C   UNL     1      33.932 -14.617 -22.049  0.00  0.00    -0.048 C 
ATOM     11  C   UNL     1      33.987 -13.458 -23.004  0.00  0.00    +0.026 C 
ATOM     12  C   UNL     1      33.464 -14.278 -20.661  0.00  0.00    +0.026 C 
ENDBRANCH   5   9
ENDBRANCH   3   6
ENDBRANCH   1   3
BRANCH   1  13
ATOM     13  C   UNL     1      35.568 -20.900 -19.888  0.00  0.00    +0.317 C 
BRANCH  13  16
ATOM     14  O   UNL     1      36.762 -21.241 -17.191  0.00  0.00    -0.270 OA
ATOM     15  O   UNL     1      32.810 -21.968 -19.456  0.00  0.00    -0.270 OA
ATOM     16  N   UNL     1      34.967 -21.449 -18.688  0.00  0.00    -0.184 N 
ATOM     17  C   UNL     1      34.654 -22.153 -16.557  0.00  0.00    +0.032 C 
ATOM     18  C   UNL     1      33.511 -22.369 -17.215  0.00  0.00    +0.032 C 
ATOM     19  C   UNL     1      34.886 -22.490 -15.130  0.00  0.00    +0.031 C 
ATOM     20  C   UNL     1      32.284 -22.947 -16.614  0.00  0.00    +0.031 C 
ATOM     21  C   UNL     1      33.771 -23.402 -14.591  0.00  0.00    +0.005 C 
ATOM     22  C   UNL     1      32.380 -22.972 -15.079  0.00  0.00    +0.005 C 
ATOM     23  C   UNL     1      35.622 -21.558 -17.486  0.00  0.00    +0.253 C 
ATOM     24  C   UNL     1      33.679 -21.915 -18.603  0.00  0.00    +0.253 C 
ENDBRANCH  13  16
ENDBRANCH   1  13
TORSDOF 5
ENDMDL
