MODEL 1
REMARK VINA RESULT:     -11.7      0.000      0.000
REMARK  Name = 447962
REMARK  3 active torsions:
REMARK  status: ('A' for Active; 'I' for Inactive)
REMARK    1  A    between atoms: N_1  and  C_17
REMARK    2  A    between atoms: C_4  and  C_11
REMARK    3  A    between atoms: C_16  and  N_22
REMARK                            x       y       z     vdW  Elec       q    Type
REMARK                         _______ _______ _______ _____ _____    ______ ____
ROOT
ATOM      1  N   UNL     1      32.423 -22.036 -17.637  0.00  0.00    -0.247 N 
ATOM      2  N   UNL     1      34.238 -22.812 -16.368  0.00  0.00    -0.341 NA
ATOM      3  N   UNL     1      31.972 -23.343 -15.741  0.00  0.00    -0.170 NA
ATOM      4  C   UNL     1      34.660 -23.517 -15.297  0.00  0.00    +0.140 C 
ATOM      5  C   UNL     1      32.900 -22.765 -16.530  0.00  0.00    +0.148 C 
ATOM      6  C   UNL     1      33.810 -24.155 -14.416  0.00  0.00    +0.051 C 
ATOM      7  C   UNL     1      32.463 -24.032 -14.690  0.00  0.00    +0.114 C 
ATOM      8  H   UNL     1      31.442 -22.030 -17.713  0.00  0.00    +0.165 HD
ENDROOT
BRANCH   4  11
ATOM      9  S   UNL     1      36.820 -24.952 -14.433  0.00  0.00    -0.074 S 
ATOM     10  N   UNL     1      38.364 -23.007 -15.155  0.00  0.00    -0.407 NA
ATOM     11  C   UNL     1      36.088 -23.564 -15.132  0.00  0.00    +0.155 C 
ATOM     12  C   UNL     1      37.065 -22.641 -15.450  0.00  0.00    +0.104 C 
ATOM     13  C   UNL     1      38.355 -24.206 -14.615  0.00  0.00    +0.135 C 
ATOM     14  C   UNL     1      36.846 -21.318 -16.071  0.00  0.00    +0.063 C 
ATOM     15  C   UNL     1      39.563 -24.933 -14.171  0.00  0.00    +0.074 C 
ENDBRANCH   4  11
BRANCH   1  17
ATOM     16  C   UNL     1      34.366 -19.881 -20.673  0.00  0.00    +0.048 C 
ATOM     17  C   UNL     1      33.075 -21.314 -18.658  0.00  0.00    +0.058 C 
ATOM     18  C   UNL     1      32.982 -19.787 -20.527  0.00  0.00    +0.016 C 
ATOM     19  C   UNL     1      35.105 -20.692 -19.812  0.00  0.00    +0.016 C 
ATOM     20  C   UNL     1      32.337 -20.504 -19.520  0.00  0.00    +0.017 C 
ATOM     21  C   UNL     1      34.459 -21.409 -18.804  0.00  0.00    +0.017 C 
BRANCH  16  22
ATOM     22  N   UNL     1      35.018 -19.155 -21.691  0.00  0.00    -0.304 N 
ATOM     23  C   UNL     1      34.423 -19.041 -23.008  0.00  0.00    +0.112 C 
ATOM     24  C   UNL     1      36.285 -18.501 -21.431  0.00  0.00    +0.112 C 
ENDBRANCH  16  22
ENDBRANCH   1  17
TORSDOF 3
ENDMDL
MODEL 2
REMARK VINA RESULT:     -11.7      0.008      1.008
REMARK  Name = 447962
REMARK  3 active torsions:
REMARK  status: ('A' for Active; 'I' for Inactive)
REMARK    1  A    between atoms: N_1  and  C_17
REMARK    2  A    between atoms: C_4  and  C_11
REMARK    3  A    between atoms: C_16  and  N_22
REMARK                            x       y       z     vdW  Elec       q    Type
REMARK                         _______ _______ _______ _____ _____    ______ ____
ROOT
ATOM      1  N   UNL     1      32.422 -22.034 -17.640  0.00  0.00    -0.247 N 
ATOM      2  N   UNL     1      34.235 -22.812 -16.368  0.00  0.00    -0.341 NA
ATOM      3  N   UNL     1      31.968 -23.346 -15.748  0.00  0.00    -0.170 NA
ATOM      4  C   UNL     1      34.655 -23.520 -15.298  0.00  0.00    +0.140 C 
ATOM      5  C   UNL     1      32.898 -22.765 -16.533  0.00  0.00    +0.148 C 
ATOM      6  C   UNL     1      33.804 -24.160 -14.421  0.00  0.00    +0.051 C 
ATOM      7  C   UNL     1      32.457 -24.038 -14.698  0.00  0.00    +0.114 C 
ATOM      8  H   UNL     1      31.441 -22.028 -17.718  0.00  0.00    +0.165 HD
ENDROOT
BRANCH   4  11
ATOM      9  S   UNL     1      36.814 -24.950 -14.424  0.00  0.00    -0.074 S 
ATOM     10  N   UNL     1      38.358 -23.008 -15.149  0.00  0.00    -0.407 NA
ATOM     11  C   UNL     1      36.083 -23.565 -15.130  0.00  0.00    +0.155 C 
ATOM     12  C   UNL     1      37.060 -22.643 -15.449  0.00  0.00    +0.104 C 
ATOM     13  C   UNL     1      38.349 -24.205 -14.606  0.00  0.00    +0.135 C 
ATOM     14  C   UNL     1      36.842 -21.323 -16.076  0.00  0.00    +0.063 C 
ATOM     15  C   UNL     1      39.556 -24.930 -14.156  0.00  0.00    +0.074 C 
ENDBRANCH   4  11
BRANCH   1  17
ATOM     16  C   UNL     1      34.369 -19.879 -20.673  0.00  0.00    +0.048 C 
ATOM     17  C   UNL     1      33.076 -21.309 -18.657  0.00  0.00    +0.058 C 
ATOM     18  C   UNL     1      35.107 -20.686 -19.807  0.00  0.00    +0.016 C 
ATOM     19  C   UNL     1      32.985 -19.786 -20.530  0.00  0.00    +0.016 C 
ATOM     20  C   UNL     1      34.460 -21.401 -18.799  0.00  0.00    +0.017 C 
ATOM     21  C   UNL     1      32.338 -20.501 -19.523  0.00  0.00    +0.017 C 
BRANCH  16  22
ATOM     22  N   UNL     1      35.024 -19.157 -21.692  0.00  0.00    -0.304 N 
ATOM     23  C   UNL     1      34.426 -19.038 -23.007  0.00  0.00    +0.112 C 
ATOM     24  C   UNL     1      36.296 -18.512 -21.435  0.00  0.00    +0.112 C 
ENDBRANCH  16  22
ENDBRANCH   1  17
TORSDOF 3
ENDMDL
MODEL 3
REMARK VINA RESULT:      -9.6      3.331      6.283
REMARK  Name = 447962
REMARK  3 active torsions:
REMARK  status: ('A' for Active; 'I' for Inactive)
REMARK    1  A    between atoms: N_1  and  C_17
REMARK    2  A    between atoms: C_4  and  C_11
REMARK    3  A    between atoms: C_16  and  N_22
REMARK                            x       y       z     vdW  Elec       q    Type
REMARK                         _______ _______ _______ _____ _____    ______ ____
ROOT
ATOM      1  N   UNL     1      31.807 -24.068 -13.818  0.00  0.00    -0.247 N 
ATOM      2  N   UNL     1      33.390 -23.153 -15.289  0.00  0.00    -0.341 NA
ATOM      3  N   UNL     1      34.079 -24.474 -13.394  0.00  0.00    -0.170 NA
ATOM      4  C   UNL     1      34.692 -23.003 -15.611  0.00  0.00    +0.140 C 
ATOM      5  C   UNL     1      33.156 -23.890 -14.185  0.00  0.00    +0.148 C 
ATOM      6  C   UNL     1      35.729 -23.551 -14.884  0.00  0.00    +0.051 C 
ATOM      7  C   UNL     1      35.360 -24.284 -13.774  0.00  0.00    +0.114 C 
ATOM      8  H   UNL     1      31.687 -24.610 -13.006  0.00  0.00    +0.165 HD
ENDROOT
BRANCH   4  11
ATOM      9  S   UNL     1      33.749 -22.154 -18.032  0.00  0.00    -0.074 S 
ATOM     10  N   UNL     1      35.927 -20.805 -18.375  0.00  0.00    -0.407 NA
ATOM     11  C   UNL     1      34.934 -22.217 -16.791  0.00  0.00    +0.155 C 
ATOM     12  C   UNL     1      36.017 -21.439 -17.152  0.00  0.00    +0.104 C 
ATOM     13  C   UNL     1      34.774 -21.109 -18.927  0.00  0.00    +0.135 C 
ATOM     14  C   UNL     1      37.244 -21.228 -16.355  0.00  0.00    +0.063 C 
ATOM     15  C   UNL     1      34.318 -20.612 -20.243  0.00  0.00    +0.074 C 
ENDBRANCH   4  11
BRANCH   1  17
ATOM     16  C   UNL     1      28.205 -22.731 -15.512  0.00  0.00    +0.048 C 
ATOM     17  C   UNL     1      30.596 -23.619 -14.385  0.00  0.00    +0.058 C 
ATOM     18  C   UNL     1      29.001 -21.849 -14.781  0.00  0.00    +0.016 C 
ATOM     19  C   UNL     1      28.604 -24.057 -15.679  0.00  0.00    +0.016 C 
ATOM     20  C   UNL     1      30.197 -22.294 -14.217  0.00  0.00    +0.017 C 
ATOM     21  C   UNL     1      29.800 -24.501 -15.116  0.00  0.00    +0.017 C 
BRANCH  16  22
ATOM     22  N   UNL     1      26.996 -22.281 -16.082  0.00  0.00    -0.304 N 
ATOM     23  C   UNL     1      26.750 -22.441 -17.502  0.00  0.00    +0.112 C 
ATOM     24  C   UNL     1      25.978 -21.664 -15.255  0.00  0.00    +0.112 C 
ENDBRANCH  16  22
ENDBRANCH   1  17
TORSDOF 3
ENDMDL
MODEL 4
REMARK VINA RESULT:      -9.5      1.823      2.270
REMARK  Name = 447962
REMARK  3 active torsions:
REMARK  status: ('A' for Active; 'I' for Inactive)
REMARK    1  A    between atoms: N_1  and  C_17
REMARK    2  A    between atoms: C_4  and  C_11
REMARK    3  A    between atoms: C_16  and  N_22
REMARK                            x       y       z     vdW  Elec       q    Type
REMARK                         _______ _______ _______ _____ _____    ______ ____
ROOT
ATOM      1  N   UNL     1      31.553 -22.447 -17.196  0.00  0.00    -0.247 N 
ATOM      2  N   UNL     1      33.052 -23.202 -15.556  0.00  0.00    -0.341 NA
ATOM      3  N   UNL     1      30.696 -23.684 -15.395  0.00  0.00    -0.170 NA
ATOM      4  C   UNL     1      33.231 -23.877 -14.400  0.00  0.00    +0.140 C 
ATOM      5  C   UNL     1      31.778 -23.144 -15.992  0.00  0.00    +0.148 C 
ATOM      6  C   UNL     1      32.206 -24.474 -13.695  0.00  0.00    +0.051 C 
ATOM      7  C   UNL     1      30.947 -24.344 -14.245  0.00  0.00    +0.114 C 
ATOM      8  H   UNL     1      30.609 -22.431 -17.472  0.00  0.00    +0.165 HD
ENDROOT
BRANCH   4  11
ATOM      9  S   UNL     1      35.126 -22.860 -12.714  0.00  0.00    -0.074 S 
ATOM     10  N   UNL     1      36.839 -24.543 -13.670  0.00  0.00    -0.407 NA
ATOM     11  C   UNL     1      34.593 -23.935 -13.942  0.00  0.00    +0.155 C 
ATOM     12  C   UNL     1      35.640 -24.751 -14.323  0.00  0.00    +0.104 C 
ATOM     13  C   UNL     1      36.686 -23.570 -12.800  0.00  0.00    +0.135 C 
ATOM     14  C   UNL     1      35.589 -25.812 -15.350  0.00  0.00    +0.063 C 
ATOM     15  C   UNL     1      37.754 -23.066 -11.910  0.00  0.00    +0.074 C 
ENDBRANCH   4  11
BRANCH   1  17
ATOM     16  C   UNL     1      34.120 -20.428 -19.835  0.00  0.00    +0.048 C 
ATOM     17  C   UNL     1      32.415 -21.768 -18.081  0.00  0.00    +0.058 C 
ATOM     18  C   UNL     1      34.641 -21.336 -18.913  0.00  0.00    +0.016 C 
ATOM     19  C   UNL     1      32.747 -20.190 -19.880  0.00  0.00    +0.016 C 
ATOM     20  C   UNL     1      33.789 -22.005 -18.036  0.00  0.00    +0.017 C 
ATOM     21  C   UNL     1      31.894 -20.860 -19.003  0.00  0.00    +0.017 C 
BRANCH  16  22
ATOM     22  N   UNL     1      34.983 -19.752 -20.723  0.00  0.00    -0.304 N 
ATOM     23  C   UNL     1      34.509 -19.325 -22.024  0.00  0.00    +0.112 C 
ATOM     24  C   UNL     1      36.351 -19.463 -20.340  0.00  0.00    +0.112 C 
ENDBRANCH  16  22
ENDBRANCH   1  17
TORSDOF 3
ENDMDL
MODEL 5
REMARK VINA RESULT:      -9.2      2.184      6.885
REMARK  Name = 447962
REMARK  3 active torsions:
REMARK  status: ('A' for Active; 'I' for Inactive)
REMARK    1  A    between atoms: N_1  and  C_17
REMARK    2  A    between atoms: C_4  and  C_11
REMARK    3  A    between atoms: C_16  and  N_22
REMARK                            x       y       z     vdW  Elec       q    Type
REMARK                         _______ _______ _______ _____ _____    ______ ____
ROOT
ATOM      1  N   UNL     1      34.085 -24.424 -14.485  0.00  0.00    -0.247 N 
ATOM      2  N   UNL     1      33.926 -22.995 -16.341  0.00  0.00    -0.341 NA
ATOM      3  N   UNL     1      31.949 -23.749 -15.185  0.00  0.00    -0.170 NA
ATOM      4  C   UNL     1      33.126 -22.303 -17.179  0.00  0.00    +0.140 C 
ATOM      5  C   UNL     1      33.282 -23.688 -15.379  0.00  0.00    +0.148 C 
ATOM      6  C   UNL     1      31.749 -22.284 -17.084  0.00  0.00    +0.051 C 
ATOM      7  C   UNL     1      31.210 -23.033 -16.058  0.00  0.00    +0.114 C 
ATOM      8  H   UNL     1      33.571 -24.913 -13.804  0.00  0.00    +0.165 HD
ENDROOT
BRANCH   4  11
ATOM      9  S   UNL     1      32.943 -20.916 -19.527  0.00  0.00    -0.074 S 
ATOM     10  N   UNL     1      35.496 -20.516 -19.456  0.00  0.00    -0.407 NA
ATOM     11  C   UNL     1      33.820 -21.566 -18.201  0.00  0.00    +0.155 C 
ATOM     12  C   UNL     1      35.157 -21.251 -18.337  0.00  0.00    +0.104 C 
ATOM     13  C   UNL     1      34.408 -20.281 -20.156  0.00  0.00    +0.135 C 
ATOM     14  C   UNL     1      36.241 -21.624 -17.404  0.00  0.00    +0.063 C 
ATOM     15  C   UNL     1      34.374 -19.517 -21.421  0.00  0.00    +0.074 C 
ENDBRANCH   4  11
BRANCH   1  17
ATOM     16  C   UNL     1      38.240 -24.942 -14.169  0.00  0.00    +0.048 C 
ATOM     17  C   UNL     1      35.480 -24.599 -14.377  0.00  0.00    +0.058 C 
ATOM     18  C   UNL     1      37.440 -25.990 -14.623  0.00  0.00    +0.016 C 
ATOM     19  C   UNL     1      37.661 -23.722 -13.819  0.00  0.00    +0.016 C 
ATOM     20  C   UNL     1      36.059 -25.818 -14.727  0.00  0.00    +0.017 C 
ATOM     21  C   UNL     1      36.281 -23.551 -13.923  0.00  0.00    +0.017 C 
BRANCH  16  22
ATOM     22  N   UNL     1      39.636 -25.115 -14.065  0.00  0.00    -0.304 N 
ATOM     23  C   UNL     1      40.198 -26.435 -13.859  0.00  0.00    +0.112 C 
ATOM     24  C   UNL     1      40.528 -23.978 -14.178  0.00  0.00    +0.112 C 
ENDBRANCH  16  22
ENDBRANCH   1  17
TORSDOF 3
ENDMDL
MODEL 6
REMARK VINA RESULT:      -9.2      2.104      4.725
REMARK  Name = 447962
REMARK  3 active torsions:
REMARK  status: ('A' for Active; 'I' for Inactive)
REMARK    1  A    between atoms: N_1  and  C_17
REMARK    2  A    between atoms: C_4  and  C_11
REMARK    3  A    between atoms: C_16  and  N_22
REMARK                            x       y       z     vdW  Elec       q    Type
REMARK                         _______ _______ _______ _____ _____    ______ ____
ROOT
ATOM      1  N   UNL     1      36.420 -20.817 -18.493  0.00  0.00    -0.247 N 
ATOM      2  N   UNL     1      34.504 -21.673 -17.442  0.00  0.00    -0.341 NA
ATOM      3  N   UNL     1      36.704 -22.134 -16.572  0.00  0.00    -0.170 NA
ATOM      4  C   UNL     1      33.992 -22.409 -16.433  0.00  0.00    +0.140 C 
ATOM      5  C   UNL     1      35.849 -21.577 -17.453  0.00  0.00    +0.148 C 
ATOM      6  C   UNL     1      34.761 -23.028 -15.468  0.00  0.00    +0.051 C 
ATOM      7  C   UNL     1      36.125 -22.855 -15.589  0.00  0.00    +0.114 C 
ATOM      8  H   UNL     1      37.402 -20.777 -18.460  0.00  0.00    +0.165 HD
ENDROOT
BRANCH   4  11
ATOM      9  S   UNL     1      31.760 -23.288 -15.121  0.00  0.00    -0.074 S 
ATOM     10  N   UNL     1      30.298 -22.319 -17.020  0.00  0.00    -0.407 NA
ATOM     11  C   UNL     1      32.556 -22.506 -16.427  0.00  0.00    +0.155 C 
ATOM     12  C   UNL     1      31.617 -22.058 -17.334  0.00  0.00    +0.104 C 
ATOM     13  C   UNL     1      30.253 -22.963 -15.875  0.00  0.00    +0.135 C 
ATOM     14  C   UNL     1      31.896 -21.333 -18.592  0.00  0.00    +0.063 C 
ATOM     15  C   UNL     1      29.009 -23.409 -15.213  0.00  0.00    +0.074 C 
ENDBRANCH   4  11
BRANCH   1  17
ATOM     16  C   UNL     1      34.753 -18.696 -21.711  0.00  0.00    +0.048 C 
ATOM     17  C   UNL     1      35.859 -20.103 -19.572  0.00  0.00    +0.058 C 
ATOM     18  C   UNL     1      36.005 -18.336 -21.213  0.00  0.00    +0.016 C 
ATOM     19  C   UNL     1      34.054 -19.759 -21.140  0.00  0.00    +0.016 C 
ATOM     20  C   UNL     1      36.558 -19.040 -20.143  0.00  0.00    +0.017 C 
ATOM     21  C   UNL     1      34.607 -20.463 -20.071  0.00  0.00    +0.017 C 
BRANCH  16  22
ATOM     22  N   UNL     1      34.195 -17.984 -22.793  0.00  0.00    -0.304 N 
ATOM     23  C   UNL     1      34.359 -16.548 -22.891  0.00  0.00    +0.112 C 
ATOM     24  C   UNL     1      33.462 -18.682 -23.831  0.00  0.00    +0.112 C 
ENDBRANCH  16  22
ENDBRANCH   1  17
TORSDOF 3
ENDMDL
MODEL 7
REMARK VINA RESULT:      -9.0      2.473      5.051
REMARK  Name = 447962
REMARK  3 active torsions:
REMARK  status: ('A' for Active; 'I' for Inactive)
REMARK    1  A    between atoms: N_1  and  C_17
REMARK    2  A    between atoms: C_4  and  C_11
REMARK    3  A    between atoms: C_16  and  N_22
REMARK                            x       y       z     vdW  Elec       q    Type
REMARK                         _______ _______ _______ _____ _____    ______ ____
ROOT
ATOM      1  N   UNL     1      35.479 -22.347 -16.547  0.00  0.00    -0.247 N 
ATOM      2  N   UNL     1      33.329 -22.833 -15.741  0.00  0.00    -0.341 NA
ATOM      3  N   UNL     1      35.292 -23.551 -14.541  0.00  0.00    -0.170 NA
ATOM      4  C   UNL     1      32.577 -23.411 -14.781  0.00  0.00    +0.140 C 
ATOM      5  C   UNL     1      34.661 -22.939 -15.563  0.00  0.00    +0.148 C 
ATOM      6  C   UNL     1      33.102 -24.067 -13.687  0.00  0.00    +0.051 C 
ATOM      7  C   UNL     1      34.480 -24.107 -13.618  0.00  0.00    +0.114 C 
ATOM      8  H   UNL     1      36.442 -22.451 -16.374  0.00  0.00    +0.165 HD
ENDROOT
BRANCH   4  11
ATOM      9  S   UNL     1      30.551 -22.455 -16.349  0.00  0.00    -0.074 S 
ATOM     10  N   UNL     1      28.836 -23.470 -14.702  0.00  0.00    -0.407 NA
ATOM     11  C   UNL     1      31.156 -23.294 -14.978  0.00  0.00    +0.155 C 
ATOM     12  C   UNL     1      30.099 -23.760 -14.222  0.00  0.00    +0.104 C 
ATOM     13  C   UNL     1      28.953 -22.785 -15.818  0.00  0.00    +0.135 C 
ATOM     14  C   UNL     1      30.198 -24.533 -12.966  0.00  0.00    +0.063 C 
ATOM     15  C   UNL     1      27.814 -22.299 -16.625  0.00  0.00    +0.074 C 
ENDBRANCH   4  11
BRANCH   1  17
ATOM     16  C   UNL     1      34.611 -20.228 -20.066  0.00  0.00    +0.048 C 
ATOM     17  C   UNL     1      35.188 -21.637 -17.730  0.00  0.00    +0.058 C 
ATOM     18  C   UNL     1      33.602 -20.932 -19.410  0.00  0.00    +0.016 C 
ATOM     19  C   UNL     1      35.909 -20.229 -19.556  0.00  0.00    +0.016 C 
ATOM     20  C   UNL     1      33.891 -21.637 -18.241  0.00  0.00    +0.017 C 
ATOM     21  C   UNL     1      36.198 -20.933 -18.387  0.00  0.00    +0.017 C 
BRANCH  16  22
ATOM     22  N   UNL     1      34.318 -19.515 -21.247  0.00  0.00    -0.304 N 
ATOM     23  C   UNL     1      32.969 -19.493 -21.777  0.00  0.00    +0.112 C 
ATOM     24  C   UNL     1      35.360 -18.782 -21.940  0.00  0.00    +0.112 C 
ENDBRANCH  16  22
ENDBRANCH   1  17
TORSDOF 3
ENDMDL
MODEL 8
REMARK VINA RESULT:      -8.9      2.512      7.068
REMARK  Name = 447962
REMARK  3 active torsions:
REMARK  status: ('A' for Active; 'I' for Inactive)
REMARK    1  A    between atoms: N_1  and  C_17
REMARK    2  A    between atoms: C_4  and  C_11
REMARK    3  A    between atoms: C_16  and  N_22
REMARK                            x       y       z     vdW  Elec       q    Type
REMARK                         _______ _______ _______ _____ _____    ______ ____
ROOT
ATOM      1  N   UNL     1      34.336 -23.308 -14.666  0.00  0.00    -0.247 N 
ATOM      2  N   UNL     1      34.641 -22.150 -16.684  0.00  0.00    -0.341 NA
ATOM      3  N   UNL     1      36.505 -22.613 -15.227  0.00  0.00    -0.170 NA
ATOM      4  C   UNL     1      35.500 -21.536 -17.525  0.00  0.00    +0.140 C 
ATOM      5  C   UNL     1      35.202 -22.660 -15.568  0.00  0.00    +0.148 C 
ATOM      6  C   UNL     1      36.855 -21.422 -17.290  0.00  0.00    +0.051 C 
ATOM      7  C   UNL     1      37.306 -21.984 -16.113  0.00  0.00    +0.114 C 
ATOM      8  H   UNL     1      34.790 -23.662 -13.867  0.00  0.00    +0.165 HD
ENDROOT
BRANCH   4  11
ATOM      9  S   UNL     1      35.854 -20.114 -19.832  0.00  0.00    -0.074 S 
ATOM     10  N   UNL     1      33.343 -20.417 -20.371  0.00  0.00    -0.407 NA
ATOM     11  C   UNL     1      34.895 -20.995 -18.713  0.00  0.00    +0.155 C 
ATOM     12  C   UNL     1      33.593 -21.051 -19.169  0.00  0.00    +0.104 C 
ATOM     13  C   UNL     1      34.463 -19.888 -20.812  0.00  0.00    +0.135 C 
ATOM     14  C   UNL     1      32.460 -21.721 -18.495  0.00  0.00    +0.063 C 
ATOM     15  C   UNL     1      34.591 -19.131 -22.075  0.00  0.00    +0.074 C 
ENDBRANCH   4  11
BRANCH   1  17
ATOM     16  C   UNL     1      30.199 -24.029 -14.716  0.00  0.00    +0.048 C 
ATOM     17  C   UNL     1      32.946 -23.549 -14.681  0.00  0.00    +0.058 C 
ATOM     18  C   UNL     1      30.771 -23.182 -15.665  0.00  0.00    +0.016 C 
ATOM     19  C   UNL     1      31.000 -24.636 -13.749  0.00  0.00    +0.016 C 
ATOM     20  C   UNL     1      32.145 -22.942 -15.648  0.00  0.00    +0.017 C 
ATOM     21  C   UNL     1      32.374 -24.396 -13.731  0.00  0.00    +0.017 C 
BRANCH  16  22
ATOM     22  N   UNL     1      28.810 -24.272 -14.735  0.00  0.00    -0.304 N 
ATOM     23  C   UNL     1      28.253 -25.407 -14.026  0.00  0.00    +0.112 C 
ATOM     24  C   UNL     1      27.918 -23.382 -15.453  0.00  0.00    +0.112 C 
ENDBRANCH  16  22
ENDBRANCH   1  17
TORSDOF 3
ENDMDL
MODEL 9
REMARK VINA RESULT:      -8.9     10.516     14.600
REMARK  Name = 447962
REMARK  3 active torsions:
REMARK  status: ('A' for Active; 'I' for Inactive)
REMARK    1  A    between atoms: N_1  and  C_17
REMARK    2  A    between atoms: C_4  and  C_11
REMARK    3  A    between atoms: C_16  and  N_22
REMARK                            x       y       z     vdW  Elec       q    Type
REMARK                         _______ _______ _______ _____ _____    ______ ____
ROOT
ATOM      1  N   UNL     1      31.740 -11.104 -20.185  0.00  0.00    -0.247 N 
ATOM      2  N   UNL     1      31.991  -9.175 -21.499  0.00  0.00    -0.341 NA
ATOM      3  N   UNL     1      31.086  -9.045 -19.269  0.00  0.00    -0.170 NA
ATOM      4  C   UNL     1      31.842  -7.838 -21.598  0.00  0.00    +0.140 C 
ATOM      5  C   UNL     1      31.599  -9.709 -20.324  0.00  0.00    +0.148 C 
ATOM      6  C   UNL     1      31.330  -7.047 -20.589  0.00  0.00    +0.051 C 
ATOM      7  C   UNL     1      30.964  -7.711 -19.436  0.00  0.00    +0.114 C 
ATOM      8  H   UNL     1      31.440 -11.446 -19.313  0.00  0.00    +0.165 HD
ENDROOT
BRANCH   4  11
ATOM      9  S   UNL     1      33.936  -7.049 -23.167  0.00  0.00    -0.074 S 
ATOM     10  N   UNL     1      32.259  -6.354 -25.007  0.00  0.00    -0.407 NA
ATOM     11  C   UNL     1      32.263  -7.276 -22.853  0.00  0.00    +0.155 C 
ATOM     12  C   UNL     1      31.530  -6.850 -23.943  0.00  0.00    +0.104 C 
ATOM     13  C   UNL     1      33.538  -6.411 -24.709  0.00  0.00    +0.135 C 
ATOM     14  C   UNL     1      30.058  -6.881 -24.071  0.00  0.00    +0.063 C 
ATOM     15  C   UNL     1      34.627  -5.970 -25.607  0.00  0.00    +0.074 C 
ENDBRANCH   4  11
BRANCH   1  17
ATOM     16  C   UNL     1      33.191 -14.083 -22.765  0.00  0.00    +0.048 C 
ATOM     17  C   UNL     1      32.226 -12.105 -21.051  0.00  0.00    +0.058 C 
ATOM     18  C   UNL     1      32.412 -13.042 -23.270  0.00  0.00    +0.016 C 
ATOM     19  C   UNL     1      33.487 -14.135 -21.403  0.00  0.00    +0.016 C 
ATOM     20  C   UNL     1      31.929 -12.054 -22.413  0.00  0.00    +0.017 C 
ATOM     21  C   UNL     1      33.005 -13.147 -20.546  0.00  0.00    +0.017 C 
BRANCH  16  22
ATOM     22  N   UNL     1      33.680 -15.082 -23.632  0.00  0.00    -0.304 N 
ATOM     23  C   UNL     1      34.496 -16.164 -23.120  0.00  0.00    +0.112 C 
ATOM     24  C   UNL     1      33.361 -15.047 -25.046  0.00  0.00    +0.112 C 
ENDBRANCH  16  22
ENDBRANCH   1  17
TORSDOF 3
ENDMDL
