MODEL 1
REMARK VINA RESULT:     -12.6      0.000      0.000
REMARK  Name = 60795
REMARK  7 active torsions:
REMARK  status: ('A' for Active; 'I' for Inactive)
REMARK    1  A    between atoms: C_1  and  N_2
REMARK    2  A    between atoms: C_1  and  C_17
REMARK    3  A    between atoms: N_3  and  C_11
REMARK    4  A    between atoms: C_17  and  C_18
REMARK    5  A    between atoms: C_18  and  C_19
REMARK    6  A    between atoms: C_19  and  O_20
REMARK    7  A    between atoms: O_20  and  C_26
REMARK                            x       y       z     vdW  Elec       q    Type
REMARK                         _______ _______ _______ _____ _____    ______ ____
ROOT
ATOM      1  C   UNL     1      32.356 -13.529 -21.382  0.00  0.00    -0.077 C 
ENDROOT
BRANCH   1   2
ATOM      2  N   UNL     1      31.789 -12.299 -21.934  0.00  0.00    +0.389 N 
ATOM      3  N   UNL     1      31.524  -9.476 -22.281  0.00  0.00    -0.311 N 
ATOM      4  C   UNL     1      31.219 -11.470 -20.865  0.00  0.00    -0.055 C 
ATOM      5  C   UNL     1      32.814 -11.541 -22.662  0.00  0.00    -0.055 C 
ATOM      6  C   UNL     1      30.571 -10.207 -21.436  0.00  0.00    +0.068 C 
ATOM      7  C   UNL     1      32.220 -10.278 -23.293  0.00  0.00    +0.068 C 
ATOM      8  H   UNL     1      31.046 -12.555 -22.584  0.00  0.00    -0.080 HD
BRANCH   3  11
ATOM      9 CL   UNL     1      31.992  -7.633 -19.947  0.00  0.00    -0.080 Cl
ATOM     10 CL   UNL     1      31.414  -4.545 -20.604  0.00  0.00    -0.081 Cl
ATOM     11  C   UNL     1      31.288  -8.117 -22.517  0.00  0.00    +0.059 C 
ATOM     12  C   UNL     1      31.461  -7.130 -21.522  0.00  0.00    +0.081 C 
ATOM     13  C   UNL     1      30.859  -7.697 -23.793  0.00  0.00    +0.015 C 
ATOM     14  C   UNL     1      31.214  -5.783 -21.793  0.00  0.00    +0.069 C 
ATOM     15  C   UNL     1      30.613  -6.351 -24.064  0.00  0.00    +0.002 C 
ATOM     16  C   UNL     1      30.791  -5.394 -23.064  0.00  0.00    +0.012 C 
ENDBRANCH   3  11
ENDBRANCH   1   2
BRANCH   1  17
ATOM     17  C   UNL     1      33.779 -13.735 -21.897  0.00  0.00    -0.019 C 
BRANCH  17  18
ATOM     18  C   UNL     1      34.174 -15.211 -21.854  0.00  0.00    +0.045 C 
BRANCH  18  19
ATOM     19  C   UNL     1      34.831 -15.656 -23.154  0.00  0.00    +0.205 C 
BRANCH  19  20
ATOM     20  O   UNL     1      34.540 -17.031 -23.396  0.00  0.00    -0.475 OA
BRANCH  20  26
ATOM     21  O   UNL     1      32.305 -21.900 -18.733  0.00  0.00    -0.275 OA
ATOM     22  N   UNL     1      33.033 -20.290 -20.200  0.00  0.00    -0.284 N 
ATOM     23  C   UNL     1      35.392 -19.713 -20.332  0.00  0.00    -0.008 C 
ATOM     24  C   UNL     1      35.658 -20.607 -19.156  0.00  0.00    +0.037 C 
ATOM     25  C   UNL     1      34.077 -19.555 -20.789  0.00  0.00    +0.049 C 
ATOM     26  C   UNL     1      34.816 -17.909 -22.393  0.00  0.00    +0.140 C 
ATOM     27  C   UNL     1      34.669 -21.762 -19.117  0.00  0.00    +0.090 C 
ATOM     28  C   UNL     1      33.786 -18.647 -21.812  0.00  0.00    +0.051 C 
ATOM     29  C   UNL     1      36.415 -18.958 -20.914  0.00  0.00    +0.000 C 
ATOM     30  C   UNL     1      36.128 -18.065 -21.948  0.00  0.00    +0.037 C 
ATOM     31  C   UNL     1      33.230 -21.314 -19.294  0.00  0.00    +0.226 C 
ATOM     32  H   UNL     1      32.107 -20.061 -20.447  0.00  0.00    +0.155 HD
ENDBRANCH  20  26
ENDBRANCH  19  20
ENDBRANCH  18  19
ENDBRANCH  17  18
ENDBRANCH   1  17
TORSDOF 7
ENDMDL
MODEL 2
REMARK VINA RESULT:     -12.5      4.574     11.695
REMARK  Name = 60795
REMARK  7 active torsions:
REMARK  status: ('A' for Active; 'I' for Inactive)
REMARK    1  A    between atoms: C_1  and  N_2
REMARK    2  A    between atoms: C_1  and  C_17
REMARK    3  A    between atoms: N_3  and  C_11
REMARK    4  A    between atoms: C_17  and  C_18
REMARK    5  A    between atoms: C_18  and  C_19
REMARK    6  A    between atoms: C_19  and  O_20
REMARK    7  A    between atoms: O_20  and  C_26
REMARK                            x       y       z     vdW  Elec       q    Type
REMARK                         _______ _______ _______ _____ _____    ______ ____
ROOT
ATOM      1  C   UNL     1      34.058 -15.609 -24.259  0.00  0.00    -0.077 C 
ENDROOT
BRANCH   1   2
ATOM      2  N   UNL     1      34.598 -16.692 -23.438  0.00  0.00    +0.389 N 
ATOM      3  N   UNL     1      34.545 -18.696 -21.402  0.00  0.00    -0.311 N 
ATOM      4  C   UNL     1      34.602 -16.311 -22.020  0.00  0.00    -0.055 C 
ATOM      5  C   UNL     1      33.813 -17.919 -23.623  0.00  0.00    -0.055 C 
ATOM      6  C   UNL     1      35.217 -17.413 -21.156  0.00  0.00    +0.068 C 
ATOM      7  C   UNL     1      34.401 -19.076 -22.811  0.00  0.00    +0.068 C 
ATOM      8  H   UNL     1      35.557 -16.868 -23.734  0.00  0.00    -0.080 HD
BRANCH   3  11
ATOM      9 CL   UNL     1      31.943 -19.855 -20.431  0.00  0.00    -0.080 Cl
ATOM     10 CL   UNL     1      32.295 -22.120 -18.184  0.00  0.00    -0.081 Cl
ATOM     11  C   UNL     1      34.645 -19.689 -20.422  0.00  0.00    +0.059 C 
ATOM     12  C   UNL     1      33.515 -20.328 -19.866  0.00  0.00    +0.081 C 
ATOM     13  C   UNL     1      35.917 -20.082 -19.957  0.00  0.00    +0.015 C 
ATOM     14  C   UNL     1      33.653 -21.314 -18.889  0.00  0.00    +0.069 C 
ATOM     15  C   UNL     1      36.055 -21.069 -18.982  0.00  0.00    +0.002 C 
ATOM     16  C   UNL     1      34.923 -21.685 -18.447  0.00  0.00    +0.012 C 
ENDBRANCH   3  11
ENDBRANCH   1   2
BRANCH   1  17
ATOM     17  C   UNL     1      33.904 -14.338 -23.426  0.00  0.00    -0.019 C 
BRANCH  17  18
ATOM     18  C   UNL     1      32.737 -13.487 -23.926  0.00  0.00    +0.045 C 
BRANCH  18  19
ATOM     19  C   UNL     1      32.782 -12.077 -23.352  0.00  0.00    +0.205 C 
BRANCH  19  20
ATOM     20  O   UNL     1      31.687 -11.884 -22.459  0.00  0.00    -0.475 OA
BRANCH  20  26
ATOM     21  O   UNL     1      32.401  -4.817 -22.583  0.00  0.00    -0.275 OA
ATOM     22  N   UNL     1      32.216  -7.106 -22.514  0.00  0.00    -0.284 N 
ATOM     23  C   UNL     1      31.467  -8.225 -20.490  0.00  0.00    -0.008 C 
ATOM     24  C   UNL     1      31.497  -6.907 -19.771  0.00  0.00    +0.037 C 
ATOM     25  C   UNL     1      31.867  -8.284 -21.831  0.00  0.00    +0.049 C 
ATOM     26  C   UNL     1      31.616 -10.685 -21.817  0.00  0.00    +0.140 C 
ATOM     27  C   UNL     1      31.208  -5.761 -20.728  0.00  0.00    +0.090 C 
ATOM     28  C   UNL     1      31.952  -9.513 -22.492  0.00  0.00    +0.051 C 
ATOM     29  C   UNL     1      31.145  -9.409 -19.818  0.00  0.00    +0.000 C 
ATOM     30  C   UNL     1      31.210 -10.634 -20.484  0.00  0.00    +0.037 C 
ATOM     31  C   UNL     1      32.025  -5.837 -22.004  0.00  0.00    +0.226 C 
ATOM     32  H   UNL     1      32.621  -7.191 -23.409  0.00  0.00    +0.155 HD
ENDBRANCH  20  26
ENDBRANCH  19  20
ENDBRANCH  18  19
ENDBRANCH  17  18
ENDBRANCH   1  17
TORSDOF 7
ENDMDL
MODEL 3
REMARK VINA RESULT:     -12.4      2.621      4.285
REMARK  Name = 60795
REMARK  7 active torsions:
REMARK  status: ('A' for Active; 'I' for Inactive)
REMARK    1  A    between atoms: C_1  and  N_2
REMARK    2  A    between atoms: C_1  and  C_17
REMARK    3  A    between atoms: N_3  and  C_11
REMARK    4  A    between atoms: C_17  and  C_18
REMARK    5  A    between atoms: C_18  and  C_19
REMARK    6  A    between atoms: C_19  and  O_20
REMARK    7  A    between atoms: O_20  and  C_26
REMARK                            x       y       z     vdW  Elec       q    Type
REMARK                         _______ _______ _______ _____ _____    ______ ____
ROOT
ATOM      1  C   UNL     1      34.124 -16.552 -24.149  0.00  0.00    -0.077 C 
ENDROOT
BRANCH   1   2
ATOM      2  N   UNL     1      34.039 -15.114 -23.900  0.00  0.00    +0.389 N 
ATOM      3  N   UNL     1      32.828 -12.693 -22.986  0.00  0.00    -0.311 N 
ATOM      4  C   UNL     1      32.902 -14.532 -24.624  0.00  0.00    -0.055 C 
ATOM      5  C   UNL     1      33.904 -14.848 -22.463  0.00  0.00    -0.055 C 
ATOM      6  C   UNL     1      32.836 -13.018 -24.418  0.00  0.00    +0.068 C 
ATOM      7  C   UNL     1      33.869 -13.342 -22.182  0.00  0.00    +0.068 C 
ATOM      8  H   UNL     1      34.899 -14.682 -24.235  0.00  0.00    -0.080 HD
BRANCH   3  11
ATOM      9 CL   UNL     1      31.665 -12.545 -20.213  0.00  0.00    -0.080 Cl
ATOM     10 CL   UNL     1      30.551  -9.638 -19.433  0.00  0.00    -0.081 Cl
ATOM     11  C   UNL     1      32.330 -11.445 -22.596  0.00  0.00    +0.059 C 
ATOM     12  C   UNL     1      31.752 -11.217 -21.328  0.00  0.00    +0.081 C 
ATOM     13  C   UNL     1      32.397 -10.359 -23.493  0.00  0.00    +0.015 C 
ATOM     14  C   UNL     1      31.264  -9.958 -20.975  0.00  0.00    +0.069 C 
ATOM     15  C   UNL     1      31.910  -9.101 -23.140  0.00  0.00    +0.002 C 
ATOM     16  C   UNL     1      31.343  -8.900 -21.881  0.00  0.00    +0.012 C 
ENDBRANCH   3  11
ENDBRANCH   1   2
BRANCH   1  17
ATOM     17  C   UNL     1      34.660 -17.274 -22.915  0.00  0.00    -0.019 C 
BRANCH  17  18
ATOM     18  C   UNL     1      34.257 -18.748 -22.917  0.00  0.00    +0.045 C 
BRANCH  18  19
ATOM     19  C   UNL     1      33.890 -19.233 -21.520  0.00  0.00    +0.205 C 
BRANCH  19  20
ATOM     20  O   UNL     1      35.008 -19.891 -20.928  0.00  0.00    -0.475 OA
BRANCH  20  26
ATOM     21  O   UNL     1      37.439 -22.733 -14.889  0.00  0.00    -0.275 OA
ATOM     22  N   UNL     1      36.651 -21.864 -16.863  0.00  0.00    -0.284 N 
ATOM     23  C   UNL     1      34.297 -22.053 -17.445  0.00  0.00    -0.008 C 
ATOM     24  C   UNL     1      34.087 -22.920 -16.238  0.00  0.00    +0.037 C 
ATOM     25  C   UNL     1      35.585 -21.586 -17.738  0.00  0.00    +0.049 C 
ATOM     26  C   UNL     1      34.777 -20.598 -19.787  0.00  0.00    +0.140 C 
ATOM     27  C   UNL     1      35.060 -22.551 -15.128  0.00  0.00    +0.090 C 
ATOM     28  C   UNL     1      35.829 -20.868 -18.912  0.00  0.00    +0.051 C 
ATOM     29  C   UNL     1      33.253 -21.788 -18.337  0.00  0.00    +0.000 C 
ATOM     30  C   UNL     1      33.492 -21.054 -19.500  0.00  0.00    +0.037 C 
ATOM     31  C   UNL     1      36.492 -22.430 -15.614  0.00  0.00    +0.226 C 
ATOM     32  H   UNL     1      37.564 -21.641 -17.160  0.00  0.00    +0.155 HD
ENDBRANCH  20  26
ENDBRANCH  19  20
ENDBRANCH  18  19
ENDBRANCH  17  18
ENDBRANCH   1  17
TORSDOF 7
ENDMDL
MODEL 4
REMARK VINA RESULT:     -12.3      5.911     12.784
REMARK  Name = 60795
REMARK  7 active torsions:
REMARK  status: ('A' for Active; 'I' for Inactive)
REMARK    1  A    between atoms: C_1  and  N_2
REMARK    2  A    between atoms: C_1  and  C_17
REMARK    3  A    between atoms: N_3  and  C_11
REMARK    4  A    between atoms: C_17  and  C_18
REMARK    5  A    between atoms: C_18  and  C_19
REMARK    6  A    between atoms: C_19  and  O_20
REMARK    7  A    between atoms: O_20  and  C_26
REMARK                            x       y       z     vdW  Elec       q    Type
REMARK                         _______ _______ _______ _____ _____    ______ ____
ROOT
ATOM      1  C   UNL     1      34.904 -20.799 -19.945  0.00  0.00    -0.077 C 
ENDROOT
BRANCH   1   2
ATOM      2  N   UNL     1      34.844 -21.020 -18.501  0.00  0.00    +0.389 N 
ATOM      3  N   UNL     1      35.242 -22.457 -16.064  0.00  0.00    -0.311 N 
ATOM      4  C   UNL     1      34.030 -22.203 -18.195  0.00  0.00    -0.055 C 
ATOM      5  C   UNL     1      36.194 -21.187 -17.949  0.00  0.00    -0.055 C 
ATOM      6  C   UNL     1      33.911 -22.412 -16.684  0.00  0.00    +0.068 C 
ATOM      7  C   UNL     1      36.149 -21.364 -16.429  0.00  0.00    +0.068 C 
ATOM      8  H   UNL     1      34.412 -20.203 -18.072  0.00  0.00    -0.080 HD
BRANCH   3  11
ATOM      9 CL   UNL     1      38.001 -23.414 -15.332  0.00  0.00    -0.080 Cl
ATOM     10 CL   UNL     1      38.161 -24.811 -12.447  0.00  0.00    -0.081 Cl
ATOM     11  C   UNL     1      35.366 -23.073 -14.814  0.00  0.00    +0.059 C 
ATOM     12  C   UNL     1      36.593 -23.575 -14.329  0.00  0.00    +0.081 C 
ATOM     13  C   UNL     1      34.229 -23.207 -13.990  0.00  0.00    +0.015 C 
ATOM     14  C   UNL     1      36.677 -24.184 -13.077  0.00  0.00    +0.069 C 
ATOM     15  C   UNL     1      34.314 -23.816 -12.738  0.00  0.00    +0.002 C 
ATOM     16  C   UNL     1      35.538 -24.304 -12.281  0.00  0.00    +0.012 C 
ENDBRANCH   3  11
ENDBRANCH   1   2
BRANCH   1  17
ATOM     17  C   UNL     1      33.805 -19.832 -20.380  0.00  0.00    -0.019 C 
BRANCH  17  18
ATOM     18  C   UNL     1      34.244 -19.002 -21.587  0.00  0.00    +0.045 C 
BRANCH  18  19
ATOM     19  C   UNL     1      35.464 -18.149 -21.268  0.00  0.00    +0.205 C 
BRANCH  19  20
ATOM     20  O   UNL     1      35.063 -16.974 -20.567  0.00  0.00    -0.475 OA
BRANCH  20  26
ATOM     21  O   UNL     1      31.055 -11.120 -20.915  0.00  0.00    -0.275 OA
ATOM     22  N   UNL     1      32.310 -13.041 -20.825  0.00  0.00    -0.284 N 
ATOM     23  C   UNL     1      33.395 -13.903 -22.824  0.00  0.00    -0.008 C 
ATOM     24  C   UNL     1      32.698 -12.849 -23.636  0.00  0.00    +0.037 C 
ATOM     25  C   UNL     1      33.145 -13.986 -21.448  0.00  0.00    +0.049 C 
ATOM     26  C   UNL     1      34.516 -15.968 -21.304  0.00  0.00    +0.140 C 
ATOM     27  C   UNL     1      32.452 -11.599 -22.804  0.00  0.00    +0.090 C 
ATOM     28  C   UNL     1      33.695 -15.023 -20.689  0.00  0.00    +0.051 C 
ATOM     29  C   UNL     1      34.209 -14.864 -23.432  0.00  0.00    +0.000 C 
ATOM     30  C   UNL     1      34.775 -15.888 -22.671  0.00  0.00    +0.037 C 
ATOM     31  C   UNL     1      31.842 -11.901 -21.449  0.00  0.00    +0.226 C 
ATOM     32  H   UNL     1      32.045 -13.201 -19.890  0.00  0.00    +0.155 HD
ENDBRANCH  20  26
ENDBRANCH  19  20
ENDBRANCH  18  19
ENDBRANCH  17  18
ENDBRANCH   1  17
TORSDOF 7
ENDMDL
MODEL 5
REMARK VINA RESULT:     -12.2      3.328      6.306
REMARK  Name = 60795
REMARK  7 active torsions:
REMARK  status: ('A' for Active; 'I' for Inactive)
REMARK    1  A    between atoms: C_1  and  N_2
REMARK    2  A    between atoms: C_1  and  C_17
REMARK    3  A    between atoms: N_3  and  C_11
REMARK    4  A    between atoms: C_17  and  C_18
REMARK    5  A    between atoms: C_18  and  C_19
REMARK    6  A    between atoms: C_19  and  O_20
REMARK    7  A    between atoms: O_20  and  C_26
REMARK                            x       y       z     vdW  Elec       q    Type
REMARK                         _______ _______ _______ _____ _____    ______ ____
ROOT
ATOM      1  C   UNL     1      34.908 -18.962 -21.985  0.00  0.00    -0.077 C 
ENDROOT
BRANCH   1   2
ATOM      2  N   UNL     1      34.892 -17.512 -22.166  0.00  0.00    +0.389 N 
ATOM      3  N   UNL     1      33.700 -14.926 -22.403  0.00  0.00    -0.311 N 
ATOM      4  C   UNL     1      34.132 -17.151 -23.370  0.00  0.00    -0.055 C 
ATOM      5  C   UNL     1      34.310 -16.852 -20.992  0.00  0.00    -0.055 C 
ATOM      6  C   UNL     1      34.156 -15.640 -23.603  0.00  0.00    +0.068 C 
ATOM      7  C   UNL     1      34.338 -15.328 -21.145  0.00  0.00    +0.068 C 
ATOM      8  H   UNL     1      35.855 -17.194 -22.278  0.00  0.00    -0.080 HD
BRANCH   3  11
ATOM      9 CL   UNL     1      32.017 -13.860 -20.146  0.00  0.00    -0.080 Cl
ATOM     10 CL   UNL     1      30.994 -10.853 -20.606  0.00  0.00    -0.081 Cl
ATOM     11  C   UNL     1      33.231 -13.617 -22.554  0.00  0.00    +0.059 C 
ATOM     12  C   UNL     1      32.429 -12.978 -21.584  0.00  0.00    +0.081 C 
ATOM     13  C   UNL     1      33.560 -12.890 -23.717  0.00  0.00    +0.015 C 
ATOM     14  C   UNL     1      31.977 -11.670 -21.770  0.00  0.00    +0.069 C 
ATOM     15  C   UNL     1      33.110 -11.583 -23.903  0.00  0.00    +0.002 C 
ATOM     16  C   UNL     1      32.318 -10.973 -22.929  0.00  0.00    +0.012 C 
ENDBRANCH   3  11
ENDBRANCH   1   2
BRANCH   1  17
ATOM     17  C   UNL     1      34.213 -19.342 -20.679  0.00  0.00    -0.019 C 
BRANCH  17  18
ATOM     18  C   UNL     1      34.966 -20.458 -19.956  0.00  0.00    +0.045 C 
BRANCH  18  19
ATOM     19  C   UNL     1      34.029 -21.578 -19.521  0.00  0.00    +0.205 C 
BRANCH  19  20
ATOM     20  O   UNL     1      34.515 -22.176 -18.321  0.00  0.00    -0.475 OA
BRANCH  20  26
ATOM     21  O   UNL     1      27.773 -22.354 -16.092  0.00  0.00    -0.275 OA
ATOM     22  N   UNL     1      29.959 -22.249 -16.786  0.00  0.00    -0.284 N 
ATOM     23  C   UNL     1      31.771 -22.770 -15.250  0.00  0.00    -0.008 C 
ATOM     24  C   UNL     1      30.771 -22.875 -14.135  0.00  0.00    +0.037 C 
ATOM     25  C   UNL     1      31.332 -22.420 -16.534  0.00  0.00    +0.049 C 
ATOM     26  C   UNL     1      33.615 -22.370 -17.317  0.00  0.00    +0.140 C 
ATOM     27  C   UNL     1      29.422 -23.343 -14.658  0.00  0.00    +0.090 C 
ATOM     28  C   UNL     1      32.252 -22.210 -17.565  0.00  0.00    +0.051 C 
ATOM     29  C   UNL     1      33.141 -22.914 -15.010  0.00  0.00    +0.000 C 
ATOM     30  C   UNL     1      34.059 -22.723 -16.044  0.00  0.00    +0.037 C 
ATOM     31  C   UNL     1      28.966 -22.577 -15.885  0.00  0.00    +0.226 C 
ATOM     32  H   UNL     1      29.691 -21.874 -17.657  0.00  0.00    +0.155 HD
ENDBRANCH  20  26
ENDBRANCH  19  20
ENDBRANCH  18  19
ENDBRANCH  17  18
ENDBRANCH   1  17
TORSDOF 7
ENDMDL
MODEL 6
REMARK VINA RESULT:     -12.1      5.225      8.462
REMARK  Name = 60795
REMARK  7 active torsions:
REMARK  status: ('A' for Active; 'I' for Inactive)
REMARK    1  A    between atoms: C_1  and  N_2
REMARK    2  A    between atoms: C_1  and  C_17
REMARK    3  A    between atoms: N_3  and  C_11
REMARK    4  A    between atoms: C_17  and  C_18
REMARK    5  A    between atoms: C_18  and  C_19
REMARK    6  A    between atoms: C_19  and  O_20
REMARK    7  A    between atoms: O_20  and  C_26
REMARK                            x       y       z     vdW  Elec       q    Type
REMARK                         _______ _______ _______ _____ _____    ______ ____
ROOT
ATOM      1  C   UNL     1      35.905 -21.274 -19.763  0.00  0.00    -0.077 C 
ENDROOT
BRANCH   1   2
ATOM      2  N   UNL     1      35.560 -20.176 -20.665  0.00  0.00    +0.389 N 
ATOM      3  N   UNL     1      34.735 -17.529 -21.355  0.00  0.00    -0.311 N 
ATOM      4  C   UNL     1      34.171 -19.751 -20.451  0.00  0.00    -0.055 C 
ATOM      5  C   UNL     1      36.466 -19.040 -20.463  0.00  0.00    -0.055 C 
ATOM      6  C   UNL     1      33.779 -18.641 -21.428  0.00  0.00    +0.068 C 
ATOM      7  C   UNL     1      36.151 -17.903 -21.440  0.00  0.00    +0.068 C 
ATOM      8  H   UNL     1      35.658 -20.509 -21.624  0.00  0.00    -0.080 HD
BRANCH   3  11
ATOM      9 CL   UNL     1      34.165 -17.323 -24.304  0.00  0.00    -0.080 Cl
ATOM     10 CL   UNL     1      33.229 -14.399 -25.238  0.00  0.00    -0.081 Cl
ATOM     11  C   UNL     1      34.321 -16.274 -21.813  0.00  0.00    +0.059 C 
ATOM     12  C   UNL     1      34.018 -16.018 -23.168  0.00  0.00    +0.081 C 
ATOM     13  C   UNL     1      34.197 -15.207 -20.899  0.00  0.00    +0.015 C 
ATOM     14  C   UNL     1      33.610 -14.752 -23.588  0.00  0.00    +0.069 C 
ATOM     15  C   UNL     1      33.787 -13.942 -21.319  0.00  0.00    +0.002 C 
ATOM     16  C   UNL     1      33.494 -13.714 -22.664  0.00  0.00    +0.012 C 
ENDBRANCH   3  11
ENDBRANCH   1   2
BRANCH   1  17
ATOM     17  C   UNL     1      35.347 -21.009 -18.366  0.00  0.00    -0.019 C 
BRANCH  17  18
ATOM     18  C   UNL     1      36.382 -21.329 -17.288  0.00  0.00    +0.045 C 
BRANCH  18  19
ATOM     19  C   UNL     1      35.770 -22.115 -16.136  0.00  0.00    +0.205 C 
BRANCH  19  20
ATOM     20  O   UNL     1      34.759 -22.990 -16.632  0.00  0.00    -0.475 OA
BRANCH  20  26
ATOM     21  O   UNL     1      27.723 -22.071 -16.954  0.00  0.00    -0.275 OA
ATOM     22  N   UNL     1      30.002 -22.319 -16.826  0.00  0.00    -0.284 N 
ATOM     23  C   UNL     1      31.067 -22.890 -14.715  0.00  0.00    -0.008 C 
ATOM     24  C   UNL     1      29.740 -22.745 -14.027  0.00  0.00    +0.037 C 
ATOM     25  C   UNL     1      31.158 -22.633 -16.090  0.00  0.00    +0.049 C 
ATOM     26  C   UNL     1      33.549 -22.957 -16.006  0.00  0.00    +0.140 C 
ATOM     27  C   UNL     1      28.599 -23.095 -14.970  0.00  0.00    +0.090 C 
ATOM     28  C   UNL     1      32.399 -22.655 -16.734  0.00  0.00    +0.051 C 
ATOM     29  C   UNL     1      32.229 -23.178 -13.993  0.00  0.00    +0.000 C 
ATOM     30  C   UNL     1      33.466 -23.220 -14.640  0.00  0.00    +0.037 C 
ATOM     31  C   UNL     1      28.720 -22.417 -16.322  0.00  0.00    +0.226 C 
ATOM     32  H   UNL     1      30.113 -22.013 -17.756  0.00  0.00    +0.155 HD
ENDBRANCH  20  26
ENDBRANCH  19  20
ENDBRANCH  18  19
ENDBRANCH  17  18
ENDBRANCH   1  17
TORSDOF 7
ENDMDL
MODEL 7
REMARK VINA RESULT:     -12.1      5.249      8.754
REMARK  Name = 60795
REMARK  7 active torsions:
REMARK  status: ('A' for Active; 'I' for Inactive)
REMARK    1  A    between atoms: C_1  and  N_2
REMARK    2  A    between atoms: C_1  and  C_17
REMARK    3  A    between atoms: N_3  and  C_11
REMARK    4  A    between atoms: C_17  and  C_18
REMARK    5  A    between atoms: C_18  and  C_19
REMARK    6  A    between atoms: C_19  and  O_20
REMARK    7  A    between atoms: O_20  and  C_26
REMARK                            x       y       z     vdW  Elec       q    Type
REMARK                         _______ _______ _______ _____ _____    ______ ____
ROOT
ATOM      1  C   UNL     1      35.309 -21.253 -19.350  0.00  0.00    -0.077 C 
ENDROOT
BRANCH   1   2
ATOM      2  N   UNL     1      35.187 -20.354 -20.496  0.00  0.00    +0.389 N 
ATOM      3  N   UNL     1      34.626 -17.890 -21.829  0.00  0.00    -0.311 N 
ATOM      4  C   UNL     1      33.803 -19.884 -20.637  0.00  0.00    -0.055 C 
ATOM      5  C   UNL     1      36.091 -19.207 -20.349  0.00  0.00    -0.055 C 
ATOM      6  C   UNL     1      33.651 -18.987 -21.867  0.00  0.00    +0.068 C 
ATOM      7  C   UNL     1      36.014 -18.285 -21.569  0.00  0.00    +0.068 C 
ATOM      8  H   UNL     1      35.447 -20.871 -21.335  0.00  0.00    -0.080 HD
BRANCH   3  11
ATOM      9 CL   UNL     1      34.224 -15.338 -20.284  0.00  0.00    -0.080 Cl
ATOM     10 CL   UNL     1      33.621 -12.787 -22.137  0.00  0.00    -0.081 Cl
ATOM     11  C   UNL     1      34.362 -16.748 -22.592  0.00  0.00    +0.059 C 
ATOM     12  C   UNL     1      34.149 -15.477 -22.013  0.00  0.00    +0.081 C 
ATOM     13  C   UNL     1      34.300 -16.848 -23.997  0.00  0.00    +0.015 C 
ATOM     14  C   UNL     1      33.886 -14.359 -22.806  0.00  0.00    +0.069 C 
ATOM     15  C   UNL     1      34.039 -15.731 -24.790  0.00  0.00    +0.002 C 
ATOM     16  C   UNL     1      33.832 -14.486 -24.194  0.00  0.00    +0.012 C 
ENDBRANCH   3  11
ENDBRANCH   1   2
BRANCH   1  17
ATOM     17  C   UNL     1      34.062 -22.127 -19.226  0.00  0.00    -0.019 C 
BRANCH  17  18
ATOM     18  C   UNL     1      33.102 -21.576 -18.172  0.00  0.00    +0.045 C 
BRANCH  18  19
ATOM     19  C   UNL     1      32.750 -22.626 -17.127  0.00  0.00    +0.205 C 
BRANCH  19  20
ATOM     20  O   UNL     1      33.868 -23.485 -16.909  0.00  0.00    -0.475 OA
BRANCH  20  26
ATOM     21  O   UNL     1      34.933 -24.784 -10.007  0.00  0.00    -0.275 OA
ATOM     22  N   UNL     1      34.569 -24.314 -12.226  0.00  0.00    -0.284 N 
ATOM     23  C   UNL     1      36.089 -22.860 -13.447  0.00  0.00    -0.008 C 
ATOM     24  C   UNL     1      36.811 -22.566 -12.164  0.00  0.00    +0.037 C 
ATOM     25  C   UNL     1      34.965 -23.696 -13.426  0.00  0.00    +0.049 C 
ATOM     26  C   UNL     1      34.593 -23.282 -15.775  0.00  0.00    +0.140 C 
ATOM     27  C   UNL     1      36.731 -23.751 -11.213  0.00  0.00    +0.090 C 
ATOM     28  C   UNL     1      34.211 -23.900 -14.585  0.00  0.00    +0.051 C 
ATOM     29  C   UNL     1      36.455 -22.234 -14.643  0.00  0.00    +0.000 C 
ATOM     30  C   UNL     1      35.714 -22.453 -15.806  0.00  0.00    +0.037 C 
ATOM     31  C   UNL     1      35.324 -24.300 -11.069  0.00  0.00    +0.226 C 
ATOM     32  H   UNL     1      33.704 -24.785 -12.210  0.00  0.00    +0.155 HD
ENDBRANCH  20  26
ENDBRANCH  19  20
ENDBRANCH  18  19
ENDBRANCH  17  18
ENDBRANCH   1  17
TORSDOF 7
ENDMDL
MODEL 8
REMARK VINA RESULT:     -12.0      2.942      4.672
REMARK  Name = 60795
REMARK  7 active torsions:
REMARK  status: ('A' for Active; 'I' for Inactive)
REMARK    1  A    between atoms: C_1  and  N_2
REMARK    2  A    between atoms: C_1  and  C_17
REMARK    3  A    between atoms: N_3  and  C_11
REMARK    4  A    between atoms: C_17  and  C_18
REMARK    5  A    between atoms: C_18  and  C_19
REMARK    6  A    between atoms: C_19  and  O_20
REMARK    7  A    between atoms: O_20  and  C_26
REMARK                            x       y       z     vdW  Elec       q    Type
REMARK                         _______ _______ _______ _____ _____    ______ ____
ROOT
ATOM      1  C   UNL     1      34.978 -16.409 -22.460  0.00  0.00    -0.077 C 
ENDROOT
BRANCH   1   2
ATOM      2  N   UNL     1      33.901 -15.423 -22.390  0.00  0.00    +0.389 N 
ATOM      3  N   UNL     1      32.769 -12.804 -22.239  0.00  0.00    -0.311 N 
ATOM      4  C   UNL     1      33.998 -14.642 -21.150  0.00  0.00    -0.055 C 
ATOM      5  C   UNL     1      33.948 -14.525 -23.550  0.00  0.00    -0.055 C 
ATOM      6  C   UNL     1      32.843 -13.645 -21.037  0.00  0.00    +0.068 C 
ATOM      7  C   UNL     1      32.792 -13.522 -23.517  0.00  0.00    +0.068 C 
ATOM      8  H   UNL     1      33.012 -15.922 -22.396  0.00  0.00    -0.080 HD
BRANCH   3  11
ATOM      9 CL   UNL     1      33.892 -10.561 -23.902  0.00  0.00    -0.080 Cl
ATOM     10 CL   UNL     1      32.286  -7.798 -23.601  0.00  0.00    -0.081 Cl
ATOM     11  C   UNL     1      32.102 -11.578 -22.144  0.00  0.00    +0.059 C 
ATOM     12  C   UNL     1      32.509 -10.431 -22.861  0.00  0.00    +0.081 C 
ATOM     13  C   UNL     1      30.976 -11.462 -21.303  0.00  0.00    +0.015 C 
ATOM     14  C   UNL     1      31.820  -9.224 -22.740  0.00  0.00    +0.069 C 
ATOM     15  C   UNL     1      30.287 -10.255 -21.183  0.00  0.00    +0.002 C 
ATOM     16  C   UNL     1      30.709  -9.136 -21.901  0.00  0.00    +0.012 C 
ENDBRANCH   3  11
ENDBRANCH   1   2
BRANCH   1  17
ATOM     17  C   UNL     1      34.937 -17.328 -21.241  0.00  0.00    -0.019 C 
BRANCH  17  18
ATOM     18  C   UNL     1      34.897 -18.798 -21.656  0.00  0.00    +0.045 C 
BRANCH  18  19
ATOM     19  C   UNL     1      34.226 -19.663 -20.598  0.00  0.00    +0.205 C 
BRANCH  19  20
ATOM     20  O   UNL     1      35.110 -20.709 -20.198  0.00  0.00    -0.475 OA
BRANCH  20  26
ATOM     21  O   UNL     1      37.411 -22.688 -13.776  0.00  0.00    -0.275 OA
ATOM     22  N   UNL     1      36.669 -22.100 -15.869  0.00  0.00    -0.284 N 
ATOM     23  C   UNL     1      34.363 -22.511 -16.523  0.00  0.00    -0.008 C 
ATOM     24  C   UNL     1      34.148 -23.250 -15.234  0.00  0.00    +0.037 C 
ATOM     25  C   UNL     1      35.633 -21.995 -16.813  0.00  0.00    +0.049 C 
ATOM     26  C   UNL     1      34.868 -21.299 -18.995  0.00  0.00    +0.140 C 
ATOM     27  C   UNL     1      35.040 -22.695 -14.135  0.00  0.00    +0.090 C 
ATOM     28  C   UNL     1      35.889 -21.398 -18.051  0.00  0.00    +0.051 C 
ATOM     29  C   UNL     1      33.350 -22.419 -17.482  0.00  0.00    +0.000 C 
ATOM     30  C   UNL     1      33.600 -21.805 -18.711  0.00  0.00    +0.037 C 
ATOM     31  C   UNL     1      36.484 -22.533 -14.570  0.00  0.00    +0.226 C 
ATOM     32  H   UNL     1      37.580 -21.852 -16.150  0.00  0.00    +0.155 HD
ENDBRANCH  20  26
ENDBRANCH  19  20
ENDBRANCH  18  19
ENDBRANCH  17  18
ENDBRANCH   1  17
TORSDOF 7
ENDMDL
MODEL 9
REMARK VINA RESULT:     -12.0      4.942     11.849
REMARK  Name = 60795
REMARK  7 active torsions:
REMARK  status: ('A' for Active; 'I' for Inactive)
REMARK    1  A    between atoms: C_1  and  N_2
REMARK    2  A    between atoms: C_1  and  C_17
REMARK    3  A    between atoms: N_3  and  C_11
REMARK    4  A    between atoms: C_17  and  C_18
REMARK    5  A    between atoms: C_18  and  C_19
REMARK    6  A    between atoms: C_19  and  O_20
REMARK    7  A    between atoms: O_20  and  C_26
REMARK                            x       y       z     vdW  Elec       q    Type
REMARK                         _______ _______ _______ _____ _____    ______ ____
ROOT
ATOM      1  C   UNL     1      35.137 -18.707 -21.896  0.00  0.00    -0.077 C 
ENDROOT
BRANCH   1   2
ATOM      2  N   UNL     1      34.794 -19.855 -21.058  0.00  0.00    +0.389 N 
ATOM      3  N   UNL     1      34.157 -21.209 -18.624  0.00  0.00    -0.311 N 
ATOM      4  C   UNL     1      35.827 -20.076 -20.039  0.00  0.00    -0.055 C 
ATOM      5  C   UNL     1      33.492 -19.650 -20.412  0.00  0.00    -0.055 C 
ATOM      6  C   UNL     1      35.508 -21.309 -19.191  0.00  0.00    +0.068 C 
ATOM      7  C   UNL     1      33.094 -20.869 -19.575  0.00  0.00    +0.068 C 
ATOM      8  H   UNL     1      34.738 -20.680 -21.655  0.00  0.00    -0.080 HD
BRANCH   3  11
ATOM      9 CL   UNL     1      36.430 -21.681 -16.708  0.00  0.00    -0.080 Cl
ATOM     10 CL   UNL     1      35.627 -23.466 -14.164  0.00  0.00    -0.081 Cl
ATOM     11  C   UNL     1      33.858 -21.981 -17.497  0.00  0.00    +0.059 C 
ATOM     12  C   UNL     1      34.817 -22.291 -16.508  0.00  0.00    +0.081 C 
ATOM     13  C   UNL     1      32.550 -22.480 -17.323  0.00  0.00    +0.015 C 
ATOM     14  C   UNL     1      34.482 -23.066 -15.397  0.00  0.00    +0.069 C 
ATOM     15  C   UNL     1      32.215 -23.254 -16.212  0.00  0.00    +0.002 C 
ATOM     16  C   UNL     1      33.181 -23.547 -15.249  0.00  0.00    +0.012 C 
ENDBRANCH   3  11
ENDBRANCH   1   2
BRANCH   1  17
ATOM     17  C   UNL     1      34.103 -18.532 -23.006  0.00  0.00    -0.019 C 
BRANCH  17  18
ATOM     18  C   UNL     1      34.125 -17.109 -23.563  0.00  0.00    +0.045 C 
BRANCH  18  19
ATOM     19  C   UNL     1      34.741 -16.127 -22.575  0.00  0.00    +0.205 C 
BRANCH  19  20
ATOM     20  O   UNL     1      34.680 -14.805 -23.105  0.00  0.00    -0.475 OA
BRANCH  20  26
ATOM     21  O   UNL     1      31.189  -8.619 -23.149  0.00  0.00    -0.275 OA
ATOM     22  N   UNL     1      32.353 -10.598 -23.098  0.00  0.00    -0.284 N 
ATOM     23  C   UNL     1      32.091 -12.138 -21.234  0.00  0.00    -0.008 C 
ATOM     24  C   UNL     1      31.245 -11.117 -20.531  0.00  0.00    +0.037 C 
ATOM     25  C   UNL     1      32.650 -11.826 -22.481  0.00  0.00    +0.049 C 
ATOM     26  C   UNL     1      33.833 -13.931 -22.494  0.00  0.00    +0.140 C 
ATOM     27  C   UNL     1      30.496 -10.251 -21.533  0.00  0.00    +0.090 C 
ATOM     28  C   UNL     1      33.528 -12.715 -23.107  0.00  0.00    +0.051 C 
ATOM     29  C   UNL     1      32.415 -13.354 -20.623  0.00  0.00    +0.000 C 
ATOM     30  C   UNL     1      33.276 -14.251 -21.257  0.00  0.00    +0.037 C 
ATOM     31  C   UNL     1      31.389  -9.722 -22.640  0.00  0.00    +0.226 C 
ATOM     32  H   UNL     1      32.862 -10.349 -23.904  0.00  0.00    +0.155 HD
ENDBRANCH  20  26
ENDBRANCH  19  20
ENDBRANCH  18  19
ENDBRANCH  17  18
ENDBRANCH   1  17
TORSDOF 7
ENDMDL
