MODEL 1
REMARK VINA RESULT:     -13.6      0.000      0.000
REMARK  Name = 5288711
REMARK  4 active torsions:
REMARK  status: ('A' for Active; 'I' for Inactive)
REMARK    1  A    between atoms: C_1  and  S_7
REMARK    2  A    between atoms: C_2  and  N_17
REMARK    3  A    between atoms: S_7  and  N_11
REMARK    4  A    between atoms: N_17  and  C_25
REMARK                            x       y       z     vdW  Elec       q    Type
REMARK                         _______ _______ _______ _____ _____    ______ ____
ROOT
ATOM      1  C   UNL     1      33.869 -21.512 -18.864  0.00  0.00    +0.125 C 
ATOM      2  C   UNL     1      34.777 -19.553 -20.641  0.00  0.00    +0.048 C 
ATOM      3  C   UNL     1      32.955 -20.773 -19.615  0.00  0.00    +0.021 C 
ATOM      4  C   UNL     1      35.237 -21.273 -19.000  0.00  0.00    +0.021 C 
ATOM      5  C   UNL     1      33.407 -19.796 -20.501  0.00  0.00    +0.016 C 
ATOM      6  C   UNL     1      35.690 -20.297 -19.887  0.00  0.00    +0.016 C 
ENDROOT
BRANCH   1   7
ATOM      7  S   UNL     1      33.303 -22.734 -17.753  0.00  0.00    +0.075 S 
ATOM      8  O   UNL     1      33.072 -23.964 -18.500  0.00  0.00    -0.150 OA
ATOM      9  O   UNL     1      34.209 -22.748 -16.611  0.00  0.00    -0.150 OA
BRANCH   7  11
ATOM     10  S   UNL     1      29.447 -22.994 -16.103  0.00  0.00    -0.050 S 
ATOM     11  N   UNL     1      31.785 -22.079 -17.283  0.00  0.00    -0.194 N 
ATOM     12  N   UNL     1      31.824 -23.119 -15.095  0.00  0.00    -0.221 NA
ATOM     13  C   UNL     1      31.130 -22.730 -16.127  0.00  0.00    +0.179 C 
ATOM     14  C   UNL     1      29.625 -23.708 -14.553  0.00  0.00    +0.059 C 
ATOM     15  C   UNL     1      30.954 -23.685 -14.183  0.00  0.00    +0.108 C 
ATOM     16  H   UNL     1      31.377 -21.317 -17.754  0.00  0.00    +0.176 HD
ENDBRANCH   7  11
ENDBRANCH   1   7
BRANCH   2  17
ATOM     17  N   UNL     1      35.232 -18.569 -21.534  0.00  0.00    -0.311 N 
ATOM     18  H   UNL     1      35.865 -18.877 -22.222  0.00  0.00    +0.152 HD
BRANCH  17  25
ATOM     19  O   UNL     1      34.116 -18.367 -24.202  0.00  0.00    -0.270 OA
ATOM     20  N   UNL     1      33.438 -16.145 -24.630  0.00  0.00    -0.280 N 
ATOM     21  C   UNL     1      34.012 -15.154 -22.636  0.00  0.00    +0.019 C 
ATOM     22  C   UNL     1      34.357 -16.571 -22.578  0.00  0.00    +0.069 C 
ATOM     23  C   UNL     1      33.457 -14.949 -23.903  0.00  0.00    +0.051 C 
ATOM     24  C   UNL     1      33.977 -17.200 -23.887  0.00  0.00    +0.251 C 
ATOM     25  C   UNL     1      34.915 -17.250 -21.574  0.00  0.00    +0.066 C 
ATOM     26  C   UNL     1      34.132 -14.108 -21.741  0.00  0.00    +0.001 C 
ATOM     27  C   UNL     1      33.008 -13.713 -24.322  0.00  0.00    +0.015 C 
ATOM     28  C   UNL     1      33.683 -12.846 -22.145  0.00  0.00    +0.000 C 
ATOM     29  C   UNL     1      33.126 -12.651 -23.423  0.00  0.00    +0.001 C 
ATOM     30  H   UNL     1      33.091 -16.232 -25.547  0.00  0.00    +0.155 HD
ENDBRANCH  17  25
ENDBRANCH   2  17
TORSDOF 4
ENDMDL
MODEL 2
REMARK VINA RESULT:     -13.1      1.912      2.207
REMARK  Name = 5288711
REMARK  4 active torsions:
REMARK  status: ('A' for Active; 'I' for Inactive)
REMARK    1  A    between atoms: C_1  and  S_7
REMARK    2  A    between atoms: C_2  and  N_17
REMARK    3  A    between atoms: S_7  and  N_11
REMARK    4  A    between atoms: N_17  and  C_25
REMARK                            x       y       z     vdW  Elec       q    Type
REMARK                         _______ _______ _______ _____ _____    ______ ____
ROOT
ATOM      1  C   UNL     1      33.993 -20.905 -19.506  0.00  0.00    +0.125 C 
ATOM      2  C   UNL     1      34.707 -18.865 -21.280  0.00  0.00    +0.048 C 
ATOM      3  C   UNL     1      33.010 -20.248 -20.247  0.00  0.00    +0.021 C 
ATOM      4  C   UNL     1      35.332 -20.544 -19.651  0.00  0.00    +0.021 C 
ATOM      5  C   UNL     1      33.366 -19.231 -21.132  0.00  0.00    +0.016 C 
ATOM      6  C   UNL     1      35.689 -19.526 -20.536  0.00  0.00    +0.016 C 
ENDROOT
BRANCH   1   7
ATOM      7  S   UNL     1      33.548 -22.178 -18.398  0.00  0.00    +0.075 S 
ATOM      8  O   UNL     1      32.376 -21.747 -17.646  0.00  0.00    -0.150 OA
ATOM      9  O   UNL     1      33.497 -23.424 -19.153  0.00  0.00    -0.150 OA
BRANCH   7  11
ATOM     10  S   UNL     1      35.367 -22.102 -14.610  0.00  0.00    -0.050 S 
ATOM     11  N   UNL     1      34.906 -22.192 -17.345  0.00  0.00    -0.194 N 
ATOM     12  N   UNL     1      33.957 -23.865 -15.869  0.00  0.00    -0.221 NA
ATOM     13  C   UNL     1      34.683 -22.792 -16.011  0.00  0.00    +0.179 C 
ATOM     14  C   UNL     1      34.634 -23.349 -13.690  0.00  0.00    +0.059 C 
ATOM     15  C   UNL     1      33.928 -24.189 -14.527  0.00  0.00    +0.108 C 
ATOM     16  H   UNL     1      35.779 -21.825 -17.613  0.00  0.00    +0.176 HD
ENDBRANCH   7  11
ENDBRANCH   1   7
BRANCH   2  17
ATOM     17  N   UNL     1      35.065 -17.840 -22.171  0.00  0.00    -0.311 N 
ATOM     18  H   UNL     1      35.627 -18.113 -22.932  0.00  0.00    +0.152 HD
BRANCH  17  25
ATOM     19  O   UNL     1      33.818 -17.499 -24.766  0.00  0.00    -0.270 OA
ATOM     20  N   UNL     1      33.108 -15.262 -25.035  0.00  0.00    -0.280 N 
ATOM     21  C   UNL     1      33.774 -14.378 -23.019  0.00  0.00    +0.019 C 
ATOM     22  C   UNL     1      34.130 -15.793 -23.058  0.00  0.00    +0.069 C 
ATOM     23  C   UNL     1      33.157 -14.108 -24.244  0.00  0.00    +0.051 C 
ATOM     24  C   UNL     1      33.688 -16.353 -24.379  0.00  0.00    +0.251 C 
ATOM     25  C   UNL     1      34.740 -16.523 -22.122  0.00  0.00    +0.066 C 
ATOM     26  C   UNL     1      33.934 -13.383 -22.075  0.00  0.00    +0.001 C 
ATOM     27  C   UNL     1      32.681 -12.854 -24.572  0.00  0.00    +0.015 C 
ATOM     28  C   UNL     1      33.458 -12.104 -22.386  0.00  0.00    +0.000 C 
ATOM     29  C   UNL     1      32.838 -11.843 -23.622  0.00  0.00    +0.001 C 
ATOM     30  H   UNL     1      32.716 -15.301 -25.937  0.00  0.00    +0.155 HD
ENDBRANCH  17  25
ENDBRANCH   2  17
TORSDOF 4
ENDMDL
MODEL 3
REMARK VINA RESULT:     -12.9      4.828      9.936
REMARK  Name = 5288711
REMARK  4 active torsions:
REMARK  status: ('A' for Active; 'I' for Inactive)
REMARK    1  A    between atoms: C_1  and  S_7
REMARK    2  A    between atoms: C_2  and  N_17
REMARK    3  A    between atoms: S_7  and  N_11
REMARK    4  A    between atoms: N_17  and  C_25
REMARK                            x       y       z     vdW  Elec       q    Type
REMARK                         _______ _______ _______ _____ _____    ______ ____
ROOT
ATOM      1  C   UNL     1      33.412 -13.806 -23.579  0.00  0.00    +0.125 C 
ATOM      2  C   UNL     1      34.266 -16.428 -23.119  0.00  0.00    +0.048 C 
ATOM      3  C   UNL     1      33.854 -14.184 -22.311  0.00  0.00    +0.021 C 
ATOM      4  C   UNL     1      33.397 -14.736 -24.617  0.00  0.00    +0.021 C 
ATOM      5  C   UNL     1      34.281 -15.492 -22.082  0.00  0.00    +0.016 C 
ATOM      6  C   UNL     1      33.824 -16.045 -24.389  0.00  0.00    +0.016 C 
ENDROOT
BRANCH   1   7
ATOM      7  S   UNL     1      32.877 -12.169 -23.866  0.00  0.00    +0.075 S 
ATOM      8  O   UNL     1      33.980 -11.264 -23.566  0.00  0.00    -0.150 OA
ATOM      9  O   UNL     1      32.257 -12.131 -25.184  0.00  0.00    -0.150 OA
BRANCH   7  11
ATOM     10  S   UNL     1      31.244 -10.404 -20.419  0.00  0.00    -0.050 S 
ATOM     11  N   UNL     1      31.673 -11.994 -22.651  0.00  0.00    -0.194 N 
ATOM     12  N   UNL     1      31.589  -9.580 -22.845  0.00  0.00    -0.221 NA
ATOM     13  C   UNL     1      31.519 -10.637 -22.085  0.00  0.00    +0.179 C 
ATOM     14  C   UNL     1      31.209  -8.713 -20.705  0.00  0.00    +0.059 C 
ATOM     15  C   UNL     1      31.409  -8.467 -22.047  0.00  0.00    +0.108 C 
ATOM     16  H   UNL     1      31.120 -12.751 -22.352  0.00  0.00    +0.176 HD
ENDBRANCH   7  11
ENDBRANCH   1   7
BRANCH   2  17
ATOM     17  N   UNL     1      34.696 -17.745 -22.888  0.00  0.00    -0.311 N 
ATOM     18  H   UNL     1      35.473 -18.040 -23.416  0.00  0.00    +0.152 HD
BRANCH  17  25
ATOM     19  O   UNL     1      36.989 -18.233 -21.182  0.00  0.00    -0.270 OA
ATOM     20  N   UNL     1      36.444 -19.831 -19.530  0.00  0.00    -0.280 N 
ATOM     21  C   UNL     1      34.253 -20.259 -20.086  0.00  0.00    +0.019 C 
ATOM     22  C   UNL     1      34.793 -19.268 -21.012  0.00  0.00    +0.069 C 
ATOM     23  C   UNL     1      35.297 -20.566 -19.208  0.00  0.00    +0.051 C 
ATOM     24  C   UNL     1      36.221 -19.002 -20.634  0.00  0.00    +0.251 C 
ATOM     25  C   UNL     1      34.182 -18.666 -22.034  0.00  0.00    +0.066 C 
ATOM     26  C   UNL     1      33.020 -20.869 -19.958  0.00  0.00    +0.001 C 
ATOM     27  C   UNL     1      35.155 -21.479 -18.182  0.00  0.00    +0.015 C 
ATOM     28  C   UNL     1      32.854 -21.798 -18.924  0.00  0.00    +0.000 C 
ATOM     29  C   UNL     1      33.911 -22.099 -18.045  0.00  0.00    +0.001 C 
ATOM     30  H   UNL     1      37.296 -19.890 -19.043  0.00  0.00    +0.155 HD
ENDBRANCH  17  25
ENDBRANCH   2  17
TORSDOF 4
ENDMDL
MODEL 4
REMARK VINA RESULT:     -12.7      2.022      2.276
REMARK  Name = 5288711
REMARK  4 active torsions:
REMARK  status: ('A' for Active; 'I' for Inactive)
REMARK    1  A    between atoms: C_1  and  S_7
REMARK    2  A    between atoms: C_2  and  N_17
REMARK    3  A    between atoms: S_7  and  N_11
REMARK    4  A    between atoms: N_17  and  C_25
REMARK                            x       y       z     vdW  Elec       q    Type
REMARK                         _______ _______ _______ _____ _____    ______ ____
ROOT
ATOM      1  C   UNL     1      33.461 -21.722 -18.378  0.00  0.00    +0.125 C 
ATOM      2  C   UNL     1      34.716 -19.971 -20.161  0.00  0.00    +0.048 C 
ATOM      3  C   UNL     1      32.695 -20.924 -19.229  0.00  0.00    +0.021 C 
ATOM      4  C   UNL     1      34.853 -21.646 -18.417  0.00  0.00    +0.021 C 
ATOM      5  C   UNL     1      33.321 -20.052 -20.118  0.00  0.00    +0.016 C 
ATOM      6  C   UNL     1      35.480 -20.773 -19.307  0.00  0.00    +0.016 C 
ENDROOT
BRANCH   1   7
ATOM      7  S   UNL     1      32.678 -22.815 -17.264  0.00  0.00    +0.075 S 
ATOM      8  O   UNL     1      31.246 -22.549 -17.287  0.00  0.00    -0.150 OA
ATOM      9  O   UNL     1      33.163 -24.159 -17.549  0.00  0.00    -0.150 OA
BRANCH   7  11
ATOM     10  S   UNL     1      34.103 -23.404 -13.354  0.00  0.00    -0.050 S 
ATOM     11  N   UNL     1      33.317 -22.273 -15.763  0.00  0.00    -0.194 N 
ATOM     12  N   UNL     1      35.045 -23.971 -15.693  0.00  0.00    -0.221 NA
ATOM     13  C   UNL     1      34.188 -23.232 -15.047  0.00  0.00    +0.179 C 
ATOM     14  C   UNL     1      35.335 -24.592 -13.456  0.00  0.00    +0.059 C 
ATOM     15  C   UNL     1      35.710 -24.758 -14.773  0.00  0.00    +0.108 C 
ATOM     16  H   UNL     1      33.117 -21.379 -15.402  0.00  0.00    +0.176 HD
ENDBRANCH   7  11
ENDBRANCH   1   7
BRANCH   2  17
ATOM     17  N   UNL     1      35.346 -19.092 -21.056  0.00  0.00    -0.311 N 
ATOM     18  H   UNL     1      36.118 -19.459 -21.544  0.00  0.00    +0.152 HD
BRANCH  17  25
ATOM     19  O   UNL     1      34.274 -19.374 -23.735  0.00  0.00    -0.270 OA
ATOM     20  N   UNL     1      33.606 -17.267 -24.568  0.00  0.00    -0.280 N 
ATOM     21  C   UNL     1      34.149 -15.932 -22.775  0.00  0.00    +0.019 C 
ATOM     22  C   UNL     1      34.491 -17.315 -22.458  0.00  0.00    +0.069 C 
ATOM     23  C   UNL     1      33.615 -15.960 -24.067  0.00  0.00    +0.051 C 
ATOM     24  C   UNL     1      34.131 -18.171 -23.638  0.00  0.00    +0.251 C 
ATOM     25  C   UNL     1      35.031 -17.802 -21.339  0.00  0.00    +0.066 C 
ATOM     26  C   UNL     1      34.257 -14.742 -22.082  0.00  0.00    +0.001 C 
ATOM     27  C   UNL     1      33.175 -14.820 -24.710  0.00  0.00    +0.015 C 
ATOM     28  C   UNL     1      33.816 -13.574 -22.714  0.00  0.00    +0.000 C 
ATOM     29  C   UNL     1      33.280 -13.613 -24.015  0.00  0.00    +0.001 C 
ATOM     30  H   UNL     1      33.274 -17.518 -25.459  0.00  0.00    +0.155 HD
ENDBRANCH  17  25
ENDBRANCH   2  17
TORSDOF 4
ENDMDL
MODEL 5
REMARK VINA RESULT:     -12.4      4.344      6.322
REMARK  Name = 5288711
REMARK  4 active torsions:
REMARK  status: ('A' for Active; 'I' for Inactive)
REMARK    1  A    between atoms: C_1  and  S_7
REMARK    2  A    between atoms: C_2  and  N_17
REMARK    3  A    between atoms: S_7  and  N_11
REMARK    4  A    between atoms: N_17  and  C_25
REMARK                            x       y       z     vdW  Elec       q    Type
REMARK                         _______ _______ _______ _____ _____    ______ ____
ROOT
ATOM      1  C   UNL     1      35.363 -22.953 -13.714  0.00  0.00    +0.125 C 
ATOM      2  C   UNL     1      34.731 -22.433 -16.388  0.00  0.00    +0.048 C 
ATOM      3  C   UNL     1      34.171 -23.433 -14.256  0.00  0.00    +0.021 C 
ATOM      4  C   UNL     1      36.241 -22.214 -14.507  0.00  0.00    +0.021 C 
ATOM      5  C   UNL     1      33.855 -23.174 -15.589  0.00  0.00    +0.016 C 
ATOM      6  C   UNL     1      35.926 -21.955 -15.842  0.00  0.00    +0.016 C 
ENDROOT
BRANCH   1   7
ATOM      7  S   UNL     1      35.758 -23.277 -12.045  0.00  0.00    +0.075 S 
ATOM      8  O   UNL     1      36.832 -22.377 -11.642  0.00  0.00    -0.150 OA
ATOM      9  O   UNL     1      34.512 -23.289 -11.290  0.00  0.00    -0.150 OA
BRANCH   7  11
ATOM     10  S   UNL     1      37.843 -26.369 -13.983  0.00  0.00    -0.050 S 
ATOM     11  N   UNL     1      36.387 -24.873 -12.155  0.00  0.00    -0.194 N 
ATOM     12  N   UNL     1      38.575 -24.140 -12.898  0.00  0.00    -0.221 NA
ATOM     13  C   UNL     1      37.622 -25.027 -12.956  0.00  0.00    +0.179 C 
ATOM     14  C   UNL     1      39.374 -25.730 -14.417  0.00  0.00    +0.059 C 
ATOM     15  C   UNL     1      39.590 -24.546 -13.742  0.00  0.00    +0.108 C 
ATOM     16  H   UNL     1      35.953 -25.637 -11.712  0.00  0.00    +0.176 HD
ENDBRANCH   7  11
ENDBRANCH   1   7
BRANCH   2  17
ATOM     17  N   UNL     1      34.413 -22.172 -17.730  0.00  0.00    -0.311 N 
ATOM     18  H   UNL     1      33.672 -22.701 -18.104  0.00  0.00    +0.152 HD
BRANCH  17  25
ATOM     19  O   UNL     1      32.128 -21.397 -19.337  0.00  0.00    -0.270 OA
ATOM     20  N   UNL     1      32.783 -19.820 -20.970  0.00  0.00    -0.280 N 
ATOM     21  C   UNL     1      35.024 -19.643 -20.487  0.00  0.00    +0.019 C 
ATOM     22  C   UNL     1      34.414 -20.596 -19.565  0.00  0.00    +0.069 C 
ATOM     23  C   UNL     1      33.990 -19.203 -21.318  0.00  0.00    +0.051 C 
ATOM     24  C   UNL     1      32.953 -20.699 -19.895  0.00  0.00    +0.251 C 
ATOM     25  C   UNL     1      34.993 -21.288 -18.582  0.00  0.00    +0.066 C 
ATOM     26  C   UNL     1      36.311 -19.165 -20.648  0.00  0.00    +0.001 C 
ATOM     27  C   UNL     1      34.192 -18.283 -22.327  0.00  0.00    +0.015 C 
ATOM     28  C   UNL     1      36.539 -18.231 -21.666  0.00  0.00    +0.000 C 
ATOM     29  C   UNL     1      35.490 -17.795 -22.496  0.00  0.00    +0.001 C 
ATOM     30  H   UNL     1      31.925 -19.658 -21.424  0.00  0.00    +0.155 HD
ENDBRANCH  17  25
ENDBRANCH   2  17
TORSDOF 4
ENDMDL
MODEL 6
REMARK VINA RESULT:     -12.4      2.776      9.678
REMARK  Name = 5288711
REMARK  4 active torsions:
REMARK  status: ('A' for Active; 'I' for Inactive)
REMARK    1  A    between atoms: C_1  and  S_7
REMARK    2  A    between atoms: C_2  and  N_17
REMARK    3  A    between atoms: S_7  and  N_11
REMARK    4  A    between atoms: N_17  and  C_25
REMARK                            x       y       z     vdW  Elec       q    Type
REMARK                         _______ _______ _______ _____ _____    ______ ____
ROOT
ATOM      1  C   UNL     1      34.980 -19.315 -20.507  0.00  0.00    +0.125 C 
ATOM      2  C   UNL     1      33.937 -21.616 -19.310  0.00  0.00    +0.048 C 
ATOM      3  C   UNL     1      35.832 -20.219 -19.873  0.00  0.00    +0.021 C 
ATOM      4  C   UNL     1      33.608 -19.559 -20.545  0.00  0.00    +0.021 C 
ATOM      5  C   UNL     1      35.312 -21.367 -19.276  0.00  0.00    +0.016 C 
ATOM      6  C   UNL     1      33.086 -20.707 -19.948  0.00  0.00    +0.016 C 
ENDROOT
BRANCH   1   7
ATOM      7  S   UNL     1      35.631 -17.877 -21.255  0.00  0.00    +0.075 S 
ATOM      8  O   UNL     1      34.996 -16.714 -20.648  0.00  0.00    -0.150 OA
ATOM      9  O   UNL     1      37.084 -17.990 -21.240  0.00  0.00    -0.150 OA
BRANCH   7  11
ATOM     10  S   UNL     1      33.072 -16.921 -24.448  0.00  0.00    -0.050 S 
ATOM     11  N   UNL     1      35.051 -18.047 -22.864  0.00  0.00    -0.194 N 
ATOM     12  N   UNL     1      35.001 -15.660 -23.278  0.00  0.00    -0.221 NA
ATOM     13  C   UNL     1      34.465 -16.833 -23.472  0.00  0.00    +0.179 C 
ATOM     14  C   UNL     1      33.160 -15.220 -24.654  0.00  0.00    +0.059 C 
ATOM     15  C   UNL     1      34.247 -14.727 -23.962  0.00  0.00    +0.108 C 
ATOM     16  H   UNL     1      35.106 -18.901 -23.352  0.00  0.00    +0.176 HD
ENDBRANCH   7  11
ENDBRANCH   1   7
BRANCH   2  17
ATOM     17  N   UNL     1      33.413 -22.772 -18.709  0.00  0.00    -0.311 N 
ATOM     18  H   UNL     1      33.788 -23.625 -19.025  0.00  0.00    +0.152 HD
BRANCH  17  25
ATOM     19  O   UNL     1      35.051 -22.744 -16.316  0.00  0.00    -0.270 OA
ATOM     20  N   UNL     1      33.684 -22.901 -14.396  0.00  0.00    -0.280 N 
ATOM     21  C   UNL     1      31.609 -23.007 -15.383  0.00  0.00    +0.019 C 
ATOM     22  C   UNL     1      32.625 -22.903 -16.425  0.00  0.00    +0.069 C 
ATOM     23  C   UNL     1      32.306 -23.001 -14.171  0.00  0.00    +0.051 C 
ATOM     24  C   UNL     1      33.971 -22.835 -15.764  0.00  0.00    +0.251 C 
ATOM     25  C   UNL     1      32.458 -22.869 -17.749  0.00  0.00    +0.066 C 
ATOM     26  C   UNL     1      30.230 -23.099 -15.404  0.00  0.00    +0.001 C 
ATOM     27  C   UNL     1      31.667 -23.087 -12.950  0.00  0.00    +0.015 C 
ATOM     28  C   UNL     1      29.562 -23.186 -14.177  0.00  0.00    +0.000 C 
ATOM     29  C   UNL     1      30.273 -23.180 -12.963  0.00  0.00    +0.001 C 
ATOM     30  H   UNL     1      34.363 -22.880 -13.685  0.00  0.00    +0.155 HD
ENDBRANCH  17  25
ENDBRANCH   2  17
TORSDOF 4
ENDMDL
MODEL 7
REMARK VINA RESULT:     -12.3      2.677      9.980
REMARK  Name = 5288711
REMARK  4 active torsions:
REMARK  status: ('A' for Active; 'I' for Inactive)
REMARK    1  A    between atoms: C_1  and  S_7
REMARK    2  A    between atoms: C_2  and  N_17
REMARK    3  A    between atoms: S_7  and  N_11
REMARK    4  A    between atoms: N_17  and  C_25
REMARK                            x       y       z     vdW  Elec       q    Type
REMARK                         _______ _______ _______ _____ _____    ______ ____
ROOT
ATOM      1  C   UNL     1      34.987 -19.533 -20.798  0.00  0.00    +0.125 C 
ATOM      2  C   UNL     1      34.488 -21.360 -18.742  0.00  0.00    +0.048 C 
ATOM      3  C   UNL     1      33.677 -19.910 -20.502  0.00  0.00    +0.021 C 
ATOM      4  C   UNL     1      36.048 -20.068 -20.068  0.00  0.00    +0.021 C 
ATOM      5  C   UNL     1      33.428 -20.820 -19.476  0.00  0.00    +0.016 C 
ATOM      6  C   UNL     1      35.799 -20.980 -19.041  0.00  0.00    +0.016 C 
ENDROOT
BRANCH   1   7
ATOM      7  S   UNL     1      35.300 -18.393 -22.083  0.00  0.00    +0.075 S 
ATOM      8  O   UNL     1      36.692 -17.968 -21.994  0.00  0.00    -0.150 OA
ATOM      9  O   UNL     1      34.807 -18.978 -23.323  0.00  0.00    -0.150 OA
BRANCH   7  11
ATOM     10  S   UNL     1      33.985 -14.406 -22.283  0.00  0.00    -0.050 S 
ATOM     11  N   UNL     1      34.291 -17.082 -21.616  0.00  0.00    -0.194 N 
ATOM     12  N   UNL     1      33.814 -16.418 -23.898  0.00  0.00    -0.221 NA
ATOM     13  C   UNL     1      34.025 -16.068 -22.660  0.00  0.00    +0.179 C 
ATOM     14  C   UNL     1      33.651 -14.084 -23.934  0.00  0.00    +0.059 C 
ATOM     15  C   UNL     1      33.597 -15.270 -24.636  0.00  0.00    +0.108 C 
ATOM     16  H   UNL     1      33.912 -17.011 -20.710  0.00  0.00    +0.176 HD
ENDBRANCH   7  11
ENDBRANCH   1   7
BRANCH   2  17
ATOM     17  N   UNL     1      34.236 -22.278 -17.709  0.00  0.00    -0.311 N 
ATOM     18  H   UNL     1      35.006 -22.820 -17.421  0.00  0.00    +0.152 HD
BRANCH  17  25
ATOM     19  O   UNL     1      35.211 -23.728 -15.395  0.00  0.00    -0.270 OA
ATOM     20  N   UNL     1      33.406 -24.323 -13.992  0.00  0.00    -0.280 N 
ATOM     21  C   UNL     1      31.654 -23.428 -15.183  0.00  0.00    +0.019 C 
ATOM     22  C   UNL     1      32.898 -23.163 -15.898  0.00  0.00    +0.069 C 
ATOM     23  C   UNL     1      32.019 -24.134 -14.033  0.00  0.00    +0.051 C 
ATOM     24  C   UNL     1      34.029 -23.754 -15.107  0.00  0.00    +0.251 C 
ATOM     25  C   UNL     1      33.072 -22.518 -17.053  0.00  0.00    +0.066 C 
ATOM     26  C   UNL     1      30.329 -23.126 -15.435  0.00  0.00    +0.001 C 
ATOM     27  C   UNL     1      31.094 -24.562 -13.103  0.00  0.00    +0.015 C 
ATOM     28  C   UNL     1      29.373 -23.549 -14.504  0.00  0.00    +0.000 C 
ATOM     29  C   UNL     1      29.753 -24.260 -13.350  0.00  0.00    +0.001 C 
ATOM     30  H   UNL     1      33.881 -24.795 -13.271  0.00  0.00    +0.155 HD
ENDBRANCH  17  25
ENDBRANCH   2  17
TORSDOF 4
ENDMDL
MODEL 8
REMARK VINA RESULT:     -12.2      3.784      6.660
REMARK  Name = 5288711
REMARK  4 active torsions:
REMARK  status: ('A' for Active; 'I' for Inactive)
REMARK    1  A    between atoms: C_1  and  S_7
REMARK    2  A    between atoms: C_2  and  N_17
REMARK    3  A    between atoms: S_7  and  N_11
REMARK    4  A    between atoms: N_17  and  C_25
REMARK                            x       y       z     vdW  Elec       q    Type
REMARK                         _______ _______ _______ _____ _____    ______ ____
ROOT
ATOM      1  C   UNL     1      34.458 -16.410 -22.567  0.00  0.00    +0.125 C 
ATOM      2  C   UNL     1      33.267 -14.019 -23.392  0.00  0.00    +0.048 C 
ATOM      3  C   UNL     1      34.259 -15.377 -21.651  0.00  0.00    +0.021 C 
ATOM      4  C   UNL     1      34.064 -16.249 -23.895  0.00  0.00    +0.021 C 
ATOM      5  C   UNL     1      33.664 -14.185 -22.062  0.00  0.00    +0.016 C 
ATOM      6  C   UNL     1      33.469 -15.056 -24.307  0.00  0.00    +0.016 C 
ENDROOT
BRANCH   1   7
ATOM      7  S   UNL     1      35.203 -17.903 -22.053  0.00  0.00    +0.075 S 
ATOM      8  O   UNL     1      35.087 -18.873 -23.135  0.00  0.00    -0.150 OA
ATOM      9  O   UNL     1      36.519 -17.580 -21.517  0.00  0.00    -0.150 OA
BRANCH   7  11
ATOM     10  S   UNL     1      33.181 -20.740 -19.702  0.00  0.00    -0.050 S 
ATOM     11  N   UNL     1      34.155 -18.374 -20.774  0.00  0.00    -0.194 N 
ATOM     12  N   UNL     1      35.667 -20.071 -19.934  0.00  0.00    -0.221 NA
ATOM     13  C   UNL     1      34.441 -19.685 -20.153  0.00  0.00    +0.179 C 
ATOM     14  C   UNL     1      34.366 -21.849 -19.147  0.00  0.00    +0.059 C 
ATOM     15  C   UNL     1      35.624 -21.322 -19.351  0.00  0.00    +0.108 C 
ATOM     16  H   UNL     1      33.410 -17.805 -20.473  0.00  0.00    +0.176 HD
ENDBRANCH   7  11
ENDBRANCH   1   7
BRANCH   2  17
ATOM     17  N   UNL     1      32.669 -12.817 -23.806  0.00  0.00    -0.311 N 
ATOM     18  H   UNL     1      31.745 -12.892 -24.137  0.00  0.00    +0.152 HD
BRANCH  17  25
ATOM     19  O   UNL     1      30.843 -11.459 -22.009  0.00  0.00    -0.270 OA
ATOM     20  N   UNL     1      31.473  -9.194 -21.774  0.00  0.00    -0.280 N 
ATOM     21  C   UNL     1      33.319  -9.142 -23.145  0.00  0.00    +0.019 C 
ATOM     22  C   UNL     1      32.763 -10.491 -23.149  0.00  0.00    +0.069 C 
ATOM     23  C   UNL     1      32.498  -8.395 -22.294  0.00  0.00    +0.051 C 
ATOM     24  C   UNL     1      31.561 -10.507 -22.250  0.00  0.00    +0.251 C 
ATOM     25  C   UNL     1      33.196 -11.566 -23.811  0.00  0.00    +0.066 C 
ATOM     26  C   UNL     1      34.400  -8.556 -23.775  0.00  0.00    +0.001 C 
ATOM     27  C   UNL     1      32.717  -7.056 -22.042  0.00  0.00    +0.015 C 
ATOM     28  C   UNL     1      34.641  -7.199 -23.533  0.00  0.00    +0.000 C 
ATOM     29  C   UNL     1      33.809  -6.457 -22.675  0.00  0.00    +0.001 C 
ATOM     30  H   UNL     1      30.780  -8.874 -21.153  0.00  0.00    +0.155 HD
ENDBRANCH  17  25
ENDBRANCH   2  17
TORSDOF 4
ENDMDL
MODEL 9
REMARK VINA RESULT:     -11.9      3.735      9.606
REMARK  Name = 5288711
REMARK  4 active torsions:
REMARK  status: ('A' for Active; 'I' for Inactive)
REMARK    1  A    between atoms: C_1  and  S_7
REMARK    2  A    between atoms: C_2  and  N_17
REMARK    3  A    between atoms: S_7  and  N_11
REMARK    4  A    between atoms: N_17  and  C_25
REMARK                            x       y       z     vdW  Elec       q    Type
REMARK                         _______ _______ _______ _____ _____    ______ ____
ROOT
ATOM      1  C   UNL     1      34.085 -16.687 -23.165  0.00  0.00    +0.125 C 
ATOM      2  C   UNL     1      34.335 -19.103 -21.781  0.00  0.00    +0.048 C 
ATOM      3  C   UNL     1      33.712 -17.884 -23.777  0.00  0.00    +0.021 C 
ATOM      4  C   UNL     1      34.582 -16.696 -21.862  0.00  0.00    +0.021 C 
ATOM      5  C   UNL     1      33.836 -19.089 -23.087  0.00  0.00    +0.016 C 
ATOM      6  C   UNL     1      34.706 -17.901 -21.171  0.00  0.00    +0.016 C 
ENDROOT
BRANCH   1   7
ATOM      7  S   UNL     1      33.930 -15.177 -24.029  0.00  0.00    +0.075 S 
ATOM      8  O   UNL     1      35.081 -14.342 -23.708  0.00  0.00    -0.150 OA
ATOM      9  O   UNL     1      33.639 -15.493 -25.422  0.00  0.00    -0.150 OA
BRANCH   7  11
ATOM     10  S   UNL     1      31.912 -12.277 -21.753  0.00  0.00    -0.050 S 
ATOM     11  N   UNL     1      32.535 -14.508 -23.281  0.00  0.00    -0.194 N 
ATOM     12  N   UNL     1      32.950 -12.273 -24.120  0.00  0.00    -0.221 NA
ATOM     13  C   UNL     1      32.512 -13.034 -23.157  0.00  0.00    +0.179 C 
ATOM     14  C   UNL     1      32.260 -10.760 -22.473  0.00  0.00    +0.059 C 
ATOM     15  C   UNL     1      32.805 -10.957 -23.725  0.00  0.00    +0.108 C 
ATOM     16  H   UNL     1      31.796 -15.071 -22.955  0.00  0.00    +0.176 HD
ENDBRANCH   7  11
ENDBRANCH   1   7
BRANCH   2  17
ATOM     17  N   UNL     1      34.460 -20.317 -21.086  0.00  0.00    -0.311 N 
ATOM     18  H   UNL     1      33.997 -21.088 -21.487  0.00  0.00    +0.152 HD
BRANCH  17  25
ATOM     19  O   UNL     1      32.460 -21.804 -19.605  0.00  0.00    -0.270 OA
ATOM     20  N   UNL     1      33.312 -22.424 -17.491  0.00  0.00    -0.280 N 
ATOM     21  C   UNL     1      35.419 -21.512 -17.619  0.00  0.00    +0.019 C 
ATOM     22  C   UNL     1      34.706 -21.234 -18.861  0.00  0.00    +0.069 C 
ATOM     23  C   UNL     1      34.527 -22.237 -16.823  0.00  0.00    +0.051 C 
ATOM     24  C   UNL     1      33.334 -21.836 -18.760  0.00  0.00    +0.251 C 
ATOM     25  C   UNL     1      35.135 -20.569 -19.936  0.00  0.00    +0.066 C 
ATOM     26  C   UNL     1      36.686 -21.206 -17.161  0.00  0.00    +0.001 C 
ATOM     27  C   UNL     1      34.858 -22.680 -15.558  0.00  0.00    +0.015 C 
ATOM     28  C   UNL     1      37.043 -21.646 -15.881  0.00  0.00    +0.000 C 
ATOM     29  C   UNL     1      36.137 -22.375 -15.088  0.00  0.00    +0.001 C 
ATOM     30  H   UNL     1      32.541 -22.908 -17.116  0.00  0.00    +0.155 HD
ENDBRANCH  17  25
ENDBRANCH   2  17
TORSDOF 4
ENDMDL
