MODEL 1
REMARK VINA RESULT:     -13.5      0.000      0.000
REMARK  Name = 5288641
REMARK  1 active torsions:
REMARK  status: ('A' for Active; 'I' for Inactive)
REMARK    1  A    between atoms: C_14  and  S_23
REMARK                            x       y       z     vdW  Elec       q    Type
REMARK                         _______ _______ _______ _____ _____    ______ ____
ROOT
ATOM      1  O   UNL     1      35.354 -23.668 -15.138  0.00  0.00    -0.270 OA
ATOM      2  O   UNL     1      31.403 -21.691 -18.006  0.00  0.00    -0.285 OA
ATOM      3  N   UNL     1      34.854 -22.022 -17.559  0.00  0.00    -0.310 N 
ATOM      4  N   UNL     1      33.302 -24.316 -14.163  0.00  0.00    -0.280 N 
ATOM      5  C   UNL     1      33.190 -23.031 -16.054  0.00  0.00    +0.071 C 
ATOM      6  C   UNL     1      31.827 -23.316 -15.617  0.00  0.00    +0.020 C 
ATOM      7  C   UNL     1      33.593 -22.319 -17.107  0.00  0.00    +0.092 C 
ATOM      8  C   UNL     1      31.954 -24.099 -14.466  0.00  0.00    +0.051 C 
ATOM      9  C   UNL     1      34.138 -23.690 -15.094  0.00  0.00    +0.251 C 
ATOM     10  C   UNL     1      33.449 -20.994 -19.058  0.00  0.00    +0.054 C 
ATOM     11  C   UNL     1      34.783 -21.243 -18.707  0.00  0.00    +0.051 C 
ATOM     12  C   UNL     1      32.614 -21.671 -18.050  0.00  0.00    +0.210 C 
ATOM     13  C   UNL     1      30.580 -22.976 -16.105  0.00  0.00    +0.020 C 
ATOM     14  C   UNL     1      29.457 -23.438 -15.411  0.00  0.00    +0.112 C 
ATOM     15  C   UNL     1      30.858 -24.566 -13.766  0.00  0.00    +0.016 C 
ATOM     16  C   UNL     1      29.595 -24.226 -14.254  0.00  0.00    +0.020 C 
ATOM     17  C   UNL     1      33.083 -20.245 -20.157  0.00  0.00    +0.004 C 
ATOM     18  C   UNL     1      35.807 -20.728 -19.475  0.00  0.00    +0.015 C 
ATOM     19  C   UNL     1      34.119 -19.725 -20.934  0.00  0.00    +0.000 C 
ATOM     20  C   UNL     1      35.466 -19.964 -20.597  0.00  0.00    +0.001 C 
ATOM     21  H   UNL     1      35.690 -22.317 -17.132  0.00  0.00    +0.152 HD
ATOM     22  H   UNL     1      33.622 -24.841 -13.393  0.00  0.00    +0.155 HD
ENDROOT
BRANCH  14  23
ATOM     23  S   UNL     1      27.858 -23.032 -15.990  0.00  0.00    +0.042 S 
ATOM     24  O   UNL     1      28.053 -21.661 -16.859  0.00  0.00    -0.065 OA
ATOM     25  O   UNL     1      27.442 -24.071 -16.921  0.00  0.00    -0.065 OA
ATOM     26  O   UNL     1      27.053 -22.717 -14.820  0.00  0.00    -0.065 OA
ENDBRANCH  14  23
TORSDOF 1
ENDMDL
MODEL 2
REMARK VINA RESULT:     -11.9      2.808      5.223
REMARK  Name = 5288641
REMARK  1 active torsions:
REMARK  status: ('A' for Active; 'I' for Inactive)
REMARK    1  A    between atoms: C_14  and  S_23
REMARK                            x       y       z     vdW  Elec       q    Type
REMARK                         _______ _______ _______ _____ _____    ______ ____
ROOT
ATOM      1  O   UNL     1      30.517 -22.293 -17.044  0.00  0.00    -0.270 OA
ATOM      2  O   UNL     1      35.707 -21.743 -17.762  0.00  0.00    -0.285 OA
ATOM      3  N   UNL     1      32.475 -21.072 -18.914  0.00  0.00    -0.310 N 
ATOM      4  N   UNL     1      31.654 -23.386 -15.284  0.00  0.00    -0.280 N 
ATOM      5  C   UNL     1      32.944 -22.358 -16.870  0.00  0.00    +0.071 C 
ATOM      6  C   UNL     1      33.833 -22.966 -15.885  0.00  0.00    +0.020 C 
ATOM      7  C   UNL     1      33.266 -21.661 -17.961  0.00  0.00    +0.092 C 
ATOM      8  C   UNL     1      32.997 -23.576 -14.945  0.00  0.00    +0.051 C 
ATOM      9  C   UNL     1      31.528 -22.642 -16.462  0.00  0.00    +0.251 C 
ATOM     10  C   UNL     1      34.623 -20.607 -19.583  0.00  0.00    +0.054 C 
ATOM     11  C   UNL     1      33.261 -20.448 -19.874  0.00  0.00    +0.051 C 
ATOM     12  C   UNL     1      34.699 -21.395 -18.339  0.00  0.00    +0.210 C 
ATOM     13  C   UNL     1      35.207 -23.025 -15.750  0.00  0.00    +0.020 C 
ATOM     14  C   UNL     1      35.728 -23.713 -14.649  0.00  0.00    +0.112 C 
ATOM     15  C   UNL     1      33.490 -24.260 -13.851  0.00  0.00    +0.016 C 
ATOM     16  C   UNL     1      34.878 -24.324 -13.708  0.00  0.00    +0.020 C 
ATOM     17  C   UNL     1      35.631 -20.090 -20.370  0.00  0.00    +0.004 C 
ATOM     18  C   UNL     1      32.873 -19.746 -20.996  0.00  0.00    +0.015 C 
ATOM     19  C   UNL     1      35.238 -19.380 -21.504  0.00  0.00    +0.000 C 
ATOM     20  C   UNL     1      33.873 -19.209 -21.815  0.00  0.00    +0.001 C 
ATOM     21  H   UNL     1      31.491 -21.088 -18.918  0.00  0.00    +0.152 HD
ATOM     22  H   UNL     1      30.893 -23.731 -14.761  0.00  0.00    +0.155 HD
ENDROOT
BRANCH  14  23
ATOM     23  S   UNL     1      37.460 -23.816 -14.437  0.00  0.00    +0.042 S 
ATOM     24  O   UNL     1      37.740 -23.269 -12.922  0.00  0.00    -0.065 OA
ATOM     25  O   UNL     1      37.830 -25.223 -14.456  0.00  0.00    -0.065 OA
ATOM     26  O   UNL     1      38.056 -22.878 -15.374  0.00  0.00    -0.065 OA
ENDBRANCH  14  23
TORSDOF 1
ENDMDL
MODEL 3
REMARK VINA RESULT:     -11.3      3.268      7.064
REMARK  Name = 5288641
REMARK  1 active torsions:
REMARK  status: ('A' for Active; 'I' for Inactive)
REMARK    1  A    between atoms: C_14  and  S_23
REMARK                            x       y       z     vdW  Elec       q    Type
REMARK                         _______ _______ _______ _____ _____    ______ ____
ROOT
ATOM      1  O   UNL     1      32.285 -21.439 -19.126  0.00  0.00    -0.270 OA
ATOM      2  O   UNL     1      32.918 -23.710 -14.416  0.00  0.00    -0.285 OA
ATOM      3  N   UNL     1      30.734 -22.797 -16.989  0.00  0.00    -0.310 N 
ATOM      4  N   UNL     1      34.569 -21.337 -18.528  0.00  0.00    -0.280 N 
ATOM      5  C   UNL     1      33.151 -22.342 -17.039  0.00  0.00    +0.071 C 
ATOM      6  C   UNL     1      34.500 -22.384 -16.482  0.00  0.00    +0.020 C 
ATOM      7  C   UNL     1      32.020 -22.811 -16.510  0.00  0.00    +0.092 C 
ATOM      8  C   UNL     1      35.320 -21.760 -17.427  0.00  0.00    +0.051 C 
ATOM      9  C   UNL     1      33.215 -21.656 -18.372  0.00  0.00    +0.251 C 
ATOM     10  C   UNL     1      30.579 -23.855 -14.955  0.00  0.00    +0.054 C 
ATOM     11  C   UNL     1      29.877 -23.409 -16.083  0.00  0.00    +0.051 C 
ATOM     12  C   UNL     1      31.992 -23.495 -15.169  0.00  0.00    +0.210 C 
ATOM     13  C   UNL     1      35.030 -22.884 -15.308  0.00  0.00    +0.020 C 
ATOM     14  C   UNL     1      36.407 -22.745 -15.101  0.00  0.00    +0.112 C 
ATOM     15  C   UNL     1      36.680 -21.612 -17.242  0.00  0.00    +0.016 C 
ATOM     16  C   UNL     1      37.224 -22.116 -16.058  0.00  0.00    +0.020 C 
ATOM     17  C   UNL     1      29.978 -24.499 -13.895  0.00  0.00    +0.004 C 
ATOM     18  C   UNL     1      28.515 -23.606 -16.170  0.00  0.00    +0.015 C 
ATOM     19  C   UNL     1      28.600 -24.698 -13.983  0.00  0.00    +0.000 C 
ATOM     20  C   UNL     1      27.875 -24.257 -15.108  0.00  0.00    +0.001 C 
ATOM     21  H   UNL     1      30.458 -22.410 -17.850  0.00  0.00    +0.152 HD
ATOM     22  H   UNL     1      34.943 -20.873 -19.312  0.00  0.00    +0.155 HD
ENDROOT
BRANCH  14  23
ATOM     23  S   UNL     1      37.124 -23.362 -13.630  0.00  0.00    +0.042 S 
ATOM     24  O   UNL     1      38.629 -23.835 -14.053  0.00  0.00    -0.065 OA
ATOM     25  O   UNL     1      37.272 -22.249 -12.704  0.00  0.00    -0.065 OA
ATOM     26  O   UNL     1      36.365 -24.544 -13.254  0.00  0.00    -0.065 OA
ENDBRANCH  14  23
TORSDOF 1
ENDMDL
MODEL 4
REMARK VINA RESULT:     -11.3      3.670      6.786
REMARK  Name = 5288641
REMARK  1 active torsions:
REMARK  status: ('A' for Active; 'I' for Inactive)
REMARK    1  A    between atoms: C_14  and  S_23
REMARK                            x       y       z     vdW  Elec       q    Type
REMARK                         _______ _______ _______ _____ _____    ______ ____
ROOT
ATOM      1  O   UNL     1      34.114 -21.642 -18.036  0.00  0.00    -0.270 OA
ATOM      2  O   UNL     1      32.657 -24.025 -13.570  0.00  0.00    -0.285 OA
ATOM      3  N   UNL     1      31.688 -22.584 -16.604  0.00  0.00    -0.310 N 
ATOM      4  N   UNL     1      36.043 -22.114 -16.755  0.00  0.00    -0.280 N 
ATOM      5  C   UNL     1      34.030 -22.744 -15.867  0.00  0.00    +0.071 C 
ATOM      6  C   UNL     1      35.080 -23.122 -14.926  0.00  0.00    +0.020 C 
ATOM      7  C   UNL     1      32.712 -22.919 -15.755  0.00  0.00    +0.092 C 
ATOM      8  C   UNL     1      36.281 -22.716 -15.516  0.00  0.00    +0.051 C 
ATOM      9  C   UNL     1      34.676 -22.087 -17.052  0.00  0.00    +0.251 C 
ATOM     10  C   UNL     1      30.648 -23.582 -14.814  0.00  0.00    +0.054 C 
ATOM     11  C   UNL     1      30.468 -22.968 -16.062  0.00  0.00    +0.051 C 
ATOM     12  C   UNL     1      32.099 -23.582 -14.550  0.00  0.00    +0.210 C 
ATOM     13  C   UNL     1      35.075 -23.745 -13.694  0.00  0.00    +0.020 C 
ATOM     14  C   UNL     1      36.305 -23.954 -13.060  0.00  0.00    +0.112 C 
ATOM     15  C   UNL     1      37.506 -22.913 -14.909  0.00  0.00    +0.016 C 
ATOM     16  C   UNL     1      37.508 -23.542 -13.662  0.00  0.00    +0.020 C 
ATOM     17  C   UNL     1      29.606 -24.061 -14.049  0.00  0.00    +0.004 C 
ATOM     18  C   UNL     1      29.199 -22.820 -16.581  0.00  0.00    +0.015 C 
ATOM     19  C   UNL     1      28.323 -23.911 -14.575  0.00  0.00    +0.000 C 
ATOM     20  C   UNL     1      28.121 -23.298 -15.828  0.00  0.00    +0.001 C 
ATOM     21  H   UNL     1      31.800 -22.135 -17.472  0.00  0.00    +0.152 HD
ATOM     22  H   UNL     1      36.746 -21.753 -17.344  0.00  0.00    +0.155 HD
ENDROOT
BRANCH  14  23
ATOM     23  S   UNL     1      36.349 -24.737 -11.498  0.00  0.00    +0.042 S 
ATOM     24  O   UNL     1      34.821 -24.637 -10.926  0.00  0.00    -0.065 OA
ATOM     25  O   UNL     1      36.631 -26.148 -11.712  0.00  0.00    -0.065 OA
ATOM     26  O   UNL     1      37.206 -23.929 -10.644  0.00  0.00    -0.065 OA
ENDBRANCH  14  23
TORSDOF 1
ENDMDL
MODEL 5
REMARK VINA RESULT:     -11.0      1.756      2.363
REMARK  Name = 5288641
REMARK  1 active torsions:
REMARK  status: ('A' for Active; 'I' for Inactive)
REMARK    1  A    between atoms: C_14  and  S_23
REMARK                            x       y       z     vdW  Elec       q    Type
REMARK                         _______ _______ _______ _____ _____    ______ ____
ROOT
ATOM      1  O   UNL     1      37.401 -22.314 -16.060  0.00  0.00    -0.270 OA
ATOM      2  O   UNL     1      32.414 -21.810 -17.681  0.00  0.00    -0.285 OA
ATOM      3  N   UNL     1      35.800 -21.192 -18.296  0.00  0.00    -0.310 N 
ATOM      4  N   UNL     1      35.973 -23.322 -14.469  0.00  0.00    -0.280 N 
ATOM      5  C   UNL     1      34.979 -22.376 -16.301  0.00  0.00    +0.071 C 
ATOM      6  C   UNL     1      33.931 -22.935 -15.453  0.00  0.00    +0.020 C 
ATOM      7  C   UNL     1      34.853 -21.735 -17.464  0.00  0.00    +0.092 C 
ATOM      8  C   UNL     1      34.591 -23.497 -14.356  0.00  0.00    +0.051 C 
ATOM      9  C   UNL     1      36.303 -22.637 -15.644  0.00  0.00    +0.251 C 
ATOM     10  C   UNL     1      33.801 -20.767 -19.345  0.00  0.00    +0.054 C 
ATOM     11  C   UNL     1      35.193 -20.620 -19.407  0.00  0.00    +0.051 C 
ATOM     12  C   UNL     1      33.508 -21.490 -18.095  0.00  0.00    +0.210 C 
ATOM     13  C   UNL     1      32.554 -22.991 -15.554  0.00  0.00    +0.020 C 
ATOM     14  C   UNL     1      31.848 -23.625 -14.525  0.00  0.00    +0.112 C 
ATOM     15  C   UNL     1      33.913 -24.127 -13.330  0.00  0.00    +0.016 C 
ATOM     16  C   UNL     1      32.521 -24.187 -13.425  0.00  0.00    +0.020 C 
ATOM     17  C   UNL     1      32.946 -20.292 -20.317  0.00  0.00    +0.004 C 
ATOM     18  C   UNL     1      35.772 -19.972 -20.478  0.00  0.00    +0.015 C 
ATOM     19  C   UNL     1      33.532 -19.636 -21.401  0.00  0.00    +0.000 C 
ATOM     20  C   UNL     1      34.930 -19.478 -21.481  0.00  0.00    +0.001 C 
ATOM     21  H   UNL     1      36.769 -21.206 -18.130  0.00  0.00    +0.152 HD
ATOM     22  H   UNL     1      36.631 -23.639 -13.807  0.00  0.00    +0.155 HD
ENDROOT
BRANCH  14  23
ATOM     23  S   UNL     1      30.104 -23.719 -14.607  0.00  0.00    +0.042 S 
ATOM     24  O   UNL     1      29.662 -24.607 -13.308  0.00  0.00    -0.065 OA
ATOM     25  O   UNL     1      29.574 -22.379 -14.407  0.00  0.00    -0.065 OA
ATOM     26  O   UNL     1      29.779 -24.476 -15.805  0.00  0.00    -0.065 OA
ENDBRANCH  14  23
TORSDOF 1
ENDMDL
MODEL 6
REMARK VINA RESULT:     -10.6      3.320      6.294
REMARK  Name = 5288641
REMARK  1 active torsions:
REMARK  status: ('A' for Active; 'I' for Inactive)
REMARK    1  A    between atoms: C_14  and  S_23
REMARK                            x       y       z     vdW  Elec       q    Type
REMARK                         _______ _______ _______ _____ _____    ______ ____
ROOT
ATOM      1  O   UNL     1      31.823 -24.369 -12.879  0.00  0.00    -0.270 OA
ATOM      2  O   UNL     1      35.968 -23.211 -15.915  0.00  0.00    -0.285 OA
ATOM      3  N   UNL     1      34.781 -24.620 -12.944  0.00  0.00    -0.310 N 
ATOM      4  N   UNL     1      31.059 -23.293 -14.838  0.00  0.00    -0.280 N 
ATOM      5  C   UNL     1      33.317 -23.609 -14.643  0.00  0.00    +0.071 C 
ATOM      6  C   UNL     1      33.061 -22.934 -15.912  0.00  0.00    +0.020 C 
ATOM      7  C   UNL     1      34.487 -23.986 -14.125  0.00  0.00    +0.092 C 
ATOM      8  C   UNL     1      31.674 -22.767 -15.979  0.00  0.00    +0.051 C 
ATOM      9  C   UNL     1      32.001 -23.834 -13.957  0.00  0.00    +0.251 C 
ATOM     10  C   UNL     1      36.822 -24.301 -13.950  0.00  0.00    +0.054 C 
ATOM     11  C   UNL     1      36.152 -24.811 -12.829  0.00  0.00    +0.051 C 
ATOM     12  C   UNL     1      35.789 -23.744 -14.841  0.00  0.00    +0.210 C 
ATOM     13  C   UNL     1      33.875 -22.489 -16.935  0.00  0.00    +0.020 C 
ATOM     14  C   UNL     1      33.268 -21.868 -18.032  0.00  0.00    +0.112 C 
ATOM     15  C   UNL     1      31.055 -22.158 -17.052  0.00  0.00    +0.016 C 
ATOM     16  C   UNL     1      31.872 -21.705 -18.091  0.00  0.00    +0.020 C 
ATOM     17  C   UNL     1      38.192 -24.354 -14.102  0.00  0.00    +0.004 C 
ATOM     18  C   UNL     1      36.867 -25.401 -11.808  0.00  0.00    +0.015 C 
ATOM     19  C   UNL     1      38.914 -24.952 -13.069  0.00  0.00    +0.000 C 
ATOM     20  C   UNL     1      38.259 -25.470 -11.934  0.00  0.00    +0.001 C 
ATOM     21  H   UNL     1      34.117 -24.899 -12.274  0.00  0.00    +0.152 HD
ATOM     22  H   UNL     1      30.087 -23.283 -14.675  0.00  0.00    +0.155 HD
ENDROOT
BRANCH  14  23
ATOM     23  S   UNL     1      34.258 -21.287 -19.351  0.00  0.00    +0.042 S 
ATOM     24  O   UNL     1      35.587 -20.654 -18.641  0.00  0.00    -0.065 OA
ATOM     25  O   UNL     1      34.695 -22.439 -20.124  0.00  0.00    -0.065 OA
ATOM     26  O   UNL     1      33.523 -20.203 -19.984  0.00  0.00    -0.065 OA
ENDBRANCH  14  23
TORSDOF 1
ENDMDL
