MODEL 1
REMARK VINA RESULT:     -13.8      0.000      0.000
REMARK  Name = 25101874
REMARK  5 active torsions:
REMARK  status: ('A' for Active; 'I' for Inactive)
REMARK    1  A    between atoms: N_1  and  C_22
REMARK    2  A    between atoms: C_2  and  N_8
REMARK    3  A    between atoms: N_8  and  C_11
REMARK    4  A    between atoms: C_11  and  C_14
REMARK    5  A    between atoms: C_22  and  C_28
REMARK                            x       y       z     vdW  Elec       q    Type
REMARK                         _______ _______ _______ _____ _____    ______ ____
ROOT
ATOM      1  N   UNL     1      33.745 -22.255 -18.777  0.00  0.00    +0.388 N 
ATOM      2  C   UNL     1      34.087 -19.751 -20.251  0.00  0.00    -0.066 C 
ATOM      3  C   UNL     1      35.064 -21.614 -18.859  0.00  0.00    -0.079 C 
ATOM      4  C   UNL     1      32.665 -21.258 -18.810  0.00  0.00    -0.079 C 
ATOM      5  C   UNL     1      35.201 -20.794 -20.145  0.00  0.00    -0.044 C 
ATOM      6  C   UNL     1      32.722 -20.427 -20.094  0.00  0.00    -0.044 C 
ATOM      7  H   UNL     1      33.639 -22.859 -19.591  0.00  0.00    -0.080 HD
ENDROOT
BRANCH   2   8
ATOM      8  N   UNL     1      34.176 -19.044 -21.527  0.00  0.00    +0.389 N 
ATOM      9  H   UNL     1      33.237 -18.790 -21.835  0.00  0.00    -0.084 HD
ATOM     10  H   UNL     1      34.620 -19.658 -22.210  0.00  0.00    -0.084 HD
BRANCH   8  11
ATOM     11  C   UNL     1      34.977 -17.837 -21.394  0.00  0.00    -0.034 C 
BRANCH  11  14
ATOM     12  O   UNL     1      33.102 -13.864 -24.857  0.00  0.00    -0.474 OA
ATOM     13  N   UNL     1      34.233 -17.058 -23.574  0.00  0.00    -0.247 NA
ATOM     14  C   UNL     1      34.478 -16.731 -22.287  0.00  0.00    +0.037 C 
ATOM     15  C   UNL     1      34.299 -15.462 -21.758  0.00  0.00    +0.011 C 
ATOM     16  C   UNL     1      33.842 -14.451 -22.606  0.00  0.00    +0.015 C 
ATOM     17  C   UNL     1      33.633 -13.060 -22.083  0.00  0.00    +0.033 C 
ATOM     18  C   UNL     1      33.557 -14.765 -23.937  0.00  0.00    +0.154 C 
ATOM     19  C   UNL     1      33.525 -12.073 -23.238  0.00  0.00    +0.052 C 
ATOM     20  C   UNL     1      33.779 -16.064 -24.370  0.00  0.00    +0.135 C 
ATOM     21  C   UNL     1      32.598 -12.644 -24.301  0.00  0.00    +0.206 C 
ENDBRANCH  11  14
ENDBRANCH   8  11
ENDBRANCH   2   8
BRANCH   1  22
ATOM     22  C   UNL     1      33.649 -23.074 -17.569  0.00  0.00    -0.055 C 
BRANCH  22  28
ATOM     23  O   UNL     1      30.891 -22.493 -15.677  0.00  0.00    -0.273 OA
ATOM     24  O   UNL     1      37.572 -23.130 -13.983  0.00  0.00    -0.270 OA
ATOM     25  N   UNL     1      33.152 -22.762 -15.157  0.00  0.00    -0.261 N 
ATOM     26  N   UNL     1      35.328 -22.965 -14.552  0.00  0.00    -0.255 N 
ATOM     27  N   UNL     1      32.314 -23.878 -12.724  0.00  0.00    -0.262 NA
ATOM     28  C   UNL     1      33.895 -22.236 -16.319  0.00  0.00    +0.076 C 
ATOM     29  C   UNL     1      35.378 -22.302 -15.863  0.00  0.00    +0.113 C 
ATOM     30  C   UNL     1      34.028 -23.173 -14.205  0.00  0.00    +0.196 C 
ATOM     31  C   UNL     1      33.634 -23.706 -13.052  0.00  0.00    +0.092 C 
ATOM     32  C   UNL     1      31.801 -22.846 -14.942  0.00  0.00    +0.252 C 
ATOM     33  C   UNL     1      36.384 -23.304 -13.728  0.00  0.00    +0.251 C 
ATOM     34  C   UNL     1      34.667 -24.106 -12.122  0.00  0.00    +0.022 C 
ATOM     35  C   UNL     1      31.445 -23.473 -13.604  0.00  0.00    +0.210 C 
ATOM     36  C   UNL     1      35.969 -23.930 -12.419  0.00  0.00    +0.059 C 
ENDBRANCH  22  28
ENDBRANCH   1  22
TORSDOF 5
ENDMDL
MODEL 2
REMARK VINA RESULT:     -13.8      1.292      1.922
REMARK  Name = 25101874
REMARK  5 active torsions:
REMARK  status: ('A' for Active; 'I' for Inactive)
REMARK    1  A    between atoms: N_1  and  C_22
REMARK    2  A    between atoms: C_2  and  N_8
REMARK    3  A    between atoms: N_8  and  C_11
REMARK    4  A    between atoms: C_11  and  C_14
REMARK    5  A    between atoms: C_22  and  C_28
REMARK                            x       y       z     vdW  Elec       q    Type
REMARK                         _______ _______ _______ _____ _____    ______ ____
ROOT
ATOM      1  N   UNL     1      34.499 -21.380 -18.121  0.00  0.00    +0.388 N 
ATOM      2  C   UNL     1      34.378 -20.184 -20.788  0.00  0.00    -0.066 C 
ATOM      3  C   UNL     1      33.293 -21.525 -18.948  0.00  0.00    -0.079 C 
ATOM      4  C   UNL     1      35.707 -21.294 -18.952  0.00  0.00    -0.079 C 
ATOM      5  C   UNL     1      33.136 -20.343 -19.908  0.00  0.00    -0.044 C 
ATOM      6  C   UNL     1      35.632 -20.104 -19.913  0.00  0.00    -0.044 C 
ATOM      7  H   UNL     1      34.416 -20.511 -17.596  0.00  0.00    -0.080 HD
ENDROOT
BRANCH   2   8
ATOM      8  N   UNL     1      34.253 -18.997 -21.630  0.00  0.00    +0.389 N 
ATOM      9  H   UNL     1      33.294 -18.652 -21.582  0.00  0.00    -0.084 HD
ATOM     10  H   UNL     1      34.491 -19.250 -22.589  0.00  0.00    -0.084 HD
BRANCH   8  11
ATOM     11  C   UNL     1      35.159 -17.949 -21.185  0.00  0.00    -0.034 C 
BRANCH  11  14
ATOM     12  O   UNL     1      33.178 -12.803 -22.126  0.00  0.00    -0.474 OA
ATOM     13  N   UNL     1      34.362 -15.779 -20.432  0.00  0.00    -0.247 NA
ATOM     14  C   UNL     1      34.624 -16.575 -21.492  0.00  0.00    +0.037 C 
ATOM     15  C   UNL     1      34.428 -16.203 -22.813  0.00  0.00    +0.011 C 
ATOM     16  C   UNL     1      33.924 -14.927 -23.072  0.00  0.00    +0.015 C 
ATOM     17  C   UNL     1      33.694 -14.476 -24.485  0.00  0.00    +0.033 C 
ATOM     18  C   UNL     1      33.668 -14.072 -21.998  0.00  0.00    +0.154 C 
ATOM     19  C   UNL     1      32.793 -13.248 -24.506  0.00  0.00    +0.052 C 
ATOM     20  C   UNL     1      33.888 -14.545 -20.712  0.00  0.00    +0.135 C 
ATOM     21  C   UNL     1      33.265 -12.260 -23.449  0.00  0.00    +0.206 C 
ENDBRANCH  11  14
ENDBRANCH   8  11
ENDBRANCH   2   8
BRANCH   1  22
ATOM     22  C   UNL     1      34.606 -22.491 -17.175  0.00  0.00    -0.055 C 
BRANCH  22  28
ATOM     23  O   UNL     1      32.297 -22.131 -14.714  0.00  0.00    -0.273 OA
ATOM     24  O   UNL     1      39.005 -23.820 -14.504  0.00  0.00    -0.270 OA
ATOM     25  N   UNL     1      34.551 -22.741 -14.706  0.00  0.00    -0.261 N 
ATOM     26  N   UNL     1      36.745 -23.300 -14.586  0.00  0.00    -0.255 N 
ATOM     27  N   UNL     1      33.965 -24.338 -12.476  0.00  0.00    -0.262 NA
ATOM     28  C   UNL     1      35.164 -22.018 -15.838  0.00  0.00    +0.076 C 
ATOM     29  C   UNL     1      36.677 -22.340 -15.697  0.00  0.00    +0.113 C 
ATOM     30  C   UNL     1      35.501 -23.459 -14.056  0.00  0.00    +0.196 C 
ATOM     31  C   UNL     1      35.226 -24.221 -13.001  0.00  0.00    +0.092 C 
ATOM     32  C   UNL     1      33.253 -22.742 -14.264  0.00  0.00    +0.252 C 
ATOM     33  C   UNL     1      37.861 -23.935 -14.075  0.00  0.00    +0.251 C 
ATOM     34  C   UNL     1      36.328 -24.938 -12.398  0.00  0.00    +0.022 C 
ATOM     35  C   UNL     1      33.032 -23.644 -13.061  0.00  0.00    +0.210 C 
ATOM     36  C   UNL     1      37.577 -24.822 -12.888  0.00  0.00    +0.059 C 
ENDBRANCH  22  28
ENDBRANCH   1  22
TORSDOF 5
ENDMDL
MODEL 3
REMARK VINA RESULT:     -13.5      1.129      2.935
REMARK  Name = 25101874
REMARK  5 active torsions:
REMARK  status: ('A' for Active; 'I' for Inactive)
REMARK    1  A    between atoms: N_1  and  C_22
REMARK    2  A    between atoms: C_2  and  N_8
REMARK    3  A    between atoms: N_8  and  C_11
REMARK    4  A    between atoms: C_11  and  C_14
REMARK    5  A    between atoms: C_22  and  C_28
REMARK                            x       y       z     vdW  Elec       q    Type
REMARK                         _______ _______ _______ _____ _____    ______ ____
ROOT
ATOM      1  N   UNL     1      34.565 -21.613 -18.533  0.00  0.00    +0.388 N 
ATOM      2  C   UNL     1      34.387 -19.663 -20.708  0.00  0.00    -0.066 C 
ATOM      3  C   UNL     1      35.722 -20.776 -18.880  0.00  0.00    -0.079 C 
ATOM      4  C   UNL     1      33.302 -20.911 -18.802  0.00  0.00    -0.079 C 
ATOM      5  C   UNL     1      35.694 -20.379 -20.358  0.00  0.00    -0.044 C 
ATOM      6  C   UNL     1      33.192 -20.519 -20.277  0.00  0.00    -0.044 C 
ATOM      7  H   UNL     1      34.593 -22.445 -19.121  0.00  0.00    -0.080 HD
ENDROOT
BRANCH   2   8
ATOM      8  N   UNL     1      34.335 -19.377 -22.140  0.00  0.00    +0.389 N 
ATOM      9  H   UNL     1      33.402 -19.042 -22.380  0.00  0.00    -0.084 HD
ATOM     10  H   UNL     1      34.547 -20.234 -22.652  0.00  0.00    -0.084 HD
BRANCH   8  11
ATOM     11  C   UNL     1      35.314 -18.363 -22.500  0.00  0.00    -0.034 C 
BRANCH  11  14
ATOM     12  O   UNL     1      32.843 -13.621 -24.140  0.00  0.00    -0.474 OA
ATOM     13  N   UNL     1      34.222 -16.971 -24.168  0.00  0.00    -0.247 NA
ATOM     14  C   UNL     1      34.660 -17.065 -22.893  0.00  0.00    +0.037 C 
ATOM     15  C   UNL     1      34.543 -16.053 -21.953  0.00  0.00    +0.011 C 
ATOM     16  C   UNL     1      33.939 -14.856 -22.342  0.00  0.00    +0.015 C 
ATOM     17  C   UNL     1      33.790 -13.729 -21.362  0.00  0.00    +0.033 C 
ATOM     18  C   UNL     1      33.454 -14.738 -23.646  0.00  0.00    +0.154 C 
ATOM     19  C   UNL     1      33.482 -12.430 -22.095  0.00  0.00    +0.052 C 
ATOM     20  C   UNL     1      33.629 -15.807 -24.514  0.00  0.00    +0.135 C 
ATOM     21  C   UNL     1      32.410 -12.687 -23.144  0.00  0.00    +0.206 C 
ENDBRANCH  11  14
ENDBRANCH   8  11
ENDBRANCH   2   8
BRANCH   1  22
ATOM     22  C   UNL     1      34.634 -22.025 -17.131  0.00  0.00    -0.055 C 
BRANCH  22  28
ATOM     23  O   UNL     1      35.603 -24.140 -14.660  0.00  0.00    -0.273 OA
ATOM     24  O   UNL     1      29.330 -22.170 -16.821  0.00  0.00    -0.270 OA
ATOM     25  N   UNL     1      33.513 -23.406 -15.400  0.00  0.00    -0.261 N 
ATOM     26  N   UNL     1      31.437 -22.789 -16.070  0.00  0.00    -0.255 N 
ATOM     27  N   UNL     1      32.639 -23.671 -12.748  0.00  0.00    -0.262 NA
ATOM     28  C   UNL     1      33.664 -23.166 -16.849  0.00  0.00    +0.076 C 
ATOM     29  C   UNL     1      32.222 -22.826 -17.313  0.00  0.00    +0.113 C 
ATOM     30  C   UNL     1      32.233 -23.154 -15.028  0.00  0.00    +0.196 C 
ATOM     31  C   UNL     1      31.816 -23.275 -13.771  0.00  0.00    +0.092 C 
ATOM     32  C   UNL     1      34.433 -23.842 -14.481  0.00  0.00    +0.252 C 
ATOM     33  C   UNL     1      30.096 -22.493 -15.917  0.00  0.00    +0.251 C 
ATOM     34  C   UNL     1      30.426 -22.975 -13.504  0.00  0.00    +0.022 C 
ATOM     35  C   UNL     1      33.870 -23.943 -13.073  0.00  0.00    +0.210 C 
ATOM     36  C   UNL     1      29.598 -22.602 -14.498  0.00  0.00    +0.059 C 
ENDBRANCH  22  28
ENDBRANCH   1  22
TORSDOF 5
ENDMDL
MODEL 4
REMARK VINA RESULT:     -13.3      1.412      2.023
REMARK  Name = 25101874
REMARK  5 active torsions:
REMARK  status: ('A' for Active; 'I' for Inactive)
REMARK    1  A    between atoms: N_1  and  C_22
REMARK    2  A    between atoms: C_2  and  N_8
REMARK    3  A    between atoms: N_8  and  C_11
REMARK    4  A    between atoms: C_11  and  C_14
REMARK    5  A    between atoms: C_22  and  C_28
REMARK                            x       y       z     vdW  Elec       q    Type
REMARK                         _______ _______ _______ _____ _____    ______ ____
ROOT
ATOM      1  N   UNL     1      34.345 -21.843 -17.509  0.00  0.00    +0.388 N 
ATOM      2  C   UNL     1      34.112 -20.749 -20.213  0.00  0.00    -0.066 C 
ATOM      3  C   UNL     1      33.193 -22.185 -18.354  0.00  0.00    -0.079 C 
ATOM      4  C   UNL     1      35.547 -21.602 -18.321  0.00  0.00    -0.079 C 
ATOM      5  C   UNL     1      32.887 -21.065 -19.352  0.00  0.00    -0.044 C 
ATOM      6  C   UNL     1      35.320 -20.462 -19.317  0.00  0.00    -0.044 C 
ATOM      7  H   UNL     1      34.124 -20.982 -17.012  0.00  0.00    -0.080 HD
ENDROOT
BRANCH   2   8
ATOM      8  N   UNL     1      33.833 -19.615 -21.091  0.00  0.00    +0.389 N 
ATOM      9  H   UNL     1      33.048 -19.084 -20.714  0.00  0.00    -0.084 HD
ATOM     10  H   UNL     1      33.606 -19.970 -22.021  0.00  0.00    -0.084 HD
BRANCH   8  11
ATOM     11  C   UNL     1      34.993 -18.744 -21.196  0.00  0.00    -0.034 C 
BRANCH  11  14
ATOM     12  O   UNL     1      33.726 -13.941 -23.768  0.00  0.00    -0.474 OA
ATOM     13  N   UNL     1      34.642 -17.398 -23.190  0.00  0.00    -0.247 NA
ATOM     14  C   UNL     1      34.650 -17.426 -21.840  0.00  0.00    +0.037 C 
ATOM     15  C   UNL     1      34.367 -16.332 -21.037  0.00  0.00    +0.011 C 
ATOM     16  C   UNL     1      34.058 -15.120 -21.657  0.00  0.00    +0.015 C 
ATOM     17  C   UNL     1      33.746 -13.905 -20.831  0.00  0.00    +0.033 C 
ATOM     18  C   UNL     1      34.018 -15.067 -23.051  0.00  0.00    +0.154 C 
ATOM     19  C   UNL     1      33.835 -12.649 -21.688  0.00  0.00    +0.052 C 
ATOM     20  C   UNL     1      34.328 -16.216 -23.765  0.00  0.00    +0.135 C 
ATOM     21  C   UNL     1      33.118 -12.889 -23.008  0.00  0.00    +0.206 C 
ENDBRANCH  11  14
ENDBRANCH   8  11
ENDBRANCH   2   8
BRANCH   1  22
ATOM     22  C   UNL     1      34.593 -22.901 -16.529  0.00  0.00    -0.055 C 
BRANCH  22  28
ATOM     23  O   UNL     1      32.848 -22.606 -13.633  0.00  0.00    -0.273 OA
ATOM     24  O   UNL     1      39.526 -23.954 -14.853  0.00  0.00    -0.270 OA
ATOM     25  N   UNL     1      35.080 -23.102 -14.104  0.00  0.00    -0.261 N 
ATOM     26  N   UNL     1      37.276 -23.549 -14.453  0.00  0.00    -0.255 N 
ATOM     27  N   UNL     1      35.070 -24.681 -11.785  0.00  0.00    -0.262 NA
ATOM     28  C   UNL     1      35.398 -22.373 -15.348  0.00  0.00    +0.076 C 
ATOM     29  C   UNL     1      36.921 -22.617 -15.532  0.00  0.00    +0.113 C 
ATOM     30  C   UNL     1      36.184 -23.759 -13.667  0.00  0.00    +0.196 C 
ATOM     31  C   UNL     1      36.182 -24.512 -12.570  0.00  0.00    +0.092 C 
ATOM     32  C   UNL     1      33.909 -23.159 -13.394  0.00  0.00    +0.252 C 
ATOM     33  C   UNL     1      38.507 -24.117 -14.187  0.00  0.00    +0.251 C 
ATOM     34  C   UNL     1      37.424 -25.160 -12.211  0.00  0.00    +0.022 C 
ATOM     35  C   UNL     1      33.998 -24.046 -12.163  0.00  0.00    +0.210 C 
ATOM     36  C   UNL     1      38.531 -24.992 -12.959  0.00  0.00    +0.059 C 
ENDBRANCH  22  28
ENDBRANCH   1  22
TORSDOF 5
ENDMDL
MODEL 5
REMARK VINA RESULT:     -13.0      2.067     11.149
REMARK  Name = 25101874
REMARK  5 active torsions:
REMARK  status: ('A' for Active; 'I' for Inactive)
REMARK    1  A    between atoms: N_1  and  C_22
REMARK    2  A    between atoms: C_2  and  N_8
REMARK    3  A    between atoms: N_8  and  C_11
REMARK    4  A    between atoms: C_11  and  C_14
REMARK    5  A    between atoms: C_22  and  C_28
REMARK                            x       y       z     vdW  Elec       q    Type
REMARK                         _______ _______ _______ _____ _____    ______ ____
ROOT
ATOM      1  N   UNL     1      35.099 -17.783 -21.500  0.00  0.00    +0.388 N 
ATOM      2  C   UNL     1      35.384 -20.407 -20.238  0.00  0.00    -0.066 C 
ATOM      3  C   UNL     1      36.428 -18.384 -21.325  0.00  0.00    -0.079 C 
ATOM      4  C   UNL     1      34.068 -18.814 -21.686  0.00  0.00    -0.079 C 
ATOM      5  C   UNL     1      36.456 -19.321 -20.115  0.00  0.00    -0.044 C 
ATOM      6  C   UNL     1      34.017 -19.765 -20.488  0.00  0.00    -0.044 C 
ATOM      7  H   UNL     1      34.876 -17.265 -20.651  0.00  0.00    -0.080 HD
ENDROOT
BRANCH   2   8
ATOM      8  N   UNL     1      35.361 -21.233 -19.033  0.00  0.00    +0.389 N 
ATOM      9  H   UNL     1      35.348 -20.627 -18.212  0.00  0.00    -0.084 HD
ATOM     10  H   UNL     1      36.193 -21.823 -19.025  0.00  0.00    -0.084 HD
BRANCH   8  11
ATOM     11  C   UNL     1      34.184 -22.088 -19.014  0.00  0.00    -0.034 C 
BRANCH  11  14
ATOM     12  O   UNL     1      32.626 -23.105 -13.738  0.00  0.00    -0.474 OA
ATOM     13  N   UNL     1      34.671 -22.516 -16.671  0.00  0.00    -0.247 NA
ATOM     14  C   UNL     1      33.712 -22.364 -17.610  0.00  0.00    +0.037 C 
ATOM     15  C   UNL     1      32.353 -22.448 -17.356  0.00  0.00    +0.011 C 
ATOM     16  C   UNL     1      31.940 -22.712 -16.048  0.00  0.00    +0.015 C 
ATOM     17  C   UNL     1      30.478 -22.814 -15.721  0.00  0.00    +0.033 C 
ATOM     18  C   UNL     1      32.908 -22.850 -15.051  0.00  0.00    +0.154 C 
ATOM     19  C   UNL     1      30.287 -23.484 -14.367  0.00  0.00    +0.052 C 
ATOM     20  C   UNL     1      34.244 -22.758 -15.411  0.00  0.00    +0.135 C 
ATOM     21  C   UNL     1      31.261 -22.881 -13.366  0.00  0.00    +0.206 C 
ENDBRANCH  11  14
ENDBRANCH   8  11
ENDBRANCH   2   8
BRANCH   1  22
ATOM     22  C   UNL     1      35.103 -16.853 -22.629  0.00  0.00    -0.055 C 
BRANCH  22  28
ATOM     23  O   UNL     1      33.885 -15.274 -19.882  0.00  0.00    -0.273 OA
ATOM     24  O   UNL     1      33.011 -14.062 -26.640  0.00  0.00    -0.270 OA
ATOM     25  N   UNL     1      33.662 -14.884 -22.173  0.00  0.00    -0.261 N 
ATOM     26  N   UNL     1      33.347 -14.445 -24.376  0.00  0.00    -0.255 N 
ATOM     27  N   UNL     1      33.466 -12.157 -21.546  0.00  0.00    -0.262 NA
ATOM     28  C   UNL     1      33.733 -16.212 -22.814  0.00  0.00    +0.076 C 
ATOM     29  C   UNL     1      33.434 -15.911 -24.308  0.00  0.00    +0.113 C 
ATOM     30  C   UNL     1      33.462 -13.932 -23.120  0.00  0.00    +0.196 C 
ATOM     31  C   UNL     1      33.372 -12.638 -22.826  0.00  0.00    +0.092 C 
ATOM     32  C   UNL     1      33.741 -14.542 -20.848  0.00  0.00    +0.252 C 
ATOM     33  C   UNL     1      33.133 -13.654 -25.488  0.00  0.00    +0.251 C 
ATOM     34  C   UNL     1      33.159 -11.724 -23.927  0.00  0.00    +0.022 C 
ATOM     35  C   UNL     1      33.636 -13.045 -20.609  0.00  0.00    +0.210 C 
ATOM     36  C   UNL     1      33.047 -12.178 -25.189  0.00  0.00    +0.059 C 
ENDBRANCH  22  28
ENDBRANCH   1  22
TORSDOF 5
ENDMDL
MODEL 6
REMARK VINA RESULT:     -13.0      4.638     12.502
REMARK  Name = 25101874
REMARK  5 active torsions:
REMARK  status: ('A' for Active; 'I' for Inactive)
REMARK    1  A    between atoms: N_1  and  C_22
REMARK    2  A    between atoms: C_2  and  N_8
REMARK    3  A    between atoms: N_8  and  C_11
REMARK    4  A    between atoms: C_11  and  C_14
REMARK    5  A    between atoms: C_22  and  C_28
REMARK                            x       y       z     vdW  Elec       q    Type
REMARK                         _______ _______ _______ _____ _____    ______ ____
ROOT
ATOM      1  N   UNL     1      32.874 -12.121 -23.061  0.00  0.00    +0.388 N 
ATOM      2  C   UNL     1      33.825 -14.879 -23.279  0.00  0.00    -0.066 C 
ATOM      3  C   UNL     1      33.816 -12.663 -22.073  0.00  0.00    -0.079 C 
ATOM      4  C   UNL     1      33.071 -12.738 -24.381  0.00  0.00    -0.079 C 
ATOM      5  C   UNL     1      33.654 -14.179 -21.929  0.00  0.00    -0.044 C 
ATOM      6  C   UNL     1      32.884 -14.256 -24.313  0.00  0.00    -0.044 C 
ATOM      7  H   UNL     1      31.929 -12.344 -22.749  0.00  0.00    -0.080 HD
ENDROOT
BRANCH   2   8
ATOM      8  N   UNL     1      33.573 -16.312 -23.140  0.00  0.00    +0.389 N 
ATOM      9  H   UNL     1      32.896 -16.602 -23.846  0.00  0.00    -0.084 HD
ATOM     10  H   UNL     1      33.207 -16.490 -22.204  0.00  0.00    -0.084 HD
BRANCH   8  11
ATOM     11  C   UNL     1      34.801 -17.072 -23.313  0.00  0.00    -0.034 C 
BRANCH  11  14
ATOM     12  O   UNL     1      35.783 -20.675 -19.149  0.00  0.00    -0.474 OA
ATOM     13  N   UNL     1      36.277 -18.186 -21.734  0.00  0.00    -0.247 NA
ATOM     14  C   UNL     1      35.013 -18.058 -22.195  0.00  0.00    +0.037 C 
ATOM     15  C   UNL     1      33.930 -18.771 -21.704  0.00  0.00    +0.011 C 
ATOM     16  C   UNL     1      34.153 -19.684 -20.671  0.00  0.00    +0.015 C 
ATOM     17  C   UNL     1      33.013 -20.481 -20.106  0.00  0.00    +0.033 C 
ATOM     18  C   UNL     1      35.445 -19.819 -20.158  0.00  0.00    +0.154 C 
ATOM     19  C   UNL     1      33.543 -21.660 -19.300  0.00  0.00    +0.052 C 
ATOM     20  C   UNL     1      36.463 -19.067 -20.726  0.00  0.00    +0.135 C 
ATOM     21  C   UNL     1      34.674 -21.185 -18.399  0.00  0.00    +0.206 C 
ENDBRANCH  11  14
ENDBRANCH   8  11
ENDBRANCH   2   8
BRANCH   1  22
ATOM     22  C   UNL     1      33.006 -10.667 -23.151  0.00  0.00    -0.055 C 
BRANCH  22  28
ATOM     23  O   UNL     1      31.529 -11.750 -20.294  0.00  0.00    -0.273 OA
ATOM     24  O   UNL     1      31.509  -5.574 -23.417  0.00  0.00    -0.270 OA
ATOM     25  N   UNL     1      31.594  -9.676 -21.366  0.00  0.00    -0.261 N 
ATOM     26  N   UNL     1      31.560  -7.634 -22.350  0.00  0.00    -0.255 N 
ATOM     27  N   UNL     1      31.425  -8.513 -18.819  0.00  0.00    -0.262 NA
ATOM     28  C   UNL     1      31.692  -9.975 -22.808  0.00  0.00    +0.076 C 
ATOM     29  C   UNL     1      31.584  -8.578 -23.477  0.00  0.00    +0.113 C 
ATOM     30  C   UNL     1      31.543  -8.333 -21.182  0.00  0.00    +0.196 C 
ATOM     31  C   UNL     1      31.466  -7.778 -19.976  0.00  0.00    +0.092 C 
ATOM     32  C   UNL     1      31.527 -10.529 -20.294  0.00  0.00    +0.252 C 
ATOM     33  C   UNL     1      31.508  -6.254 -22.395  0.00  0.00    +0.251 C 
ATOM     34  C   UNL     1      31.419  -6.334 -19.915  0.00  0.00    +0.022 C 
ATOM     35  C   UNL     1      31.449  -9.807 -18.959  0.00  0.00    +0.210 C 
ATOM     36  C   UNL     1      31.441  -5.595 -21.040  0.00  0.00    +0.059 C 
ENDBRANCH  22  28
ENDBRANCH   1  22
TORSDOF 5
ENDMDL
MODEL 7
REMARK VINA RESULT:     -12.5      1.945     11.284
REMARK  Name = 25101874
REMARK  5 active torsions:
REMARK  status: ('A' for Active; 'I' for Inactive)
REMARK    1  A    between atoms: N_1  and  C_22
REMARK    2  A    between atoms: C_2  and  N_8
REMARK    3  A    between atoms: N_8  and  C_11
REMARK    4  A    between atoms: C_11  and  C_14
REMARK    5  A    between atoms: C_22  and  C_28
REMARK                            x       y       z     vdW  Elec       q    Type
REMARK                         _______ _______ _______ _____ _____    ______ ____
ROOT
ATOM      1  N   UNL     1      35.117 -17.838 -21.705  0.00  0.00    +0.388 N 
ATOM      2  C   UNL     1      35.631 -20.317 -20.237  0.00  0.00    -0.066 C 
ATOM      3  C   UNL     1      36.494 -18.310 -21.499  0.00  0.00    -0.079 C 
ATOM      4  C   UNL     1      34.176 -18.964 -21.793  0.00  0.00    -0.079 C 
ATOM      5  C   UNL     1      36.608 -19.138 -20.216  0.00  0.00    -0.044 C 
ATOM      6  C   UNL     1      34.213 -19.815 -20.521  0.00  0.00    -0.044 C 
ATOM      7  H   UNL     1      34.855 -17.273 -20.898  0.00  0.00    -0.080 HD
ENDROOT
BRANCH   2   8
ATOM      8  N   UNL     1      35.685 -21.040 -18.968  0.00  0.00    +0.389 N 
ATOM      9  H   UNL     1      35.906 -20.384 -18.219  0.00  0.00    -0.084 HD
ATOM     10  H   UNL     1      36.404 -21.761 -19.033  0.00  0.00    -0.084 HD
BRANCH   8  11
ATOM     11  C   UNL     1      34.409 -21.678 -18.683  0.00  0.00    -0.034 C 
BRANCH  11  14
ATOM     12  O   UNL     1      33.966 -23.635 -13.461  0.00  0.00    -0.474 OA
ATOM     13  N   UNL     1      33.144 -22.655 -16.850  0.00  0.00    -0.247 NA
ATOM     14  C   UNL     1      34.341 -22.190 -17.268  0.00  0.00    +0.037 C 
ATOM     15  C   UNL     1      35.481 -22.158 -16.480  0.00  0.00    +0.011 C 
ATOM     16  C   UNL     1      35.393 -22.632 -15.170  0.00  0.00    +0.015 C 
ATOM     17  C   UNL     1      36.599 -22.618 -14.276  0.00  0.00    +0.033 C 
ATOM     18  C   UNL     1      34.174 -23.142 -14.718  0.00  0.00    +0.154 C 
ATOM     19  C   UNL     1      36.180 -22.796 -12.823  0.00  0.00    +0.052 C 
ATOM     20  C   UNL     1      33.088 -23.119 -15.582  0.00  0.00    +0.135 C 
ATOM     21  C   UNL     1      35.163 -23.924 -12.727  0.00  0.00    +0.206 C 
ENDBRANCH  11  14
ENDBRANCH   8  11
ENDBRANCH   2   8
BRANCH   1  22
ATOM     22  C   UNL     1      35.036 -17.007 -22.906  0.00  0.00    -0.055 C 
BRANCH  22  28
ATOM     23  O   UNL     1      33.999 -15.575 -20.009  0.00  0.00    -0.273 OA
ATOM     24  O   UNL     1      32.918 -13.856 -26.625  0.00  0.00    -0.270 OA
ATOM     25  N   UNL     1      33.704 -15.015 -22.257  0.00  0.00    -0.261 N 
ATOM     26  N   UNL     1      33.324 -14.410 -24.409  0.00  0.00    -0.255 N 
ATOM     27  N   UNL     1      33.658 -12.333 -21.436  0.00  0.00    -0.262 NA
ATOM     28  C   UNL     1      33.690 -16.297 -22.989  0.00  0.00    +0.076 C 
ATOM     29  C   UNL     1      33.347 -15.880 -24.445  0.00  0.00    +0.113 C 
ATOM     30  C   UNL     1      33.511 -13.992 -23.126  0.00  0.00    +0.196 C 
ATOM     31  C   UNL     1      33.492 -12.719 -22.742  0.00  0.00    +0.092 C 
ATOM     32  C   UNL     1      33.851 -14.771 -20.915  0.00  0.00    +0.252 C 
ATOM     33  C   UNL     1      33.103 -13.535 -25.455  0.00  0.00    +0.251 C 
ATOM     34  C   UNL     1      33.278 -11.722 -23.767  0.00  0.00    +0.022 C 
ATOM     35  C   UNL     1      33.823 -13.291 -20.571  0.00  0.00    +0.210 C 
ATOM     36  C   UNL     1      33.096 -12.081 -25.052  0.00  0.00    +0.059 C 
ENDBRANCH  22  28
ENDBRANCH   1  22
TORSDOF 5
ENDMDL
MODEL 8
REMARK VINA RESULT:     -12.2      3.711     11.950
REMARK  Name = 25101874
REMARK  5 active torsions:
REMARK  status: ('A' for Active; 'I' for Inactive)
REMARK    1  A    between atoms: N_1  and  C_22
REMARK    2  A    between atoms: C_2  and  N_8
REMARK    3  A    between atoms: N_8  and  C_11
REMARK    4  A    between atoms: C_11  and  C_14
REMARK    5  A    between atoms: C_22  and  C_28
REMARK                            x       y       z     vdW  Elec       q    Type
REMARK                         _______ _______ _______ _____ _____    ______ ____
ROOT
ATOM      1  N   UNL     1      33.341 -13.725 -23.090  0.00  0.00    +0.388 N 
ATOM      2  C   UNL     1      34.381 -16.456 -23.224  0.00  0.00    -0.066 C 
ATOM      3  C   UNL     1      34.194 -14.250 -22.015  0.00  0.00    -0.079 C 
ATOM      4  C   UNL     1      33.685 -14.327 -24.386  0.00  0.00    -0.079 C 
ATOM      5  C   UNL     1      34.059 -15.770 -21.894  0.00  0.00    -0.044 C 
ATOM      6  C   UNL     1      33.532 -15.850 -24.344  0.00  0.00    -0.044 C 
ATOM      7  H   UNL     1      32.376 -13.974 -22.874  0.00  0.00    -0.080 HD
ENDROOT
BRANCH   2   8
ATOM      8  N   UNL     1      34.154 -17.896 -23.117  0.00  0.00    +0.389 N 
ATOM      9  H   UNL     1      34.271 -18.322 -24.036  0.00  0.00    -0.084 HD
ATOM     10  H   UNL     1      33.207 -18.052 -22.771  0.00  0.00    -0.084 HD
BRANCH   8  11
ATOM     11  C   UNL     1      35.095 -18.500 -22.187  0.00  0.00    -0.034 C 
BRANCH  11  14
ATOM     12  O   UNL     1      32.341 -21.678 -18.498  0.00  0.00    -0.474 OA
ATOM     13  N   UNL     1      33.052 -19.393 -21.219  0.00  0.00    -0.247 NA
ATOM     14  C   UNL     1      34.401 -19.368 -21.170  0.00  0.00    +0.037 C 
ATOM     15  C   UNL     1      35.161 -20.079 -20.254  0.00  0.00    +0.011 C 
ATOM     16  C   UNL     1      34.495 -20.871 -19.317  0.00  0.00    +0.015 C 
ATOM     17  C   UNL     1      35.272 -21.660 -18.303  0.00  0.00    +0.033 C 
ATOM     18  C   UNL     1      33.101 -20.937 -19.359  0.00  0.00    +0.154 C 
ATOM     19  C   UNL     1      34.357 -22.110 -17.172  0.00  0.00    +0.052 C 
ATOM     20  C   UNL     1      32.433 -20.178 -20.309  0.00  0.00    +0.135 C 
ATOM     21  C   UNL     1      33.068 -22.667 -17.759  0.00  0.00    +0.206 C 
ENDBRANCH  11  14
ENDBRANCH   8  11
ENDBRANCH   2   8
BRANCH   1  22
ATOM     22  C   UNL     1      33.444 -12.267 -23.159  0.00  0.00    -0.055 C 
BRANCH  22  28
ATOM     23  O   UNL     1      31.825 -12.939 -20.253  0.00  0.00    -0.273 OA
ATOM     24  O   UNL     1      31.697  -7.405 -24.407  0.00  0.00    -0.270 OA
ATOM     25  N   UNL     1      31.855 -11.081 -21.666  0.00  0.00    -0.261 N 
ATOM     26  N   UNL     1      31.781  -9.244 -22.994  0.00  0.00    -0.255 N 
ATOM     27  N   UNL     1      31.440  -9.512 -19.379  0.00  0.00    -0.262 NA
ATOM     28  C   UNL     1      32.073 -11.615 -23.025  0.00  0.00    +0.076 C 
ATOM     29  C   UNL     1      31.937 -10.363 -23.934  0.00  0.00    +0.113 C 
ATOM     30  C   UNL     1      31.718  -9.732 -21.725  0.00  0.00    +0.196 C 
ATOM     31  C   UNL     1      31.525  -8.984 -20.641  0.00  0.00    +0.092 C 
ATOM     32  C   UNL     1      31.758 -11.740 -20.468  0.00  0.00    +0.252 C 
ATOM     33  C   UNL     1      31.659  -7.899 -23.283  0.00  0.00    +0.251 C 
ATOM     34  C   UNL     1      31.396  -7.557 -20.838  0.00  0.00    +0.022 C 
ATOM     35  C   UNL     1      31.545 -10.806 -19.288  0.00  0.00    +0.210 C 
ATOM     36  C   UNL     1      31.459  -7.022 -22.072  0.00  0.00    +0.059 C 
ENDBRANCH  22  28
ENDBRANCH   1  22
TORSDOF 5
ENDMDL
MODEL 9
REMARK VINA RESULT:     -11.9      1.795      2.653
REMARK  Name = 25101874
REMARK  5 active torsions:
REMARK  status: ('A' for Active; 'I' for Inactive)
REMARK    1  A    between atoms: N_1  and  C_22
REMARK    2  A    between atoms: C_2  and  N_8
REMARK    3  A    between atoms: N_8  and  C_11
REMARK    4  A    between atoms: C_11  and  C_14
REMARK    5  A    between atoms: C_22  and  C_28
REMARK                            x       y       z     vdW  Elec       q    Type
REMARK                         _______ _______ _______ _____ _____    ______ ____
ROOT
ATOM      1  N   UNL     1      33.167 -21.379 -18.368  0.00  0.00    +0.388 N 
ATOM      2  C   UNL     1      34.719 -20.240 -20.572  0.00  0.00    -0.066 C 
ATOM      3  C   UNL     1      32.492 -20.875 -19.572  0.00  0.00    -0.079 C 
ATOM      4  C   UNL     1      34.502 -21.904 -18.687  0.00  0.00    -0.079 C 
ATOM      5  C   UNL     1      33.304 -19.761 -20.236  0.00  0.00    -0.044 C 
ATOM      6  C   UNL     1      35.382 -20.824 -19.321  0.00  0.00    -0.044 C 
ATOM      7  H   UNL     1      33.282 -20.598 -17.724  0.00  0.00    -0.080 HD
ENDROOT
BRANCH   2   8
ATOM      8  N   UNL     1      35.510 -19.138 -21.116  0.00  0.00    +0.389 N 
ATOM      9  H   UNL     1      36.470 -19.454 -21.258  0.00  0.00    -0.084 HD
ATOM     10  H   UNL     1      35.486 -18.361 -20.455  0.00  0.00    -0.084 HD
BRANCH   8  11
ATOM     11  C   UNL     1      34.963 -18.687 -22.386  0.00  0.00    -0.034 C 
BRANCH  11  14
ATOM     12  O   UNL     1      33.605 -13.271 -22.050  0.00  0.00    -0.474 OA
ATOM     13  N   UNL     1      34.645 -16.621 -21.144  0.00  0.00    -0.247 NA
ATOM     14  C   UNL     1      34.583 -17.230 -22.348  0.00  0.00    +0.037 C 
ATOM     15  C   UNL     1      34.197 -16.599 -23.520  0.00  0.00    +0.011 C 
ATOM     16  C   UNL     1      33.843 -15.250 -23.459  0.00  0.00    +0.015 C 
ATOM     17  C   UNL     1      33.417 -14.521 -24.701  0.00  0.00    +0.033 C 
ATOM     18  C   UNL     1      33.921 -14.587 -22.232  0.00  0.00    +0.154 C 
ATOM     19  C   UNL     1      32.716 -13.220 -24.333  0.00  0.00    +0.052 C 
ATOM     20  C   UNL     1      34.310 -15.312 -21.115  0.00  0.00    +0.135 C 
ATOM     21  C   UNL     1      33.517 -12.504 -23.257  0.00  0.00    +0.206 C 
ENDBRANCH  11  14
ENDBRANCH   8  11
ENDBRANCH   2   8
BRANCH   1  22
ATOM     22  C   UNL     1      32.354 -22.407 -17.718  0.00  0.00    -0.055 C 
BRANCH  22  28
ATOM     23  O   UNL     1      29.026 -21.963 -17.223  0.00  0.00    -0.273 OA
ATOM     24  O   UNL     1      34.072 -24.012 -12.951  0.00  0.00    -0.270 OA
ATOM     25  N   UNL     1      30.759 -22.693 -15.838  0.00  0.00    -0.261 N 
ATOM     26  N   UNL     1      32.377 -23.371 -14.402  0.00  0.00    -0.255 N 
ATOM     27  N   UNL     1      28.857 -24.292 -14.538  0.00  0.00    -0.262 NA
ATOM     28  C   UNL     1      31.968 -21.986 -16.305  0.00  0.00    +0.076 C 
ATOM     29  C   UNL     1      33.049 -22.391 -15.267  0.00  0.00    +0.113 C 
ATOM     30  C   UNL     1      31.071 -23.471 -14.771  0.00  0.00    +0.196 C 
ATOM     31  C   UNL     1      30.172 -24.234 -14.155  0.00  0.00    +0.092 C 
ATOM     32  C   UNL     1      29.471 -22.632 -16.304  0.00  0.00    +0.252 C 
ATOM     33  C   UNL     1      32.907 -24.072 -13.336  0.00  0.00    +0.251 C 
ATOM     34  C   UNL     1      30.632 -25.019 -13.030  0.00  0.00    +0.022 C 
ATOM     35  C   UNL     1      28.517 -23.540 -15.544  0.00  0.00    +0.210 C 
ATOM     36  C   UNL     1      31.916 -24.962 -12.628  0.00  0.00    +0.059 C 
ENDBRANCH  22  28
ENDBRANCH   1  22
TORSDOF 5
ENDMDL
