MODEL 1
REMARK VINA RESULT:     -11.7      0.000      0.000
REMARK  Name = 11317439
REMARK  4 active torsions:
REMARK  status: ('A' for Active; 'I' for Inactive)
REMARK    1  A    between atoms: C_6  and  C_18
REMARK    2  A    between atoms: C_10  and  O_35
REMARK    3  A    between atoms: C_18  and  C_27
REMARK    4  A    between atoms: C_28  and  C_29
REMARK                            x       y       z     vdW  Elec       q    Type
REMARK                         _______ _______ _______ _____ _____    ______ ____
ROOT
ATOM      1  N   UNL     1      31.911 -22.028 -17.776  0.00  0.00    -0.309 N 
ATOM      2  N   UNL     1      31.159 -23.544 -15.279  0.00  0.00    -0.160 N 
ATOM      3  N   UNL     1      33.467 -23.535 -14.787  0.00  0.00    -0.223 NA
ATOM      4  N   UNL     1      30.109 -23.233 -16.060  0.00  0.00    -0.125 NA
ATOM      5  N   UNL     1      29.449 -24.378 -14.193  0.00  0.00    -0.198 NA
ATOM      6  C   UNL     1      33.948 -21.446 -18.353  0.00  0.00    +0.062 C 
ATOM      7  C   UNL     1      34.045 -22.131 -17.128  0.00  0.00    +0.056 C 
ATOM      8  C   UNL     1      32.740 -22.491 -16.782  0.00  0.00    +0.085 C 
ATOM      9  C   UNL     1      32.644 -21.389 -18.739  0.00  0.00    +0.065 C 
ATOM     10  C   UNL     1      35.091 -22.490 -16.267  0.00  0.00    +0.159 C 
ATOM     11  C   UNL     1      32.454 -23.189 -15.616  0.00  0.00    +0.167 C 
ATOM     12  C   UNL     1      34.731 -23.187 -15.122  0.00  0.00    +0.137 C 
ATOM     13  C   UNL     1      30.753 -24.225 -14.170  0.00  0.00    +0.253 C 
ATOM     14  C   UNL     1      29.103 -23.760 -15.360  0.00  0.00    +0.027 C 
ATOM     15  C   UNL     1      27.710 -23.677 -15.817  0.00  0.00    +0.116 C 
ATOM     16  H   UNL     1      30.933 -22.141 -17.793  0.00  0.00    +0.152 HD
ENDROOT
BRANCH   6  18
ATOM     17  O   UNL     1      36.016 -20.312 -18.635  0.00  0.00    -0.282 OA
ATOM     18  C   UNL     1      35.038 -20.864 -19.134  0.00  0.00    +0.250 C 
BRANCH  18  27
ATOM     19  O   UNL     1      35.382 -21.947 -21.126  0.00  0.00    -0.266 OA
ATOM     20  O   UNL     1      34.374 -16.062 -24.529  0.00  0.00    -0.270 OA
ATOM     21  N   UNL     1      34.652 -19.717 -21.248  0.00  0.00    -0.270 N 
ATOM     22  N   UNL     1      34.823 -17.214 -22.545  0.00  0.00    -0.273 N 
ATOM     23  C   UNL     1      34.621 -19.655 -22.710  0.00  0.00    +0.115 C 
ATOM     24  C   UNL     1      34.171 -18.512 -20.558  0.00  0.00    +0.115 C 
ATOM     25  C   UNL     1      35.336 -18.407 -23.220  0.00  0.00    +0.115 C 
ATOM     26  C   UNL     1      34.890 -17.271 -21.078  0.00  0.00    +0.115 C 
ATOM     27  C   UNL     1      35.039 -20.889 -20.616  0.00  0.00    +0.288 C 
ATOM     28  C   UNL     1      34.380 -16.127 -23.301  0.00  0.00    +0.249 C 
BRANCH  28  29
ATOM     29  C   UNL     1      33.860 -14.954 -22.586  0.00  0.00    +0.054 C 
ATOM     30  C   UNL     1      33.991 -14.871 -21.202  0.00  0.00    +0.005 C 
ATOM     31  C   UNL     1      33.238 -13.930 -23.296  0.00  0.00    +0.005 C 
ATOM     32  C   UNL     1      33.497 -13.757 -20.525  0.00  0.00    +0.000 C 
ATOM     33  C   UNL     1      32.744 -12.816 -22.618  0.00  0.00    +0.000 C 
ATOM     34  C   UNL     1      32.874 -12.730 -21.231  0.00  0.00    +0.000 C 
ENDBRANCH  28  29
ENDBRANCH  18  27
ENDBRANCH   6  18
BRANCH  10  35
ATOM     35  O   UNL     1      36.396 -22.182 -16.518  0.00  0.00    -0.470 OA
ATOM     36  C   UNL     1      37.346 -22.522 -15.511  0.00  0.00    +0.253 C 
ENDBRANCH  10  35
TORSDOF 4
ENDMDL
MODEL 2
REMARK VINA RESULT:     -11.1      1.310      1.632
REMARK  Name = 11317439
REMARK  4 active torsions:
REMARK  status: ('A' for Active; 'I' for Inactive)
REMARK    1  A    between atoms: C_6  and  C_18
REMARK    2  A    between atoms: C_10  and  O_35
REMARK    3  A    between atoms: C_18  and  C_27
REMARK    4  A    between atoms: C_28  and  C_29
REMARK                            x       y       z     vdW  Elec       q    Type
REMARK                         _______ _______ _______ _____ _____    ______ ____
ROOT
ATOM      1  N   UNL     1      31.878 -21.148 -18.871  0.00  0.00    -0.309 N 
ATOM      2  N   UNL     1      31.287 -22.805 -16.420  0.00  0.00    -0.160 N 
ATOM      3  N   UNL     1      33.618 -22.780 -16.055  0.00  0.00    -0.223 NA
ATOM      4  N   UNL     1      30.191 -22.472 -17.126  0.00  0.00    -0.125 NA
ATOM      5  N   UNL     1      29.652 -23.724 -15.289  0.00  0.00    -0.198 NA
ATOM      6  C   UNL     1      33.871 -20.500 -19.526  0.00  0.00    +0.062 C 
ATOM      7  C   UNL     1      34.045 -21.246 -18.346  0.00  0.00    +0.056 C 
ATOM      8  C   UNL     1      32.767 -21.646 -17.949  0.00  0.00    +0.085 C 
ATOM      9  C   UNL     1      32.547 -20.446 -19.837  0.00  0.00    +0.065 C 
ATOM     10  C   UNL     1      35.143 -21.631 -17.564  0.00  0.00    +0.159 C 
ATOM     11  C   UNL     1      32.556 -22.410 -16.808  0.00  0.00    +0.167 C 
ATOM     12  C   UNL     1      34.856 -22.393 -16.439  0.00  0.00    +0.137 C 
ATOM     13  C   UNL     1      30.952 -23.550 -15.329  0.00  0.00    +0.253 C 
ATOM     14  C   UNL     1      29.233 -23.052 -16.401  0.00  0.00    +0.027 C 
ATOM     15  C   UNL     1      27.816 -22.970 -16.777  0.00  0.00    +0.116 C 
ATOM     16  H   UNL     1      30.902 -21.276 -18.840  0.00  0.00    +0.152 HD
ENDROOT
BRANCH   6  18
ATOM     17  O   UNL     1      35.989 -19.487 -19.884  0.00  0.00    -0.282 OA
ATOM     18  C   UNL     1      34.907 -19.859 -20.334  0.00  0.00    +0.250 C 
BRANCH  18  27
ATOM     19  O   UNL     1      35.073 -20.499 -22.530  0.00  0.00    -0.266 OA
ATOM     20  O   UNL     1      33.222 -14.191 -24.532  0.00  0.00    -0.270 OA
ATOM     21  N   UNL     1      34.175 -18.368 -22.114  0.00  0.00    -0.270 N 
ATOM     22  N   UNL     1      34.000 -15.657 -22.886  0.00  0.00    -0.273 N 
ATOM     23  C   UNL     1      33.954 -18.028 -23.521  0.00  0.00    +0.115 C 
ATOM     24  C   UNL     1      33.700 -17.370 -21.145  0.00  0.00    +0.115 C 
ATOM     25  C   UNL     1      34.508 -16.642 -23.841  0.00  0.00    +0.115 C 
ATOM     26  C   UNL     1      34.257 -15.989 -21.477  0.00  0.00    +0.115 C 
ATOM     27  C   UNL     1      34.723 -19.597 -21.780  0.00  0.00    +0.288 C 
ATOM     28  C   UNL     1      33.388 -14.491 -23.351  0.00  0.00    +0.249 C 
BRANCH  28  29
ATOM     29  C   UNL     1      32.881 -13.533 -22.360  0.00  0.00    +0.054 C 
ATOM     30  C   UNL     1      32.944 -13.841 -21.003  0.00  0.00    +0.005 C 
ATOM     31  C   UNL     1      32.337 -12.323 -22.782  0.00  0.00    +0.005 C 
ATOM     32  C   UNL     1      32.462 -12.931 -20.063  0.00  0.00    +0.000 C 
ATOM     33  C   UNL     1      31.854 -11.413 -21.842  0.00  0.00    +0.000 C 
ATOM     34  C   UNL     1      31.917 -11.718 -20.482  0.00  0.00    +0.000 C 
ENDBRANCH  28  29
ENDBRANCH  18  27
ENDBRANCH   6  18
BRANCH  10  35
ATOM     35  O   UNL     1      36.427 -21.287 -17.868  0.00  0.00    -0.470 OA
ATOM     36  C   UNL     1      37.173 -20.616 -16.856  0.00  0.00    +0.253 C 
ENDBRANCH  10  35
TORSDOF 4
ENDMDL
MODEL 3
REMARK VINA RESULT:     -10.9      5.983     10.673
REMARK  Name = 11317439
REMARK  4 active torsions:
REMARK  status: ('A' for Active; 'I' for Inactive)
REMARK    1  A    between atoms: C_6  and  C_18
REMARK    2  A    between atoms: C_10  and  O_35
REMARK    3  A    between atoms: C_18  and  C_27
REMARK    4  A    between atoms: C_28  and  C_29
REMARK                            x       y       z     vdW  Elec       q    Type
REMARK                         _______ _______ _______ _____ _____    ______ ____
ROOT
ATOM      1  N   UNL     1      34.292 -14.955 -21.567  0.00  0.00    -0.309 N 
ATOM      2  N   UNL     1      34.482 -17.745 -22.698  0.00  0.00    -0.160 N 
ATOM      3  N   UNL     1      33.538 -16.829 -24.656  0.00  0.00    -0.223 NA
ATOM      4  N   UNL     1      34.935 -17.640 -21.435  0.00  0.00    -0.125 NA
ATOM      5  N   UNL     1      35.116 -19.785 -22.212  0.00  0.00    -0.198 NA
ATOM      6  C   UNL     1      33.502 -13.199 -22.624  0.00  0.00    +0.062 C 
ATOM      7  C   UNL     1      33.409 -14.290 -23.507  0.00  0.00    +0.056 C 
ATOM      8  C   UNL     1      33.916 -15.392 -22.815  0.00  0.00    +0.085 C 
ATOM      9  C   UNL     1      34.041 -13.614 -21.445  0.00  0.00    +0.065 C 
ATOM     10  C   UNL     1      32.952 -14.473 -24.820  0.00  0.00    +0.159 C 
ATOM     11  C   UNL     1      33.980 -16.656 -23.388  0.00  0.00    +0.167 C 
ATOM     12  C   UNL     1      33.046 -15.762 -25.327  0.00  0.00    +0.137 C 
ATOM     13  C   UNL     1      34.596 -19.027 -23.148  0.00  0.00    +0.253 C 
ATOM     14  C   UNL     1      35.305 -18.899 -21.190  0.00  0.00    +0.027 C 
ATOM     15  C   UNL     1      35.880 -19.303 -19.900  0.00  0.00    +0.116 C 
ATOM     16  H   UNL     1      34.684 -15.522 -20.865  0.00  0.00    +0.152 HD
ENDROOT
BRANCH   6  18
ATOM     17  O   UNL     1      33.578 -11.119 -23.767  0.00  0.00    -0.282 OA
ATOM     18  C   UNL     1      33.101 -11.816 -22.874  0.00  0.00    +0.250 C 
BRANCH  18  27
ATOM     19  O   UNL     1      31.428 -11.861 -21.306  0.00  0.00    -0.266 OA
ATOM     20  O   UNL     1      30.085  -5.230 -22.510  0.00  0.00    -0.270 OA
ATOM     21  N   UNL     1      31.976  -9.762 -22.207  0.00  0.00    -0.270 N 
ATOM     22  N   UNL     1      31.075  -7.253 -23.138  0.00  0.00    -0.273 N 
ATOM     23  C   UNL     1      30.993  -9.009 -21.425  0.00  0.00    +0.115 C 
ATOM     24  C   UNL     1      32.856  -8.949 -23.058  0.00  0.00    +0.115 C 
ATOM     25  C   UNL     1      30.183  -8.075 -22.320  0.00  0.00    +0.115 C 
ATOM     26  C   UNL     1      32.035  -8.018 -23.946  0.00  0.00    +0.115 C 
ATOM     27  C   UNL     1      32.077 -11.135 -22.047  0.00  0.00    +0.288 C 
ATOM     28  C   UNL     1      30.925  -5.864 -23.147  0.00  0.00    +0.249 C 
BRANCH  28  29
ATOM     29  C   UNL     1      31.848  -5.074 -23.971  0.00  0.00    +0.054 C 
ATOM     30  C   UNL     1      33.222  -5.182 -23.771  0.00  0.00    +0.005 C 
ATOM     31  C   UNL     1      31.345  -4.218 -24.948  0.00  0.00    +0.005 C 
ATOM     32  C   UNL     1      34.098  -4.431 -24.553  0.00  0.00    +0.000 C 
ATOM     33  C   UNL     1      32.221  -3.467 -25.731  0.00  0.00    +0.000 C 
ATOM     34  C   UNL     1      33.598  -3.574 -25.533  0.00  0.00    +0.000 C 
ENDBRANCH  28  29
ENDBRANCH  18  27
ENDBRANCH   6  18
BRANCH  10  35
ATOM     35  O   UNL     1      32.443 -13.458 -25.575  0.00  0.00    -0.470 OA
ATOM     36  C   UNL     1      33.182 -13.083 -26.735  0.00  0.00    +0.253 C 
ENDBRANCH  10  35
TORSDOF 4
ENDMDL
MODEL 4
REMARK VINA RESULT:     -10.6      2.219      3.690
REMARK  Name = 11317439
REMARK  4 active torsions:
REMARK  status: ('A' for Active; 'I' for Inactive)
REMARK    1  A    between atoms: C_6  and  C_18
REMARK    2  A    between atoms: C_10  and  O_35
REMARK    3  A    between atoms: C_18  and  C_27
REMARK    4  A    between atoms: C_28  and  C_29
REMARK                            x       y       z     vdW  Elec       q    Type
REMARK                         _______ _______ _______ _____ _____    ______ ____
ROOT
ATOM      1  N   UNL     1      36.718 -21.407 -16.340  0.00  0.00    -0.309 N 
ATOM      2  N   UNL     1      35.126 -23.341 -14.658  0.00  0.00    -0.160 N 
ATOM      3  N   UNL     1      33.481 -23.182 -16.341  0.00  0.00    -0.223 NA
ATOM      4  N   UNL     1      36.320 -23.017 -14.128  0.00  0.00    -0.125 NA
ATOM      5  N   UNL     1      35.183 -24.484 -12.790  0.00  0.00    -0.198 NA
ATOM      6  C   UNL     1      36.074 -20.552 -18.257  0.00  0.00    +0.062 C 
ATOM      7  C   UNL     1      35.041 -21.398 -17.814  0.00  0.00    +0.056 C 
ATOM      8  C   UNL     1      35.472 -21.929 -16.596  0.00  0.00    +0.085 C 
ATOM      9  C   UNL     1      37.091 -20.564 -17.353  0.00  0.00    +0.065 C 
ATOM     10  C   UNL     1      33.784 -21.777 -18.305  0.00  0.00    +0.159 C 
ATOM     11  C   UNL     1      34.695 -22.818 -15.864  0.00  0.00    +0.167 C 
ATOM     12  C   UNL     1      33.063 -22.667 -17.521  0.00  0.00    +0.137 C 
ATOM     13  C   UNL     1      34.460 -24.215 -13.851  0.00  0.00    +0.253 C 
ATOM     14  C   UNL     1      36.304 -23.733 -13.002  0.00  0.00    +0.027 C 
ATOM     15  C   UNL     1      37.424 -23.714 -12.052  0.00  0.00    +0.116 C 
ATOM     16  H   UNL     1      37.262 -21.611 -15.545  0.00  0.00    +0.152 HD
ENDROOT
BRANCH   6  18
ATOM     17  O   UNL     1      36.726 -18.702 -19.597  0.00  0.00    -0.282 OA
ATOM     18  C   UNL     1      36.109 -19.759 -19.485  0.00  0.00    +0.250 C 
BRANCH  18  27
ATOM     19  O   UNL     1      35.414 -21.373 -20.960  0.00  0.00    -0.266 OA
ATOM     20  O   UNL     1      32.943 -16.517 -25.148  0.00  0.00    -0.270 OA
ATOM     21  N   UNL     1      34.749 -19.166 -21.416  0.00  0.00    -0.270 N 
ATOM     22  N   UNL     1      34.294 -17.160 -23.351  0.00  0.00    -0.273 N 
ATOM     23  C   UNL     1      34.004 -19.490 -22.634  0.00  0.00    +0.115 C 
ATOM     24  C   UNL     1      34.685 -17.759 -20.997  0.00  0.00    +0.115 C 
ATOM     25  C   UNL     1      34.393 -18.556 -23.777  0.00  0.00    +0.115 C 
ATOM     26  C   UNL     1      35.073 -16.836 -22.148  0.00  0.00    +0.115 C 
ATOM     27  C   UNL     1      35.381 -20.176 -20.707  0.00  0.00    +0.288 C 
ATOM     28  C   UNL     1      33.551 -16.254 -24.111  0.00  0.00    +0.249 C 
BRANCH  28  29
ATOM     29  C   UNL     1      33.466 -14.865 -23.643  0.00  0.00    +0.054 C 
ATOM     30  C   UNL     1      33.044 -13.864 -24.515  0.00  0.00    +0.005 C 
ATOM     31  C   UNL     1      33.807 -14.555 -22.329  0.00  0.00    +0.005 C 
ATOM     32  C   UNL     1      32.964 -12.545 -24.069  0.00  0.00    +0.000 C 
ATOM     33  C   UNL     1      33.727 -13.236 -21.883  0.00  0.00    +0.000 C 
ATOM     34  C   UNL     1      33.304 -12.231 -22.755  0.00  0.00    +0.000 C 
ENDBRANCH  28  29
ENDBRANCH  18  27
ENDBRANCH   6  18
BRANCH  10  35
ATOM     35  O   UNL     1      33.278 -21.314 -19.484  0.00  0.00    -0.470 OA
ATOM     36  C   UNL     1      32.108 -20.504 -19.411  0.00  0.00    +0.253 C 
ENDBRANCH  10  35
TORSDOF 4
ENDMDL
MODEL 5
REMARK VINA RESULT:     -10.3      2.699      9.704
REMARK  Name = 11317439
REMARK  4 active torsions:
REMARK  status: ('A' for Active; 'I' for Inactive)
REMARK    1  A    between atoms: C_6  and  C_18
REMARK    2  A    between atoms: C_10  and  O_35
REMARK    3  A    between atoms: C_18  and  C_27
REMARK    4  A    between atoms: C_28  and  C_29
REMARK                            x       y       z     vdW  Elec       q    Type
REMARK                         _______ _______ _______ _____ _____    ______ ____
ROOT
ATOM      1  N   UNL     1      32.884 -19.786 -21.118  0.00  0.00    -0.309 N 
ATOM      2  N   UNL     1      34.879 -17.690 -21.972  0.00  0.00    -0.160 N 
ATOM      3  N   UNL     1      36.328 -18.673 -20.391  0.00  0.00    -0.223 NA
ATOM      4  N   UNL     1      33.702 -17.613 -22.619  0.00  0.00    -0.125 NA
ATOM      5  N   UNL     1      35.152 -15.991 -23.327  0.00  0.00    -0.198 NA
ATOM      6  C   UNL     1      33.225 -21.328 -19.592  0.00  0.00    +0.062 C 
ATOM      7  C   UNL     1      34.403 -20.565 -19.680  0.00  0.00    +0.056 C 
ATOM      8  C   UNL     1      34.164 -19.593 -20.653  0.00  0.00    +0.085 C 
ATOM      9  C   UNL     1      32.306 -20.846 -20.472  0.00  0.00    +0.065 C 
ATOM     10  C   UNL     1      35.653 -20.584 -19.043  0.00  0.00    +0.159 C 
ATOM     11  C   UNL     1      35.123 -18.652 -21.007  0.00  0.00    +0.167 C 
ATOM     12  C   UNL     1      36.561 -19.615 -19.446  0.00  0.00    +0.137 C 
ATOM     13  C   UNL     1      35.733 -16.719 -22.403  0.00  0.00    +0.253 C 
ATOM     14  C   UNL     1      33.919 -16.572 -23.425  0.00  0.00    +0.027 C 
ATOM     15  C   UNL     1      32.896 -16.083 -24.357  0.00  0.00    +0.116 C 
ATOM     16  H   UNL     1      32.448 -19.242 -21.813  0.00  0.00    +0.152 HD
ENDROOT
BRANCH   6  18
ATOM     17  O   UNL     1      33.390 -23.604 -18.933  0.00  0.00    -0.282 OA
ATOM     18  C   UNL     1      32.968 -22.470 -18.716  0.00  0.00    +0.250 C 
BRANCH  18  27
ATOM     19  O   UNL     1      31.054 -21.834 -17.626  0.00  0.00    -0.266 OA
ATOM     20  O   UNL     1      33.987 -23.277 -11.581  0.00  0.00    -0.270 OA
ATOM     21  N   UNL     1      32.738 -22.820 -16.318  0.00  0.00    -0.270 N 
ATOM     22  N   UNL     1      34.153 -22.853 -13.874  0.00  0.00    -0.273 N 
ATOM     23  C   UNL     1      32.003 -22.739 -15.054  0.00  0.00    +0.115 C 
ATOM     24  C   UNL     1      34.038 -23.501 -16.246  0.00  0.00    +0.115 C 
ATOM     25  C   UNL     1      32.876 -22.144 -13.952  0.00  0.00    +0.115 C 
ATOM     26  C   UNL     1      34.900 -22.900 -15.139  0.00  0.00    +0.115 C 
ATOM     27  C   UNL     1      32.157 -22.345 -17.483  0.00  0.00    +0.288 C 
ATOM     28  C   UNL     1      34.590 -23.364 -12.650  0.00  0.00    +0.249 C 
BRANCH  28  29
ATOM     29  C   UNL     1      35.871 -24.081 -12.616  0.00  0.00    +0.054 C 
ATOM     30  C   UNL     1      35.955 -25.373 -13.128  0.00  0.00    +0.005 C 
ATOM     31  C   UNL     1      36.995 -23.465 -12.072  0.00  0.00    +0.005 C 
ATOM     32  C   UNL     1      37.172 -26.053 -13.096  0.00  0.00    +0.000 C 
ATOM     33  C   UNL     1      38.212 -24.146 -12.039  0.00  0.00    +0.000 C 
ATOM     34  C   UNL     1      38.300 -25.441 -12.552  0.00  0.00    +0.000 C 
ENDBRANCH  28  29
ENDBRANCH  18  27
ENDBRANCH   6  18
BRANCH  10  35
ATOM     35  O   UNL     1      35.981 -21.496 -18.083  0.00  0.00    -0.470 OA
ATOM     36  C   UNL     1      36.789 -21.034 -17.003  0.00  0.00    +0.253 C 
ENDBRANCH  10  35
TORSDOF 4
ENDMDL
MODEL 6
REMARK VINA RESULT:     -10.2      2.733     10.179
REMARK  Name = 11317439
REMARK  4 active torsions:
REMARK  status: ('A' for Active; 'I' for Inactive)
REMARK    1  A    between atoms: C_6  and  C_18
REMARK    2  A    between atoms: C_10  and  O_35
REMARK    3  A    between atoms: C_18  and  C_27
REMARK    4  A    between atoms: C_28  and  C_29
REMARK                            x       y       z     vdW  Elec       q    Type
REMARK                         _______ _______ _______ _____ _____    ______ ____
ROOT
ATOM      1  N   UNL     1      34.235 -15.671 -21.560  0.00  0.00    -0.309 N 
ATOM      2  N   UNL     1      33.371 -14.349 -24.130  0.00  0.00    -0.160 N 
ATOM      3  N   UNL     1      33.388 -16.521 -25.051  0.00  0.00    -0.223 NA
ATOM      4  N   UNL     1      33.546 -13.488 -23.110  0.00  0.00    -0.125 NA
ATOM      5  N   UNL     1      32.892 -12.403 -25.016  0.00  0.00    -0.198 NA
ATOM      6  C   UNL     1      34.576 -17.823 -21.282  0.00  0.00    +0.062 C 
ATOM      7  C   UNL     1      34.188 -17.635 -22.621  0.00  0.00    +0.056 C 
ATOM      8  C   UNL     1      33.977 -16.263 -22.774  0.00  0.00    +0.085 C 
ATOM      9  C   UNL     1      34.601 -16.620 -20.644  0.00  0.00    +0.065 C 
ATOM     10  C   UNL     1      33.990 -18.472 -23.727  0.00  0.00    +0.159 C 
ATOM     11  C   UNL     1      33.578 -15.709 -23.984  0.00  0.00    +0.167 C 
ATOM     12  C   UNL     1      33.593 -17.850 -24.903  0.00  0.00    +0.137 C 
ATOM     13  C   UNL     1      32.982 -13.690 -25.258  0.00  0.00    +0.253 C 
ATOM     14  C   UNL     1      33.244 -12.329 -23.698  0.00  0.00    +0.027 C 
ATOM     15  C   UNL     1      33.288 -11.054 -22.971  0.00  0.00    +0.116 C 
ATOM     16  H   UNL     1      34.165 -14.706 -21.376  0.00  0.00    +0.152 HD
ENDROOT
BRANCH   6  18
ATOM     17  O   UNL     1      36.060 -19.431 -20.360  0.00  0.00    -0.282 OA
ATOM     18  C   UNL     1      34.911 -19.083 -20.621  0.00  0.00    +0.250 C 
BRANCH  18  27
ATOM     19  O   UNL     1      32.778 -19.915 -20.754  0.00  0.00    -0.266 OA
ATOM     20  O   UNL     1      34.094 -24.187 -15.534  0.00  0.00    -0.270 OA
ATOM     21  N   UNL     1      34.251 -21.010 -19.287  0.00  0.00    -0.270 N 
ATOM     22  N   UNL     1      34.631 -22.299 -16.803  0.00  0.00    -0.273 N 
ATOM     23  C   UNL     1      33.285 -22.014 -18.837  0.00  0.00    +0.115 C 
ATOM     24  C   UNL     1      35.612 -21.165 -18.755  0.00  0.00    +0.115 C 
ATOM     25  C   UNL     1      33.272 -22.114 -17.314  0.00  0.00    +0.115 C 
ATOM     26  C   UNL     1      35.586 -21.267 -17.232  0.00  0.00    +0.115 C 
ATOM     27  C   UNL     1      33.869 -20.057 -20.218  0.00  0.00    +0.288 C 
ATOM     28  C   UNL     1      34.908 -23.356 -15.934  0.00  0.00    +0.249 C 
BRANCH  28  29
ATOM     29  C   UNL     1      36.287 -23.515 -15.454  0.00  0.00    +0.054 C 
ATOM     30  C   UNL     1      36.622 -24.604 -14.654  0.00  0.00    +0.005 C 
ATOM     31  C   UNL     1      37.253 -22.574 -15.801  0.00  0.00    +0.005 C 
ATOM     32  C   UNL     1      37.931 -24.754 -14.199  0.00  0.00    +0.000 C 
ATOM     33  C   UNL     1      38.563 -22.723 -15.346  0.00  0.00    +0.000 C 
ATOM     34  C   UNL     1      38.901 -23.814 -14.544  0.00  0.00    +0.000 C 
ENDBRANCH  28  29
ENDBRANCH  18  27
ENDBRANCH   6  18
BRANCH  10  35
ATOM     35  O   UNL     1      34.169 -19.823 -23.675  0.00  0.00    -0.470 OA
ATOM     36  C   UNL     1      34.537 -20.474 -24.889  0.00  0.00    +0.253 C 
ENDBRANCH  10  35
TORSDOF 4
ENDMDL
MODEL 7
REMARK VINA RESULT:     -10.2      5.662     12.867
REMARK  Name = 11317439
REMARK  4 active torsions:
REMARK  status: ('A' for Active; 'I' for Inactive)
REMARK    1  A    between atoms: C_6  and  C_18
REMARK    2  A    between atoms: C_10  and  O_35
REMARK    3  A    between atoms: C_18  and  C_27
REMARK    4  A    between atoms: C_28  and  C_29
REMARK                            x       y       z     vdW  Elec       q    Type
REMARK                         _______ _______ _______ _____ _____    ______ ____
ROOT
ATOM      1  N   UNL     1      33.815  -8.621 -24.019  0.00  0.00    -0.309 N 
ATOM      2  N   UNL     1      32.243  -6.139 -23.333  0.00  0.00    -0.160 N 
ATOM      3  N   UNL     1      30.852  -7.576 -22.082  0.00  0.00    -0.223 NA
ATOM      4  N   UNL     1      33.300  -5.907 -24.133  0.00  0.00    -0.125 NA
ATOM      5  N   UNL     1      32.168  -3.975 -23.664  0.00  0.00    -0.198 NA
ATOM      6  C   UNL     1      33.356 -10.655 -23.331  0.00  0.00    +0.062 C 
ATOM      7  C   UNL     1      32.380  -9.803 -22.784  0.00  0.00    +0.056 C 
ATOM      8  C   UNL     1      32.692  -8.518 -23.233  0.00  0.00    +0.085 C 
ATOM      9  C   UNL     1      34.226  -9.925 -24.082  0.00  0.00    +0.065 C 
ATOM     10  C   UNL     1      31.263  -9.972 -21.954  0.00  0.00    +0.159 C 
ATOM     11  C   UNL     1      31.930  -7.410 -22.884  0.00  0.00    +0.167 C 
ATOM     12  C   UNL     1      30.549  -8.821 -21.646  0.00  0.00    +0.137 C 
ATOM     13  C   UNL     1      31.578  -4.981 -23.061  0.00  0.00    +0.253 C 
ATOM     14  C   UNL     1      33.208  -4.587 -24.304  0.00  0.00    +0.027 C 
ATOM     15  C   UNL     1      34.168  -3.840 -25.126  0.00  0.00    +0.116 C 
ATOM     16  H   UNL     1      34.260  -7.866 -24.470  0.00  0.00    +0.152 HD
ENDROOT
BRANCH   6  18
ATOM     17  O   UNL     1      33.750 -12.640 -22.088  0.00  0.00    -0.282 OA
ATOM     18  C   UNL     1      33.472 -12.102 -23.157  0.00  0.00    +0.250 C 
BRANCH  18  27
ATOM     19  O   UNL     1      32.752 -12.568 -25.284  0.00  0.00    -0.266 OA
ATOM     20  O   UNL     1      33.896 -19.262 -24.230  0.00  0.00    -0.270 OA
ATOM     21  N   UNL     1      33.686 -14.350 -24.069  0.00  0.00    -0.270 N 
ATOM     22  N   UNL     1      33.602 -17.094 -23.407  0.00  0.00    -0.273 N 
ATOM     23  C   UNL     1      33.526 -15.346 -25.130  0.00  0.00    +0.115 C 
ATOM     24  C   UNL     1      34.378 -14.823 -22.863  0.00  0.00    +0.115 C 
ATOM     25  C   UNL     1      32.882 -16.620 -24.590  0.00  0.00    +0.115 C 
ATOM     26  C   UNL     1      33.728 -16.098 -22.334  0.00  0.00    +0.115 C 
ATOM     27  C   UNL     1      33.268 -13.045 -24.282  0.00  0.00    +0.288 C 
ATOM     28  C   UNL     1      34.049 -18.415 -23.351  0.00  0.00    +0.249 C 
BRANCH  28  29
ATOM     29  C   UNL     1      34.779 -18.848 -22.153  0.00  0.00    +0.054 C 
ATOM     30  C   UNL     1      36.042 -18.325 -21.884  0.00  0.00    +0.005 C 
ATOM     31  C   UNL     1      34.207 -19.781 -21.292  0.00  0.00    +0.005 C 
ATOM     32  C   UNL     1      36.734 -18.737 -20.745  0.00  0.00    +0.000 C 
ATOM     33  C   UNL     1      34.899 -20.192 -20.154  0.00  0.00    +0.000 C 
ATOM     34  C   UNL     1      36.164 -19.670 -19.881  0.00  0.00    +0.000 C 
ENDBRANCH  28  29
ENDBRANCH  18  27
ENDBRANCH   6  18
BRANCH  10  35
ATOM     35  O   UNL     1      30.881 -11.185 -21.463  0.00  0.00    -0.470 OA
ATOM     36  C   UNL     1      31.437 -11.580 -20.212  0.00  0.00    +0.253 C 
ENDBRANCH  10  35
TORSDOF 4
ENDMDL
MODEL 8
REMARK VINA RESULT:      -9.8      1.950      3.928
REMARK  Name = 11317439
REMARK  4 active torsions:
REMARK  status: ('A' for Active; 'I' for Inactive)
REMARK    1  A    between atoms: C_6  and  C_18
REMARK    2  A    between atoms: C_10  and  O_35
REMARK    3  A    between atoms: C_18  and  C_27
REMARK    4  A    between atoms: C_28  and  C_29
REMARK                            x       y       z     vdW  Elec       q    Type
REMARK                         _______ _______ _______ _____ _____    ______ ____
ROOT
ATOM      1  N   UNL     1      36.374 -22.256 -16.783  0.00  0.00    -0.309 N 
ATOM      2  N   UNL     1      36.016 -23.952 -14.314  0.00  0.00    -0.160 N 
ATOM      3  N   UNL     1      33.707 -23.836 -14.779  0.00  0.00    -0.223 NA
ATOM      4  N   UNL     1      37.300 -23.655 -14.586  0.00  0.00    -0.125 NA
ATOM      5  N   UNL     1      37.122 -24.941 -12.702  0.00  0.00    -0.198 NA
ATOM      6  C   UNL     1      34.756 -21.523 -18.075  0.00  0.00    +0.062 C 
ATOM      7  C   UNL     1      34.157 -22.270 -17.044  0.00  0.00    +0.056 C 
ATOM      8  C   UNL     1      35.202 -22.725 -16.238  0.00  0.00    +0.085 C 
ATOM      9  C   UNL     1      36.107 -21.521 -17.907  0.00  0.00    +0.065 C 
ATOM     10  C   UNL     1      32.842 -22.615 -16.699  0.00  0.00    +0.159 C 
ATOM     11  C   UNL     1      34.977 -23.505 -15.110  0.00  0.00    +0.167 C 
ATOM     12  C   UNL     1      32.693 -23.396 -15.560  0.00  0.00    +0.137 C 
ATOM     13  C   UNL     1      35.924 -24.718 -13.190  0.00  0.00    +0.253 C 
ATOM     14  C   UNL     1      37.926 -24.276 -13.584  0.00  0.00    +0.027 C 
ATOM     15  C   UNL     1      39.387 -24.244 -13.440  0.00  0.00    +0.116 C 
ATOM     16  H   UNL     1      37.273 -22.426 -16.420  0.00  0.00    +0.152 HD
ENDROOT
BRANCH   6  18
ATOM     17  O   UNL     1      32.948 -20.384 -19.111  0.00  0.00    -0.282 OA
ATOM     18  C   UNL     1      34.089 -20.837 -19.180  0.00  0.00    +0.250 C 
BRANCH  18  27
ATOM     19  O   UNL     1      35.426 -21.578 -20.889  0.00  0.00    -0.266 OA
ATOM     20  O   UNL     1      35.208 -15.352 -23.790  0.00  0.00    -0.270 OA
ATOM     21  N   UNL     1      34.519 -19.422 -21.114  0.00  0.00    -0.270 N 
ATOM     22  N   UNL     1      34.891 -16.747 -21.942  0.00  0.00    -0.273 N 
ATOM     23  C   UNL     1      35.129 -19.144 -22.416  0.00  0.00    +0.115 C 
ATOM     24  C   UNL     1      33.619 -18.377 -20.608  0.00  0.00    +0.115 C 
ATOM     25  C   UNL     1      35.812 -17.780 -22.420  0.00  0.00    +0.115 C 
ATOM     26  C   UNL     1      34.311 -17.017 -20.619  0.00  0.00    +0.115 C 
ATOM     27  C   UNL     1      34.748 -20.639 -20.492  0.00  0.00    +0.288 C 
ATOM     28  C   UNL     1      34.679 -15.599 -22.708  0.00  0.00    +0.249 C 
BRANCH  28  29
ATOM     29  C   UNL     1      33.738 -14.593 -22.200  0.00  0.00    +0.054 C 
ATOM     30  C   UNL     1      33.570 -14.432 -20.826  0.00  0.00    +0.005 C 
ATOM     31  C   UNL     1      33.017 -13.805 -23.093  0.00  0.00    +0.005 C 
ATOM     32  C   UNL     1      32.675 -13.477 -20.345  0.00  0.00    +0.000 C 
ATOM     33  C   UNL     1      32.123 -12.850 -22.612  0.00  0.00    +0.000 C 
ATOM     34  C   UNL     1      31.952 -12.686 -21.236  0.00  0.00    +0.000 C 
ENDBRANCH  28  29
ENDBRANCH  18  27
ENDBRANCH   6  18
BRANCH  10  35
ATOM     35  O   UNL     1      31.758 -22.220 -17.425  0.00  0.00    -0.470 OA
ATOM     36  C   UNL     1      30.488 -22.288 -16.780  0.00  0.00    +0.253 C 
ENDBRANCH  10  35
TORSDOF 4
ENDMDL
MODEL 9
REMARK VINA RESULT:      -9.7      6.774     11.746
REMARK  Name = 11317439
REMARK  4 active torsions:
REMARK  status: ('A' for Active; 'I' for Inactive)
REMARK    1  A    between atoms: C_6  and  C_18
REMARK    2  A    between atoms: C_10  and  O_35
REMARK    3  A    between atoms: C_18  and  C_27
REMARK    4  A    between atoms: C_28  and  C_29
REMARK                            x       y       z     vdW  Elec       q    Type
REMARK                         _______ _______ _______ _____ _____    ______ ____
ROOT
ATOM      1  N   UNL     1      32.559 -13.869 -20.554  0.00  0.00    -0.309 N 
ATOM      2  N   UNL     1      34.309 -15.419 -22.461  0.00  0.00    -0.160 N 
ATOM      3  N   UNL     1      33.987 -13.617 -23.949  0.00  0.00    -0.223 NA
ATOM      4  N   UNL     1      34.109 -16.039 -21.284  0.00  0.00    -0.125 NA
ATOM      5  N   UNL     1      35.444 -17.282 -22.665  0.00  0.00    -0.198 NA
ATOM      6  C   UNL     1      31.649 -11.912 -20.959  0.00  0.00    +0.062 C 
ATOM      7  C   UNL     1      32.381 -12.273 -22.105  0.00  0.00    +0.056 C 
ATOM      8  C   UNL     1      32.949 -13.518 -21.825  0.00  0.00    +0.085 C 
ATOM      9  C   UNL     1      31.764 -12.891 -20.020  0.00  0.00    +0.065 C 
ATOM     10  C   UNL     1      32.629 -11.687 -23.354  0.00  0.00    +0.159 C 
ATOM     11  C   UNL     1      33.749 -14.186 -22.743  0.00  0.00    +0.167 C 
ATOM     12  C   UNL     1      33.436 -12.411 -24.221  0.00  0.00    +0.137 C 
ATOM     13  C   UNL     1      35.105 -16.170 -23.274  0.00  0.00    +0.253 C 
ATOM     14  C   UNL     1      34.815 -17.158 -21.459  0.00  0.00    +0.027 C 
ATOM     15  C   UNL     1      34.909 -18.190 -20.419  0.00  0.00    +0.116 C 
ATOM     16  H   UNL     1      32.815 -14.702 -20.096  0.00  0.00    +0.152 HD
ENDROOT
BRANCH   6  18
ATOM     17  O   UNL     1      29.811 -10.454 -21.324  0.00  0.00    -0.282 OA
ATOM     18  C   UNL     1      30.870 -10.693 -20.748  0.00  0.00    +0.250 C 
BRANCH  18  27
ATOM     19  O   UNL     1      31.362  -9.953 -18.634  0.00  0.00    -0.266 OA
ATOM     20  O   UNL     1      32.100  -3.551 -21.021  0.00  0.00    -0.270 OA
ATOM     21  N   UNL     1      31.620  -8.406 -20.383  0.00  0.00    -0.270 N 
ATOM     22  N   UNL     1      31.330  -5.743 -21.280  0.00  0.00    -0.273 N 
ATOM     23  C   UNL     1      32.070  -7.302 -19.533  0.00  0.00    +0.115 C 
ATOM     24  C   UNL     1      31.617  -8.126 -21.826  0.00  0.00    +0.115 C 
ATOM     25  C   UNL     1      31.297  -6.023 -19.844  0.00  0.00    +0.115 C 
ATOM     26  C   UNL     1      30.844  -6.844 -22.124  0.00  0.00    +0.115 C 
ATOM     27  C   UNL     1      31.313  -9.632 -19.814  0.00  0.00    +0.288 C 
ATOM     28  C   UNL     1      31.744  -4.489 -21.733  0.00  0.00    +0.249 C 
BRANCH  28  29
ATOM     29  C   UNL     1      31.775  -4.252 -23.181  0.00  0.00    +0.054 C 
ATOM     30  C   UNL     1      32.828  -4.754 -23.943  0.00  0.00    +0.005 C 
ATOM     31  C   UNL     1      30.753  -3.526 -23.787  0.00  0.00    +0.005 C 
ATOM     32  C   UNL     1      32.857  -4.529 -25.319  0.00  0.00    +0.000 C 
ATOM     33  C   UNL     1      30.782  -3.301 -25.163  0.00  0.00    +0.000 C 
ATOM     34  C   UNL     1      31.836  -3.803 -25.929  0.00  0.00    +0.000 C 
ENDBRANCH  28  29
ENDBRANCH  18  27
ENDBRANCH   6  18
BRANCH  10  35
ATOM     35  O   UNL     1      32.120 -10.475 -23.717  0.00  0.00    -0.470 OA
ATOM     36  C   UNL     1      33.034  -9.382 -23.774  0.00  0.00    +0.253 C 
ENDBRANCH  10  35
TORSDOF 4
ENDMDL
