MODEL 1
REMARK VINA RESULT:     -11.3      0.000      0.000
REMARK  Name = 1613
REMARK  6 active torsions:
REMARK  status: ('A' for Active; 'I' for Inactive)
REMARK    1  A    between atoms: N_2  and  C_12
REMARK    2  A    between atoms: C_6  and  C_26
REMARK    3  A    between atoms: C_12  and  C_15
REMARK    4  A    between atoms: C_19  and  C_25
REMARK    5  A    between atoms: C_26  and  C_28
REMARK    6  A    between atoms: C_28  and  O_29
REMARK                            x       y       z     vdW  Elec       q    Type
REMARK                         _______ _______ _______ _____ _____    ______ ____
ROOT
ATOM      1  O   UNL     1      31.911 -21.494 -19.719  0.00  0.00    -0.266 OA
ATOM      2  N   UNL     1      33.513 -22.078 -18.145  0.00  0.00    -0.209 N 
ATOM      3  N   UNL     1      34.775 -21.952 -17.645  0.00  0.00    -0.170 NA
ATOM      4  C   UNL     1      35.286 -20.350 -19.410  0.00  0.00    +0.020 A 
ATOM      5  C   UNL     1      33.998 -20.477 -19.920  0.00  0.00    +0.059 A 
ATOM      6  C   UNL     1      35.615 -21.153 -18.219  0.00  0.00    +0.090 A 
ATOM      7  C   UNL     1      33.047 -21.388 -19.260  0.00  0.00    +0.277 A 
ATOM      8  C   UNL     1      36.200 -19.490 -20.024  0.00  0.00    +0.001 C 
ATOM      9  C   UNL     1      33.614 -19.743 -21.049  0.00  0.00    +0.005 C 
ATOM     10  C   UNL     1      35.818 -18.759 -21.150  0.00  0.00    +0.000 C 
ATOM     11  C   UNL     1      34.528 -18.885 -21.661  0.00  0.00    +0.000 C 
ENDROOT
BRANCH   2  12
ATOM     12  C   UNL     1      32.662 -23.005 -17.417  0.00  0.00    +0.196 C 
BRANCH  12  15
ATOM     13  S   UNL     1      32.429 -22.914 -14.675  0.00  0.00    -0.074 S 
ATOM     14  N   UNL     1      34.446 -23.887 -15.954  0.00  0.00    -0.401 NA
ATOM     15  C   UNL     1      33.284 -23.319 -16.089  0.00  0.00    +0.159 C 
ATOM     16  C   UNL     1      34.721 -24.033 -14.602  0.00  0.00    +0.123 C 
ATOM     17  C   UNL     1      33.728 -23.557 -13.740  0.00  0.00    +0.128 C 
ATOM     18  C   UNL     1      35.884 -24.606 -14.044  0.00  0.00    +0.033 C 
ATOM     19  C   UNL     1      36.021 -24.686 -12.656  0.00  0.00    +0.073 C 
ATOM     20  C   UNL     1      33.858 -23.633 -12.344  0.00  0.00    -0.008 C 
ATOM     21  C   UNL     1      35.020 -24.205 -11.818  0.00  0.00    +0.001 C 
BRANCH  19  25
ATOM     22  F   UNL     1      37.008 -26.404 -11.316  0.00  0.00    -0.166 F 
ATOM     23  F   UNL     1      38.164 -25.689 -13.006  0.00  0.00    -0.166 F 
ATOM     24  F   UNL     1      37.920 -24.431 -11.249  0.00  0.00    -0.166 F 
ATOM     25  C   UNL     1      37.252 -25.292 -12.070  0.00  0.00    +0.419 C 
ENDBRANCH  19  25
ENDBRANCH  12  15
ENDBRANCH   2  12
BRANCH   6  26
ATOM     26  C   UNL     1      37.000 -21.052 -17.624  0.00  0.00    +0.157 C 
BRANCH  26  28
ATOM     27  O   UNL     1      37.916 -22.439 -15.853  0.00  0.00    -0.250 OA
ATOM     28  C   UNL     1      37.085 -21.639 -16.253  0.00  0.00    +0.320 C 
BRANCH  28  29
ATOM     29  O   UNL     1      36.078 -21.146 -15.487  0.00  0.00    -0.480 OA
ATOM     30  H   UNL     1      35.311 -20.793 -15.892  0.00  0.00    +0.295 HD
ENDBRANCH  28  29
ENDBRANCH  26  28
ENDBRANCH   6  26
TORSDOF 6
ENDMDL
MODEL 2
REMARK VINA RESULT:     -11.1      1.608      2.275
REMARK  Name = 1613
REMARK  6 active torsions:
REMARK  status: ('A' for Active; 'I' for Inactive)
REMARK    1  A    between atoms: N_2  and  C_12
REMARK    2  A    between atoms: C_6  and  C_26
REMARK    3  A    between atoms: C_12  and  C_15
REMARK    4  A    between atoms: C_19  and  C_25
REMARK    5  A    between atoms: C_26  and  C_28
REMARK    6  A    between atoms: C_28  and  O_29
REMARK                            x       y       z     vdW  Elec       q    Type
REMARK                         _______ _______ _______ _____ _____    ______ ____
ROOT
ATOM      1  O   UNL     1      31.089 -22.250 -17.543  0.00  0.00    -0.266 OA
ATOM      2  N   UNL     1      33.254 -22.545 -16.761  0.00  0.00    -0.209 N 
ATOM      3  N   UNL     1      34.593 -22.316 -16.883  0.00  0.00    -0.170 NA
ATOM      4  C   UNL     1      34.159 -21.004 -18.891  0.00  0.00    +0.020 A 
ATOM      5  C   UNL     1      32.793 -21.236 -18.767  0.00  0.00    +0.059 A 
ATOM      6  C   UNL     1      35.034 -21.601 -17.867  0.00  0.00    +0.090 A 
ATOM      7  C   UNL     1      32.298 -22.050 -17.643  0.00  0.00    +0.277 A 
ATOM      8  C   UNL     1      34.645 -20.234 -19.951  0.00  0.00    +0.001 C 
ATOM      9  C   UNL     1      31.901 -20.698 -19.702  0.00  0.00    +0.005 C 
ATOM     10  C   UNL     1      33.756 -19.698 -20.885  0.00  0.00    +0.000 C 
ATOM     11  C   UNL     1      32.387 -19.930 -20.760  0.00  0.00    +0.000 C 
ENDROOT
BRANCH   2  12
ATOM     12  C   UNL     1      32.881 -23.362 -15.618  0.00  0.00    +0.196 C 
BRANCH  12  15
ATOM     13  S   UNL     1      34.016 -24.016 -13.197  0.00  0.00    -0.074 S 
ATOM     14  N   UNL     1      35.264 -23.989 -15.454  0.00  0.00    -0.401 NA
ATOM     15  C   UNL     1      34.114 -23.785 -14.880  0.00  0.00    +0.159 C 
ATOM     16  C   UNL     1      36.186 -24.369 -14.490  0.00  0.00    +0.123 C 
ATOM     17  C   UNL     1      35.686 -24.441 -13.186  0.00  0.00    +0.128 C 
ATOM     18  C   UNL     1      37.545 -24.679 -14.713  0.00  0.00    +0.033 C 
ATOM     19  C   UNL     1      38.358 -25.049 -13.638  0.00  0.00    +0.073 C 
ATOM     20  C   UNL     1      36.497 -24.811 -12.101  0.00  0.00    -0.008 C 
ATOM     21  C   UNL     1      37.838 -25.113 -12.349  0.00  0.00    +0.001 C 
BRANCH  19  25
ATOM     22  F   UNL     1      40.040 -25.880 -15.121  0.00  0.00    -0.166 F 
ATOM     23  F   UNL     1      40.626 -24.300 -13.757  0.00  0.00    -0.166 F 
ATOM     24  F   UNL     1      40.271 -26.308 -13.002  0.00  0.00    -0.166 F 
ATOM     25  C   UNL     1      39.794 -25.376 -13.876  0.00  0.00    +0.419 C 
ENDBRANCH  19  25
ENDBRANCH  12  15
ENDBRANCH   2  12
BRANCH   6  26
ATOM     26  C   UNL     1      36.525 -21.380 -17.954  0.00  0.00    +0.157 C 
BRANCH  26  28
ATOM     27  O   UNL     1      37.355 -21.279 -15.674  0.00  0.00    -0.250 OA
ATOM     28  C   UNL     1      37.087 -20.731 -16.732  0.00  0.00    +0.320 C 
BRANCH  28  29
ATOM     29  O   UNL     1      37.263 -19.405 -16.963  0.00  0.00    -0.480 OA
ATOM     30  H   UNL     1      38.092 -19.087 -17.262  0.00  0.00    +0.295 HD
ENDBRANCH  28  29
ENDBRANCH  26  28
ENDBRANCH   6  26
TORSDOF 6
ENDMDL
MODEL 3
REMARK VINA RESULT:     -10.7      4.114      7.502
REMARK  Name = 1613
REMARK  6 active torsions:
REMARK  status: ('A' for Active; 'I' for Inactive)
REMARK    1  A    between atoms: N_2  and  C_12
REMARK    2  A    between atoms: C_6  and  C_26
REMARK    3  A    between atoms: C_12  and  C_15
REMARK    4  A    between atoms: C_19  and  C_25
REMARK    5  A    between atoms: C_26  and  C_28
REMARK    6  A    between atoms: C_28  and  O_29
REMARK                            x       y       z     vdW  Elec       q    Type
REMARK                         _______ _______ _______ _____ _____    ______ ____
ROOT
ATOM      1  O   UNL     1      35.263 -25.797 -16.038  0.00  0.00    -0.266 OA
ATOM      2  N   UNL     1      34.466 -24.362 -14.398  0.00  0.00    -0.209 N 
ATOM      3  N   UNL     1      34.678 -23.626 -13.270  0.00  0.00    -0.170 NA
ATOM      4  C   UNL     1      36.996 -24.381 -13.248  0.00  0.00    +0.020 A 
ATOM      5  C   UNL     1      36.780 -25.131 -14.399  0.00  0.00    +0.059 A 
ATOM      6  C   UNL     1      35.850 -23.622 -12.720  0.00  0.00    +0.090 A 
ATOM      7  C   UNL     1      35.444 -25.130 -15.021  0.00  0.00    +0.277 A 
ATOM      8  C   UNL     1      38.258 -24.371 -12.646  0.00  0.00    +0.001 C 
ATOM      9  C   UNL     1      37.824 -25.877 -14.958  0.00  0.00    +0.005 C 
ATOM     10  C   UNL     1      39.299 -25.116 -13.203  0.00  0.00    +0.000 C 
ATOM     11  C   UNL     1      39.082 -25.867 -14.356  0.00  0.00    +0.000 C 
ENDROOT
BRANCH   2  12
ATOM     12  C   UNL     1      33.112 -24.288 -14.922  0.00  0.00    +0.196 C 
BRANCH  12  15
ATOM     13  S   UNL     1      31.563 -22.807 -16.650  0.00  0.00    -0.074 S 
ATOM     14  N   UNL     1      34.140 -22.913 -16.698  0.00  0.00    -0.401 NA
ATOM     15  C   UNL     1      33.075 -23.346 -16.087  0.00  0.00    +0.159 C 
ATOM     16  C   UNL     1      33.755 -22.063 -17.724  0.00  0.00    +0.123 C 
ATOM     17  C   UNL     1      32.374 -21.879 -17.856  0.00  0.00    +0.128 C 
ATOM     18  C   UNL     1      34.616 -21.390 -18.617  0.00  0.00    +0.033 C 
ATOM     19  C   UNL     1      34.080 -20.561 -19.606  0.00  0.00    +0.073 C 
ATOM     20  C   UNL     1      31.829 -21.047 -18.847  0.00  0.00    -0.008 C 
ATOM     21  C   UNL     1      32.704 -20.393 -19.718  0.00  0.00    +0.001 C 
BRANCH  19  25
ATOM     22  F   UNL     1      34.774 -20.159 -21.860  0.00  0.00    -0.166 F 
ATOM     23  F   UNL     1      34.897 -18.490 -20.481  0.00  0.00    -0.166 F 
ATOM     24  F   UNL     1      36.308 -20.137 -20.319  0.00  0.00    -0.166 F 
ATOM     25  C   UNL     1      34.994 -19.851 -20.548  0.00  0.00    +0.419 C 
ENDBRANCH  19  25
ENDBRANCH  12  15
ENDBRANCH   2  12
BRANCH   6  26
ATOM     26  C   UNL     1      36.031 -22.790 -11.472  0.00  0.00    +0.157 C 
BRANCH  26  28
ATOM     27  O   UNL     1      36.113 -23.344  -9.108  0.00  0.00    -0.250 OA
ATOM     28  C   UNL     1      35.659 -23.527 -10.227  0.00  0.00    +0.320 C 
BRANCH  28  29
ATOM     29  O   UNL     1      34.716 -24.460 -10.517  0.00  0.00    -0.480 OA
ATOM     30  H   UNL     1      34.762 -25.310 -10.124  0.00  0.00    +0.295 HD
ENDBRANCH  28  29
ENDBRANCH  26  28
ENDBRANCH   6  26
TORSDOF 6
ENDMDL
MODEL 4
REMARK VINA RESULT:     -10.5      4.135      7.531
REMARK  Name = 1613
REMARK  6 active torsions:
REMARK  status: ('A' for Active; 'I' for Inactive)
REMARK    1  A    between atoms: N_2  and  C_12
REMARK    2  A    between atoms: C_6  and  C_26
REMARK    3  A    between atoms: C_12  and  C_15
REMARK    4  A    between atoms: C_19  and  C_25
REMARK    5  A    between atoms: C_26  and  C_28
REMARK    6  A    between atoms: C_28  and  O_29
REMARK                            x       y       z     vdW  Elec       q    Type
REMARK                         _______ _______ _______ _____ _____    ______ ____
ROOT
ATOM      1  O   UNL     1      32.781 -23.743 -13.577  0.00  0.00    -0.266 OA
ATOM      2  N   UNL     1      34.328 -23.686 -15.306  0.00  0.00    -0.209 N 
ATOM      3  N   UNL     1      35.613 -23.531 -15.733  0.00  0.00    -0.170 NA
ATOM      4  C   UNL     1      36.308 -23.172 -13.424  0.00  0.00    +0.020 A 
ATOM      5  C   UNL     1      34.998 -23.331 -12.987  0.00  0.00    +0.059 A 
ATOM      6  C   UNL     1      36.550 -23.291 -14.872  0.00  0.00    +0.090 A 
ATOM      7  C   UNL     1      33.937 -23.605 -13.973  0.00  0.00    +0.277 A 
ATOM      8  C   UNL     1      37.327 -22.912 -12.502  0.00  0.00    +0.001 C 
ATOM      9  C   UNL     1      34.694 -23.232 -11.625  0.00  0.00    +0.005 C 
ATOM     10  C   UNL     1      37.024 -22.813 -11.143  0.00  0.00    +0.000 C 
ATOM     11  C   UNL     1      35.711 -22.972 -10.706  0.00  0.00    +0.000 C 
ENDROOT
BRANCH   2  12
ATOM     12  C   UNL     1      33.366 -23.949 -16.363  0.00  0.00    +0.196 C 
BRANCH  12  15
ATOM     13  S   UNL     1      31.969 -22.166 -17.927  0.00  0.00    -0.074 S 
ATOM     14  N   UNL     1      34.538 -22.389 -17.877  0.00  0.00    -0.401 NA
ATOM     15  C   UNL     1      33.427 -22.852 -17.382  0.00  0.00    +0.159 C 
ATOM     16  C   UNL     1      34.240 -21.384 -18.787  0.00  0.00    +0.123 C 
ATOM     17  C   UNL     1      32.877 -21.117 -18.951  0.00  0.00    +0.128 C 
ATOM     18  C   UNL     1      35.173 -20.635 -19.536  0.00  0.00    +0.033 C 
ATOM     19  C   UNL     1      34.722 -19.650 -20.418  0.00  0.00    +0.073 C 
ATOM     20  C   UNL     1      32.417 -20.129 -19.836  0.00  0.00    -0.008 C 
ATOM     21  C   UNL     1      33.361 -19.402 -20.565  0.00  0.00    +0.001 C 
BRANCH  19  25
ATOM     22  F   UNL     1      37.009 -19.178 -20.936  0.00  0.00    -0.166 F 
ATOM     23  F   UNL     1      35.579 -19.015 -22.559  0.00  0.00    -0.166 F 
ATOM     24  F   UNL     1      35.607 -17.517 -20.983  0.00  0.00    -0.166 F 
ATOM     25  C   UNL     1      35.710 -18.858 -21.208  0.00  0.00    +0.419 C 
ENDBRANCH  19  25
ENDBRANCH  12  15
ENDBRANCH   2  12
BRANCH   6  26
ATOM     26  C   UNL     1      37.956 -23.127 -15.400  0.00  0.00    +0.157 C 
BRANCH  26  28
ATOM     27  O   UNL     1      39.978 -24.162 -14.538  0.00  0.00    -0.250 OA
ATOM     28  C   UNL     1      38.855 -24.255 -15.011  0.00  0.00    +0.320 C 
BRANCH  28  29
ATOM     29  O   UNL     1      38.236 -25.436 -15.264  0.00  0.00    -0.480 OA
ATOM     30  H   UNL     1      37.868 -25.601 -16.110  0.00  0.00    +0.295 HD
ENDBRANCH  28  29
ENDBRANCH  26  28
ENDBRANCH   6  26
TORSDOF 6
ENDMDL
MODEL 5
REMARK VINA RESULT:     -10.3      6.031      8.523
REMARK  Name = 1613
REMARK  6 active torsions:
REMARK  status: ('A' for Active; 'I' for Inactive)
REMARK    1  A    between atoms: N_2  and  C_12
REMARK    2  A    between atoms: C_6  and  C_26
REMARK    3  A    between atoms: C_12  and  C_15
REMARK    4  A    between atoms: C_19  and  C_25
REMARK    5  A    between atoms: C_26  and  C_28
REMARK    6  A    between atoms: C_28  and  O_29
REMARK                            x       y       z     vdW  Elec       q    Type
REMARK                         _______ _______ _______ _____ _____    ______ ____
ROOT
ATOM      1  O   UNL     1      33.376 -15.230 -25.864  0.00  0.00    -0.266 OA
ATOM      2  N   UNL     1      33.779 -15.992 -23.709  0.00  0.00    -0.209 N 
ATOM      3  N   UNL     1      33.857 -15.752 -22.369  0.00  0.00    -0.170 NA
ATOM      4  C   UNL     1      33.257 -13.425 -22.778  0.00  0.00    +0.020 A 
ATOM      5  C   UNL     1      33.176 -13.668 -24.145  0.00  0.00    +0.059 A 
ATOM      6  C   UNL     1      33.617 -14.564 -21.916  0.00  0.00    +0.090 A 
ATOM      7  C   UNL     1      33.449 -15.025 -24.654  0.00  0.00    +0.277 A 
ATOM      8  C   UNL     1      33.002 -12.144 -22.279  0.00  0.00    +0.001 C 
ATOM      9  C   UNL     1      32.838 -12.634 -25.024  0.00  0.00    +0.005 C 
ATOM     10  C   UNL     1      32.665 -11.112 -23.156  0.00  0.00    +0.000 C 
ATOM     11  C   UNL     1      32.584 -11.356 -24.525  0.00  0.00    +0.000 C 
ENDROOT
BRANCH   2  12
ATOM     12  C   UNL     1      34.069 -17.362 -24.097  0.00  0.00    +0.196 C 
BRANCH  12  15
ATOM     13  S   UNL     1      35.880 -18.147 -22.178  0.00  0.00    -0.074 S 
ATOM     14  N   UNL     1      33.428 -18.935 -22.305  0.00  0.00    -0.401 NA
ATOM     15  C   UNL     1      34.328 -18.186 -22.872  0.00  0.00    +0.159 C 
ATOM     16  C   UNL     1      33.993 -19.558 -21.201  0.00  0.00    +0.123 C 
ATOM     17  C   UNL     1      35.337 -19.248 -20.967  0.00  0.00    +0.128 C 
ATOM     18  C   UNL     1      33.341 -20.450 -20.322  0.00  0.00    +0.033 C 
ATOM     19  C   UNL     1      34.043 -21.001 -19.247  0.00  0.00    +0.073 C 
ATOM     20  C   UNL     1      36.048 -19.798 -19.889  0.00  0.00    -0.008 C 
ATOM     21  C   UNL     1      35.379 -20.678 -19.035  0.00  0.00    +0.001 C 
BRANCH  19  25
ATOM     22  F   UNL     1      32.079 -21.563 -18.001  0.00  0.00    -0.166 F 
ATOM     23  F   UNL     1      33.229 -23.209 -18.819  0.00  0.00    -0.166 F 
ATOM     24  F   UNL     1      34.002 -22.081 -17.130  0.00  0.00    -0.166 F 
ATOM     25  C   UNL     1      33.351 -21.944 -18.320  0.00  0.00    +0.419 C 
ENDBRANCH  19  25
ENDBRANCH  12  15
ENDBRANCH   2  12
BRANCH   6  26
ATOM     26  C   UNL     1      33.719 -14.354 -20.423  0.00  0.00    +0.157 C 
BRANCH  26  28
ATOM     27  O   UNL     1      31.551 -14.786 -19.417  0.00  0.00    -0.250 OA
ATOM     28  C   UNL     1      32.408 -14.004 -19.798  0.00  0.00    +0.320 C 
BRANCH  28  29
ATOM     29  O   UNL     1      32.295 -12.654 -19.708  0.00  0.00    -0.480 OA
ATOM     30  H   UNL     1      31.617 -12.209 -20.176  0.00  0.00    +0.295 HD
ENDBRANCH  28  29
ENDBRANCH  26  28
ENDBRANCH   6  26
TORSDOF 6
ENDMDL
MODEL 6
REMARK VINA RESULT:     -10.1     12.096     15.551
REMARK  Name = 1613
REMARK  6 active torsions:
REMARK  status: ('A' for Active; 'I' for Inactive)
REMARK    1  A    between atoms: N_2  and  C_12
REMARK    2  A    between atoms: C_6  and  C_26
REMARK    3  A    between atoms: C_12  and  C_15
REMARK    4  A    between atoms: C_19  and  C_25
REMARK    5  A    between atoms: C_26  and  C_28
REMARK    6  A    between atoms: C_28  and  O_29
REMARK                            x       y       z     vdW  Elec       q    Type
REMARK                         _______ _______ _______ _____ _____    ______ ____
ROOT
ATOM      1  O   UNL     1      31.844 -13.269 -19.544  0.00  0.00    -0.266 OA
ATOM      2  N   UNL     1      31.808 -12.115 -21.557  0.00  0.00    -0.209 N 
ATOM      3  N   UNL     1      32.220 -11.987 -22.850  0.00  0.00    -0.170 NA
ATOM      4  C   UNL     1      33.557 -14.010 -22.595  0.00  0.00    +0.020 A 
ATOM      5  C   UNL     1      33.137 -14.141 -21.276  0.00  0.00    +0.059 A 
ATOM      6  C   UNL     1      33.034 -12.860 -23.352  0.00  0.00    +0.090 A 
ATOM      7  C   UNL     1      32.209 -13.145 -20.711  0.00  0.00    +0.277 A 
ATOM      8  C   UNL     1      34.437 -14.946 -23.146  0.00  0.00    +0.001 C 
ATOM      9  C   UNL     1      33.592 -15.210 -20.496  0.00  0.00    +0.005 C 
ATOM     10  C   UNL     1      34.892 -16.012 -22.368  0.00  0.00    +0.000 C 
ATOM     11  C   UNL     1      34.471 -16.144 -21.047  0.00  0.00    +0.000 C 
ENDROOT
BRANCH   2  12
ATOM     12  C   UNL     1      30.897 -11.076 -21.106  0.00  0.00    +0.196 C 
BRANCH  12  15
ATOM     13  S   UNL     1      31.400  -8.471 -20.373  0.00  0.00    -0.074 S 
ATOM     14  N   UNL     1      31.909  -9.476 -22.693  0.00  0.00    -0.401 NA
ATOM     15  C   UNL     1      31.426  -9.734 -21.512  0.00  0.00    +0.159 C 
ATOM     16  C   UNL     1      32.309  -8.148 -22.735  0.00  0.00    +0.123 C 
ATOM     17  C   UNL     1      32.109  -7.431 -21.551  0.00  0.00    +0.128 C 
ATOM     18  C   UNL     1      32.884  -7.485 -23.841  0.00  0.00    +0.033 C 
ATOM     19  C   UNL     1      33.239  -6.138 -23.734  0.00  0.00    +0.073 C 
ATOM     20  C   UNL     1      32.463  -6.077 -21.437  0.00  0.00    -0.008 C 
ATOM     21  C   UNL     1      33.030  -5.445 -22.546  0.00  0.00    +0.001 C 
BRANCH  19  25
ATOM     22  F   UNL     1      34.622  -6.251 -25.682  0.00  0.00    -0.166 F 
ATOM     23  F   UNL     1      32.925  -4.904 -25.758  0.00  0.00    -0.166 F 
ATOM     24  F   UNL     1      34.652  -4.403 -24.536  0.00  0.00    -0.166 F 
ATOM     25  C   UNL     1      33.846  -5.440 -24.905  0.00  0.00    +0.419 C 
ENDBRANCH  19  25
ENDBRANCH  12  15
ENDBRANCH   2  12
BRANCH   6  26
ATOM     26  C   UNL     1      33.459 -12.670 -24.789  0.00  0.00    +0.157 C 
BRANCH  26  28
ATOM     27  O   UNL     1      33.050 -14.745 -25.985  0.00  0.00    -0.250 OA
ATOM     28  C   UNL     1      32.748 -13.589 -25.729  0.00  0.00    +0.320 C 
BRANCH  28  29
ATOM     29  O   UNL     1      31.688 -12.944 -26.279  0.00  0.00    -0.480 OA
ATOM     30  H   UNL     1      31.057 -13.422 -26.779  0.00  0.00    +0.295 HD
ENDBRANCH  28  29
ENDBRANCH  26  28
ENDBRANCH   6  26
TORSDOF 6
ENDMDL
MODEL 7
REMARK VINA RESULT:     -10.1      4.992      8.084
REMARK  Name = 1613
REMARK  6 active torsions:
REMARK  status: ('A' for Active; 'I' for Inactive)
REMARK    1  A    between atoms: N_2  and  C_12
REMARK    2  A    between atoms: C_6  and  C_26
REMARK    3  A    between atoms: C_12  and  C_15
REMARK    4  A    between atoms: C_19  and  C_25
REMARK    5  A    between atoms: C_26  and  C_28
REMARK    6  A    between atoms: C_28  and  O_29
REMARK                            x       y       z     vdW  Elec       q    Type
REMARK                         _______ _______ _______ _____ _____    ______ ____
ROOT
ATOM      1  O   UNL     1      30.779 -22.355 -17.414  0.00  0.00    -0.266 OA
ATOM      2  N   UNL     1      33.036 -22.863 -17.608  0.00  0.00    -0.209 N 
ATOM      3  N   UNL     1      34.238 -23.131 -17.025  0.00  0.00    -0.170 NA
ATOM      4  C   UNL     1      33.199 -22.885 -14.834  0.00  0.00    +0.020 A 
ATOM      5  C   UNL     1      31.971 -22.612 -15.428  0.00  0.00    +0.059 A 
ATOM      6  C   UNL     1      34.335 -23.146 -15.734  0.00  0.00    +0.090 A 
ATOM      7  C   UNL     1      31.869 -22.598 -16.898  0.00  0.00    +0.277 A 
ATOM      8  C   UNL     1      33.314 -22.902 -13.441  0.00  0.00    +0.001 C 
ATOM      9  C   UNL     1      30.848 -22.356 -14.634  0.00  0.00    +0.005 C 
ATOM     10  C   UNL     1      32.193 -22.646 -12.648  0.00  0.00    +0.000 C 
ATOM     11  C   UNL     1      30.963 -22.373 -13.244  0.00  0.00    +0.000 C 
ENDROOT
BRANCH   2  12
ATOM     12  C   UNL     1      33.052 -22.873 -19.062  0.00  0.00    +0.196 C 
BRANCH  12  15
ATOM     13  S   UNL     1      35.427 -21.507 -19.335  0.00  0.00    -0.074 S 
ATOM     14  N   UNL     1      33.136 -20.667 -20.169  0.00  0.00    -0.401 NA
ATOM     15  C   UNL     1      33.747 -21.643 -19.564  0.00  0.00    +0.159 C 
ATOM     16  C   UNL     1      34.065 -19.691 -20.501  0.00  0.00    +0.123 C 
ATOM     17  C   UNL     1      35.382 -19.974 -20.124  0.00  0.00    +0.128 C 
ATOM     18  C   UNL     1      33.797 -18.476 -21.167  0.00  0.00    +0.033 C 
ATOM     19  C   UNL     1      34.842 -17.587 -21.435  0.00  0.00    +0.073 C 
ATOM     20  C   UNL     1      36.436 -19.086 -20.389  0.00  0.00    -0.008 C 
ATOM     21  C   UNL     1      36.144 -17.890 -21.050  0.00  0.00    +0.001 C 
BRANCH  19  25
ATOM     22  F   UNL     1      35.611 -15.831 -22.866  0.00  0.00    -0.166 F 
ATOM     23  F   UNL     1      33.521 -16.388 -23.028  0.00  0.00    -0.166 F 
ATOM     24  F   UNL     1      34.221 -15.298 -21.281  0.00  0.00    -0.166 F 
ATOM     25  C   UNL     1      34.555 -16.304 -22.140  0.00  0.00    +0.419 C 
ENDBRANCH  19  25
ENDBRANCH  12  15
ENDBRANCH   2  12
BRANCH   6  26
ATOM     26  C   UNL     1      35.691 -23.448 -15.140  0.00  0.00    +0.157 C 
BRANCH  26  28
ATOM     27  O   UNL     1      37.936 -22.620 -15.557  0.00  0.00    -0.250 OA
ATOM     28  C   UNL     1      36.728 -22.444 -15.526  0.00  0.00    +0.320 C 
BRANCH  28  29
ATOM     29  O   UNL     1      36.125 -21.270 -15.846  0.00  0.00    -0.480 OA
ATOM     30  H   UNL     1      35.196 -21.237 -15.960  0.00  0.00    +0.295 HD
ENDBRANCH  28  29
ENDBRANCH  26  28
ENDBRANCH   6  26
TORSDOF 6
ENDMDL
MODEL 8
REMARK VINA RESULT:     -10.0     13.354     16.953
REMARK  Name = 1613
REMARK  6 active torsions:
REMARK  status: ('A' for Active; 'I' for Inactive)
REMARK    1  A    between atoms: N_2  and  C_12
REMARK    2  A    between atoms: C_6  and  C_26
REMARK    3  A    between atoms: C_12  and  C_15
REMARK    4  A    between atoms: C_19  and  C_25
REMARK    5  A    between atoms: C_26  and  C_28
REMARK    6  A    between atoms: C_28  and  O_29
REMARK                            x       y       z     vdW  Elec       q    Type
REMARK                         _______ _______ _______ _____ _____    ______ ____
ROOT
ATOM      1  O   UNL     1      31.235 -11.398 -20.009  0.00  0.00    -0.266 OA
ATOM      2  N   UNL     1      31.522 -10.791 -22.231  0.00  0.00    -0.209 N 
ATOM      3  N   UNL     1      32.070 -11.028 -23.456  0.00  0.00    -0.170 NA
ATOM      4  C   UNL     1      33.150 -13.020 -22.558  0.00  0.00    +0.020 A 
ATOM      5  C   UNL     1      32.591 -12.780 -21.307  0.00  0.00    +0.059 A 
ATOM      6  C   UNL     1      32.831 -12.061 -23.629  0.00  0.00    +0.090 A 
ATOM      7  C   UNL     1      31.725 -11.603 -21.119  0.00  0.00    +0.277 A 
ATOM      8  C   UNL     1      33.974 -14.132 -22.754  0.00  0.00    +0.001 C 
ATOM      9  C   UNL     1      32.850 -13.651 -20.243  0.00  0.00    +0.005 C 
ATOM     10  C   UNL     1      34.233 -15.000 -21.692  0.00  0.00    +0.000 C 
ATOM     11  C   UNL     1      33.672 -14.760 -20.439  0.00  0.00    +0.000 C 
ENDROOT
BRANCH   2  12
ATOM     12  C   UNL     1      30.688  -9.603 -22.160  0.00  0.00    +0.196 C 
BRANCH  12  15
ATOM     13  S   UNL     1      32.645  -7.685 -21.895  0.00  0.00    -0.074 S 
ATOM     14  N   UNL     1      31.144  -7.986 -23.970  0.00  0.00    -0.401 NA
ATOM     15  C   UNL     1      31.409  -8.446 -22.782  0.00  0.00    +0.159 C 
ATOM     16  C   UNL     1      31.990  -6.919 -24.239  0.00  0.00    +0.123 C 
ATOM     17  C   UNL     1      32.889  -6.603 -23.215  0.00  0.00    +0.128 C 
ATOM     18  C   UNL     1      32.016  -6.153 -25.424  0.00  0.00    +0.033 C 
ATOM     19  C   UNL     1      32.929  -5.103 -25.551  0.00  0.00    +0.073 C 
ATOM     20  C   UNL     1      33.809  -5.549 -23.336  0.00  0.00    -0.008 C 
ATOM     21  C   UNL     1      33.813  -4.807 -24.519  0.00  0.00    +0.001 C 
BRANCH  19  25
ATOM     22  F   UNL     1      32.933  -5.050 -27.943  0.00  0.00    -0.166 F 
ATOM     23  F   UNL     1      31.894  -3.441 -26.925  0.00  0.00    -0.166 F 
ATOM     24  F   UNL     1      34.067  -3.513 -26.903  0.00  0.00    -0.166 F 
ATOM     25  C   UNL     1      32.954  -4.295 -26.805  0.00  0.00    +0.419 C 
ENDBRANCH  19  25
ENDBRANCH  12  15
ENDBRANCH   2  12
BRANCH   6  26
ATOM     26  C   UNL     1      33.413 -12.275 -25.006  0.00  0.00    +0.157 C 
BRANCH  26  28
ATOM     27  O   UNL     1      33.134 -14.483 -25.981  0.00  0.00    -0.250 OA
ATOM     28  C   UNL     1      32.716 -13.355 -25.767  0.00  0.00    +0.320 C 
BRANCH  28  29
ATOM     29  O   UNL     1      31.515 -12.898 -26.206  0.00  0.00    -0.480 OA
ATOM     30  H   UNL     1      30.806 -12.790 -25.603  0.00  0.00    +0.295 HD
ENDBRANCH  28  29
ENDBRANCH  26  28
ENDBRANCH   6  26
TORSDOF 6
ENDMDL
MODEL 9
REMARK VINA RESULT:     -10.0      9.358     12.467
REMARK  Name = 1613
REMARK  6 active torsions:
REMARK  status: ('A' for Active; 'I' for Inactive)
REMARK    1  A    between atoms: N_2  and  C_12
REMARK    2  A    between atoms: C_6  and  C_26
REMARK    3  A    between atoms: C_12  and  C_15
REMARK    4  A    between atoms: C_19  and  C_25
REMARK    5  A    between atoms: C_26  and  C_28
REMARK    6  A    between atoms: C_28  and  O_29
REMARK                            x       y       z     vdW  Elec       q    Type
REMARK                         _______ _______ _______ _____ _____    ______ ____
ROOT
ATOM      1  O   UNL     1      32.816  -8.412 -23.808  0.00  0.00    -0.266 OA
ATOM      2  N   UNL     1      32.441 -10.619 -23.195  0.00  0.00    -0.209 N 
ATOM      3  N   UNL     1      32.033 -11.532 -22.269  0.00  0.00    -0.170 NA
ATOM      4  C   UNL     1      31.576  -9.710 -20.715  0.00  0.00    +0.020 A 
ATOM      5  C   UNL     1      31.990  -8.778 -21.660  0.00  0.00    +0.059 A 
ATOM      6  C   UNL     1      31.626 -11.129 -21.108  0.00  0.00    +0.090 A 
ATOM      7  C   UNL     1      32.451  -9.245 -22.980  0.00  0.00    +0.277 A 
ATOM      8  C   UNL     1      31.136  -9.285 -19.458  0.00  0.00    +0.001 C 
ATOM      9  C   UNL     1      31.968  -7.412 -21.356  0.00  0.00    +0.005 C 
ATOM     10  C   UNL     1      31.114  -7.923 -19.154  0.00  0.00    +0.000 C 
ATOM     11  C   UNL     1      31.529  -6.989 -20.101  0.00  0.00    +0.000 C 
ENDROOT
BRANCH   2  12
ATOM     12  C   UNL     1      32.876 -11.191 -24.459  0.00  0.00    +0.196 C 
BRANCH  12  15
ATOM     13  S   UNL     1      32.709 -13.740 -25.486  0.00  0.00    -0.074 S 
ATOM     14  N   UNL     1      33.791 -13.127 -23.227  0.00  0.00    -0.401 NA
ATOM     15  C   UNL     1      33.181 -12.647 -24.271  0.00  0.00    +0.159 C 
ATOM     16  C   UNL     1      33.915 -14.501 -23.371  0.00  0.00    +0.123 C 
ATOM     17  C   UNL     1      33.378 -15.025 -24.552  0.00  0.00    +0.128 C 
ATOM     18  C   UNL     1      34.519 -15.385 -22.451  0.00  0.00    +0.033 C 
ATOM     19  C   UNL     1      34.570 -16.752 -22.734  0.00  0.00    +0.073 C 
ATOM     20  C   UNL     1      33.426 -16.397 -24.843  0.00  0.00    -0.008 C 
ATOM     21  C   UNL     1      34.029 -17.250 -23.915  0.00  0.00    +0.001 C 
BRANCH  19  25
ATOM     22  F   UNL     1      34.592 -18.899 -21.679  0.00  0.00    -0.166 F 
ATOM     23  F   UNL     1      36.514 -17.966 -22.050  0.00  0.00    -0.166 F 
ATOM     24  F   UNL     1      35.215 -17.189 -20.489  0.00  0.00    -0.166 F 
ATOM     25  C   UNL     1      35.209 -17.684 -21.760  0.00  0.00    +0.419 C 
ENDBRANCH  19  25
ENDBRANCH  12  15
ENDBRANCH   2  12
BRANCH   6  26
ATOM     26  C   UNL     1      31.187 -12.183 -20.119  0.00  0.00    +0.157 C 
BRANCH  26  28
ATOM     27  O   UNL     1      31.805 -14.517 -19.852  0.00  0.00    -0.250 OA
ATOM     28  C   UNL     1      32.111 -13.356 -20.073  0.00  0.00    +0.320 C 
BRANCH  28  29
ATOM     29  O   UNL     1      33.381 -12.942 -20.318  0.00  0.00    -0.480 OA
ATOM     30  H   UNL     1      33.794 -13.153 -21.132  0.00  0.00    +0.295 HD
ENDBRANCH  28  29
ENDBRANCH  26  28
ENDBRANCH   6  26
TORSDOF 6
ENDMDL
