MODEL 1
REMARK VINA RESULT:     -12.6      0.000      0.000
REMARK  Name = 5288607
REMARK  4 active torsions:
REMARK  status: ('A' for Active; 'I' for Inactive)
REMARK    1  A    between atoms: N_2  and  C_19
REMARK    2  A    between atoms: C_3  and  C_6
REMARK    3  A    between atoms: C_5  and  C_16
REMARK    4  A    between atoms: C_19  and  C_21
REMARK                            x       y       z     vdW  Elec       q    Type
REMARK                         _______ _______ _______ _____ _____    ______ ____
ROOT
ATOM      1  O   UNL     1      32.820 -16.348 -25.430  0.00  0.00    -0.270 OA
ATOM      2  N   UNL     1      33.516 -14.253 -24.702  0.00  0.00    -0.270 N 
ATOM      3  C   UNL     1      33.425 -15.645 -24.619  0.00  0.00    +0.249 C 
ATOM      4  C   UNL     1      32.866 -13.559 -25.806  0.00  0.00    +0.116 C 
ENDROOT
BRANCH   3   6
ATOM      5  C   UNL     1      33.970 -17.608 -23.222  0.00  0.00    +0.006 C 
ATOM      6  C   UNL     1      34.092 -16.277 -23.441  0.00  0.00    +0.058 C 
BRANCH   5  16
ATOM      7  O   UNL     1      36.243 -21.889 -17.236  0.00  0.00    -0.275 OA
ATOM      8  N   UNL     1      36.294 -20.305 -18.898  0.00  0.00    -0.270 N 
ATOM      9  N   UNL     1      36.433 -18.717 -20.645  0.00  0.00    -0.229 NA
ATOM     10  C   UNL     1      33.588 -20.910 -19.488  0.00  0.00    +0.039 C 
ATOM     11  C   UNL     1      34.381 -19.955 -20.329  0.00  0.00    +0.010 C 
ATOM     12  C   UNL     1      34.493 -21.966 -18.872  0.00  0.00    +0.090 C 
ATOM     13  C   UNL     1      35.698 -19.647 -19.990  0.00  0.00    +0.130 C 
ATOM     14  C   UNL     1      33.803 -19.272 -21.400  0.00  0.00    +0.000 C 
ATOM     15  C   UNL     1      35.732 -21.376 -18.232  0.00  0.00    +0.227 C 
ATOM     16  C   UNL     1      34.544 -18.329 -22.101  0.00  0.00    +0.019 C 
ATOM     17  C   UNL     1      35.842 -18.088 -21.685  0.00  0.00    +0.100 C 
ATOM     18  H   UNL     1      37.171 -19.980 -18.588  0.00  0.00    +0.156 HD
ENDBRANCH   5  16
ENDBRANCH   3   6
BRANCH   2  19
ATOM     19  C   UNL     1      34.198 -13.396 -23.735  0.00  0.00    +0.122 C 
BRANCH  19  21
ATOM     20  N   UNL     1      32.149 -13.307 -20.715  0.00  0.00    -0.284 N 
ATOM     21  C   UNL     1      33.285 -13.100 -22.595  0.00  0.00    +0.014 C 
ATOM     22  C   UNL     1      32.528 -11.918 -22.419  0.00  0.00    +0.013 C 
ATOM     23  C   UNL     1      31.819 -12.071 -21.225  0.00  0.00    +0.051 C 
ATOM     24  C   UNL     1      33.038 -13.938 -21.542  0.00  0.00    +0.063 C 
ATOM     25  C   UNL     1      32.370 -10.725 -23.152  0.00  0.00    +0.001 C 
ATOM     26  C   UNL     1      30.958 -11.087 -20.726  0.00  0.00    +0.015 C 
ATOM     27  C   UNL     1      31.637 -13.870 -19.483  0.00  0.00    +0.117 C 
ATOM     28  C   UNL     1      31.512  -9.733 -22.667  0.00  0.00    +0.000 C 
ATOM     29  C   UNL     1      30.818  -9.913 -21.472  0.00  0.00    +0.001 C 
ENDBRANCH  19  21
ENDBRANCH   2  19
TORSDOF 4
ENDMDL
MODEL 2
REMARK VINA RESULT:     -12.5      1.248      1.875
REMARK  Name = 5288607
REMARK  4 active torsions:
REMARK  status: ('A' for Active; 'I' for Inactive)
REMARK    1  A    between atoms: N_2  and  C_19
REMARK    2  A    between atoms: C_3  and  C_6
REMARK    3  A    between atoms: C_5  and  C_16
REMARK    4  A    between atoms: C_19  and  C_21
REMARK                            x       y       z     vdW  Elec       q    Type
REMARK                         _______ _______ _______ _____ _____    ______ ____
ROOT
ATOM      1  O   UNL     1      33.072 -15.582 -25.353  0.00  0.00    -0.270 OA
ATOM      2  N   UNL     1      33.459 -13.590 -24.220  0.00  0.00    -0.270 N 
ATOM      3  C   UNL     1      33.465 -14.981 -24.353  0.00  0.00    +0.249 C 
ATOM      4  C   UNL     1      32.962 -12.769 -25.317  0.00  0.00    +0.116 C 
ENDROOT
BRANCH   3   6
ATOM      5  C   UNL     1      34.228 -17.073 -23.285  0.00  0.00    +0.006 C 
ATOM      6  C   UNL     1      33.961 -15.751 -23.172  0.00  0.00    +0.058 C 
BRANCH   5  16
ATOM      7  O   UNL     1      35.828 -21.998 -17.582  0.00  0.00    -0.275 OA
ATOM      8  N   UNL     1      36.103 -20.312 -19.116  0.00  0.00    -0.270 N 
ATOM      9  N   UNL     1      36.468 -18.623 -20.732  0.00  0.00    -0.229 NA
ATOM     10  C   UNL     1      33.371 -20.580 -19.826  0.00  0.00    +0.039 C 
ATOM     11  C   UNL     1      34.289 -19.656 -20.568  0.00  0.00    +0.010 C 
ATOM     12  C   UNL     1      34.139 -21.769 -19.268  0.00  0.00    +0.090 C 
ATOM     13  C   UNL     1      35.618 -19.515 -20.171  0.00  0.00    +0.130 C 
ATOM     14  C   UNL     1      33.823 -18.839 -21.600  0.00  0.00    +0.000 C 
ATOM     15  C   UNL     1      35.409 -21.362 -18.550  0.00  0.00    +0.227 C 
ATOM     16  C   UNL     1      34.683 -17.932 -22.206  0.00  0.00    +0.019 C 
ATOM     17  C   UNL     1      35.983 -17.861 -21.737  0.00  0.00    +0.100 C 
ATOM     18  H   UNL     1      36.996 -20.105 -18.758  0.00  0.00    +0.156 HD
ENDBRANCH   5  16
ENDBRANCH   3   6
BRANCH   2  19
ATOM     19  C   UNL     1      33.889 -12.857 -23.031  0.00  0.00    +0.122 C 
BRANCH  19  21
ATOM     20  N   UNL     1      31.161 -10.600 -22.138  0.00  0.00    -0.284 N 
ATOM     21  C   UNL     1      32.948 -11.732 -22.768  0.00  0.00    +0.014 C 
ATOM     22  C   UNL     1      33.182 -10.366 -23.055  0.00  0.00    +0.013 C 
ATOM     23  C   UNL     1      32.041  -9.671 -22.648  0.00  0.00    +0.051 C 
ATOM     24  C   UNL     1      31.705 -11.854 -22.209  0.00  0.00    +0.063 C 
ATOM     25  C   UNL     1      34.251  -9.642 -23.619  0.00  0.00    +0.001 C 
ATOM     26  C   UNL     1      31.915  -8.284 -22.778  0.00  0.00    +0.015 C 
ATOM     27  C   UNL     1      29.848 -10.308 -21.602  0.00  0.00    +0.117 C 
ATOM     28  C   UNL     1      34.139  -8.254 -23.756  0.00  0.00    +0.000 C 
ATOM     29  C   UNL     1      32.989  -7.587 -23.341  0.00  0.00    +0.001 C 
ENDBRANCH  19  21
ENDBRANCH   2  19
TORSDOF 4
ENDMDL
MODEL 3
REMARK VINA RESULT:     -11.9      5.224     11.589
REMARK  Name = 5288607
REMARK  4 active torsions:
REMARK  status: ('A' for Active; 'I' for Inactive)
REMARK    1  A    between atoms: N_2  and  C_19
REMARK    2  A    between atoms: C_3  and  C_6
REMARK    3  A    between atoms: C_5  and  C_16
REMARK    4  A    between atoms: C_19  and  C_21
REMARK                            x       y       z     vdW  Elec       q    Type
REMARK                         _______ _______ _______ _____ _____    ______ ____
ROOT
ATOM      1  O   UNL     1      30.471 -24.016 -16.046  0.00  0.00    -0.270 OA
ATOM      2  N   UNL     1      31.855 -23.638 -14.217  0.00  0.00    -0.270 N 
ATOM      3  C   UNL     1      31.411 -23.416 -15.524  0.00  0.00    +0.249 C 
ATOM      4  C   UNL     1      31.184 -24.636 -13.395  0.00  0.00    +0.116 C 
ENDROOT
BRANCH   3   6
ATOM      5  C   UNL     1      33.047 -22.792 -17.266  0.00  0.00    +0.006 C 
ATOM      6  C   UNL     1      32.171 -22.399 -16.311  0.00  0.00    +0.058 C 
BRANCH   5  16
ATOM      7  O   UNL     1      36.626 -17.880 -21.998  0.00  0.00    -0.275 OA
ATOM      8  N   UNL     1      36.309 -19.408 -20.314  0.00  0.00    -0.270 N 
ATOM      9  N   UNL     1      36.024 -20.916 -18.514  0.00  0.00    -0.229 NA
ATOM     10  C   UNL     1      33.612 -19.684 -21.141  0.00  0.00    +0.039 C 
ATOM     11  C   UNL     1      34.130 -20.366 -19.911  0.00  0.00    +0.010 C 
ATOM     12  C   UNL     1      34.362 -18.385 -21.395  0.00  0.00    +0.090 C 
ATOM     13  C   UNL     1      35.471 -20.244 -19.551  0.00  0.00    +0.130 C 
ATOM     14  C   UNL     1      33.323 -21.219 -19.155  0.00  0.00    +0.000 C 
ATOM     15  C   UNL     1      35.865 -18.548 -21.299  0.00  0.00    +0.227 C 
ATOM     16  C   UNL     1      33.863 -21.903 -18.073  0.00  0.00    +0.019 C 
ATOM     17  C   UNL     1      35.208 -21.721 -17.798  0.00  0.00    +0.100 C 
ATOM     18  H   UNL     1      37.276 -19.438 -20.132  0.00  0.00    +0.156 HD
ENDBRANCH   5  16
ENDBRANCH   3   6
BRANCH   2  19
ATOM     19  C   UNL     1      32.988 -22.962 -13.589  0.00  0.00    +0.122 C 
BRANCH  19  21
ATOM     20  N   UNL     1      35.621 -25.341 -14.447  0.00  0.00    -0.284 N 
ATOM     21  C   UNL     1      34.214 -23.795 -13.740  0.00  0.00    +0.014 C 
ATOM     22  C   UNL     1      35.418 -23.645 -13.012  0.00  0.00    +0.013 C 
ATOM     23  C   UNL     1      36.291 -24.632 -13.475  0.00  0.00    +0.051 C 
ATOM     24  C   UNL     1      34.359 -24.839 -14.612  0.00  0.00    +0.063 C 
ATOM     25  C   UNL     1      35.861 -22.768 -12.002  0.00  0.00    +0.001 C 
ATOM     26  C   UNL     1      37.590 -24.786 -12.977  0.00  0.00    +0.015 C 
ATOM     27  C   UNL     1      36.160 -26.459 -15.193  0.00  0.00    +0.117 C 
ATOM     28  C   UNL     1      37.157 -22.911 -11.493  0.00  0.00    +0.000 C 
ATOM     29  C   UNL     1      38.006 -23.905 -11.975  0.00  0.00    +0.001 C 
ENDBRANCH  19  21
ENDBRANCH   2  19
TORSDOF 4
ENDMDL
MODEL 4
REMARK VINA RESULT:     -11.9      1.513      2.281
REMARK  Name = 5288607
REMARK  4 active torsions:
REMARK  status: ('A' for Active; 'I' for Inactive)
REMARK    1  A    between atoms: N_2  and  C_19
REMARK    2  A    between atoms: C_3  and  C_6
REMARK    3  A    between atoms: C_5  and  C_16
REMARK    4  A    between atoms: C_19  and  C_21
REMARK                            x       y       z     vdW  Elec       q    Type
REMARK                         _______ _______ _______ _____ _____    ______ ____
ROOT
ATOM      1  O   UNL     1      33.346 -18.408 -24.446  0.00  0.00    -0.270 OA
ATOM      2  N   UNL     1      34.245 -16.384 -23.739  0.00  0.00    -0.270 N 
ATOM      3  C   UNL     1      33.958 -17.745 -23.607  0.00  0.00    +0.249 C 
ATOM      4  C   UNL     1      33.805 -15.674 -24.932  0.00  0.00    +0.116 C 
ENDROOT
BRANCH   3   6
ATOM      5  C   UNL     1      33.700 -19.405 -21.796  0.00  0.00    +0.006 C 
ATOM      6  C   UNL     1      34.416 -18.393 -22.341  0.00  0.00    +0.058 C 
BRANCH   5  16
ATOM      7  O   UNL     1      34.566 -23.294 -15.203  0.00  0.00    -0.275 OA
ATOM      8  N   UNL     1      35.082 -21.993 -17.023  0.00  0.00    -0.270 N 
ATOM      9  N   UNL     1      35.688 -20.717 -18.921  0.00  0.00    -0.229 NA
ATOM     10  C   UNL     1      32.344 -22.020 -17.756  0.00  0.00    +0.039 C 
ATOM     11  C   UNL     1      33.385 -21.392 -18.633  0.00  0.00    +0.010 C 
ATOM     12  C   UNL     1      32.935 -23.171 -16.955  0.00  0.00    +0.090 C 
ATOM     13  C   UNL     1      34.719 -21.359 -18.227  0.00  0.00    +0.130 C 
ATOM     14  C   UNL     1      33.044 -20.737 -19.817  0.00  0.00    +0.000 C 
ATOM     15  C   UNL     1      34.245 -22.808 -16.288  0.00  0.00    +0.227 C 
ATOM     16  C   UNL     1      34.025 -20.090 -20.558  0.00  0.00    +0.019 C 
ATOM     17  C   UNL     1      35.320 -20.107 -20.069  0.00  0.00    +0.100 C 
ATOM     18  H   UNL     1      35.994 -21.844 -16.683  0.00  0.00    +0.156 HD
ENDBRANCH   5  16
ENDBRANCH   3   6
BRANCH   2  19
ATOM     19  C   UNL     1      34.939 -15.571 -22.743  0.00  0.00    +0.122 C 
BRANCH  19  21
ATOM     20  N   UNL     1      32.537 -14.211 -20.353  0.00  0.00    -0.284 N 
ATOM     21  C   UNL     1      33.946 -14.795 -21.948  0.00  0.00    +0.014 C 
ATOM     22  C   UNL     1      33.408 -13.532 -22.291  0.00  0.00    +0.013 C 
ATOM     23  C   UNL     1      32.522 -13.184 -21.270  0.00  0.00    +0.051 C 
ATOM     24  C   UNL     1      33.399 -15.194 -20.759  0.00  0.00    +0.063 C 
ATOM     25  C   UNL     1      33.584 -12.641 -23.369  0.00  0.00    +0.001 C 
ATOM     26  C   UNL     1      31.800 -11.985 -21.272  0.00  0.00    +0.015 C 
ATOM     27  C   UNL     1      31.759 -14.260 -19.133  0.00  0.00    +0.117 C 
ATOM     28  C   UNL     1      32.868 -11.439 -23.385  0.00  0.00    +0.000 C 
ATOM     29  C   UNL     1      31.991 -11.118 -22.352  0.00  0.00    +0.001 C 
ENDBRANCH  19  21
ENDBRANCH   2  19
TORSDOF 4
ENDMDL
MODEL 5
REMARK VINA RESULT:     -11.8      0.995      2.031
REMARK  Name = 5288607
REMARK  4 active torsions:
REMARK  status: ('A' for Active; 'I' for Inactive)
REMARK    1  A    between atoms: N_2  and  C_19
REMARK    2  A    between atoms: C_3  and  C_6
REMARK    3  A    between atoms: C_5  and  C_16
REMARK    4  A    between atoms: C_19  and  C_21
REMARK                            x       y       z     vdW  Elec       q    Type
REMARK                         _______ _______ _______ _____ _____    ______ ____
ROOT
ATOM      1  O   UNL     1      32.725 -17.068 -25.249  0.00  0.00    -0.270 OA
ATOM      2  N   UNL     1      33.671 -15.008 -24.734  0.00  0.00    -0.270 N 
ATOM      3  C   UNL     1      33.435 -16.370 -24.525  0.00  0.00    +0.249 C 
ATOM      4  C   UNL     1      33.049 -14.342 -25.872  0.00  0.00    +0.116 C 
ENDROOT
BRANCH   3   6
ATOM      5  C   UNL     1      33.792 -18.240 -22.952  0.00  0.00    +0.006 C 
ATOM      6  C   UNL     1      34.083 -16.970 -23.320  0.00  0.00    +0.058 C 
BRANCH   5  16
ATOM      7  O   UNL     1      35.850 -22.234 -16.695  0.00  0.00    -0.275 OA
ATOM      8  N   UNL     1      35.990 -20.788 -18.473  0.00  0.00    -0.270 N 
ATOM      9  N   UNL     1      36.216 -19.351 -20.339  0.00  0.00    -0.229 NA
ATOM     10  C   UNL     1      33.232 -21.212 -18.971  0.00  0.00    +0.039 C 
ATOM     11  C   UNL     1      34.079 -20.391 -19.895  0.00  0.00    +0.010 C 
ATOM     12  C   UNL     1      34.063 -22.291 -18.292  0.00  0.00    +0.090 C 
ATOM     13  C   UNL     1      35.424 -20.167 -19.603  0.00  0.00    +0.130 C 
ATOM     14  C   UNL     1      33.533 -19.745 -21.005  0.00  0.00    +0.000 C 
ATOM     15  C   UNL     1      35.359 -21.757 -17.718  0.00  0.00    +0.227 C 
ATOM     16  C   UNL     1      34.331 -18.920 -21.788  0.00  0.00    +0.019 C 
ATOM     17  C   UNL     1      35.654 -18.755 -21.413  0.00  0.00    +0.100 C 
ATOM     18  H   UNL     1      36.896 -20.514 -18.204  0.00  0.00    +0.156 HD
ENDBRANCH   5  16
ENDBRANCH   3   6
BRANCH   2  19
ATOM     19  C   UNL     1      34.482 -14.153 -23.871  0.00  0.00    +0.122 C 
BRANCH  19  21
ATOM     20  N   UNL     1      32.540 -11.184 -23.011  0.00  0.00    -0.284 N 
ATOM     21  C   UNL     1      33.629 -13.084 -23.280  0.00  0.00    +0.014 C 
ATOM     22  C   UNL     1      32.977 -13.137 -22.025  0.00  0.00    +0.013 C 
ATOM     23  C   UNL     1      32.296 -11.927 -21.878  0.00  0.00    +0.051 C 
ATOM     24  C   UNL     1      33.350 -11.880 -23.866  0.00  0.00    +0.063 C 
ATOM     25  C   UNL     1      32.892 -14.092 -20.993  0.00  0.00    +0.001 C 
ATOM     26  C   UNL     1      31.531 -11.623 -20.746  0.00  0.00    +0.015 C 
ATOM     27  C   UNL     1      32.022  -9.857 -23.273  0.00  0.00    +0.117 C 
ATOM     28  C   UNL     1      32.132 -13.803 -19.855  0.00  0.00    +0.000 C 
ATOM     29  C   UNL     1      31.462 -12.587 -19.735  0.00  0.00    +0.001 C 
ENDBRANCH  19  21
ENDBRANCH   2  19
TORSDOF 4
ENDMDL
MODEL 6
REMARK VINA RESULT:     -11.5      1.881      3.313
REMARK  Name = 5288607
REMARK  4 active torsions:
REMARK  status: ('A' for Active; 'I' for Inactive)
REMARK    1  A    between atoms: N_2  and  C_19
REMARK    2  A    between atoms: C_3  and  C_6
REMARK    3  A    between atoms: C_5  and  C_16
REMARK    4  A    between atoms: C_19  and  C_21
REMARK                            x       y       z     vdW  Elec       q    Type
REMARK                         _______ _______ _______ _____ _____    ______ ____
ROOT
ATOM      1  O   UNL     1      33.922 -19.353 -23.891  0.00  0.00    -0.270 OA
ATOM      2  N   UNL     1      34.264 -17.135 -23.287  0.00  0.00    -0.270 N 
ATOM      3  C   UNL     1      34.262 -18.513 -23.057  0.00  0.00    +0.249 C 
ATOM      4  C   UNL     1      33.842 -16.627 -24.586  0.00  0.00    +0.116 C 
ENDROOT
BRANCH   3   6
ATOM      5  C   UNL     1      34.272 -20.148 -21.205  0.00  0.00    +0.006 C 
ATOM      6  C   UNL     1      34.678 -18.951 -21.691  0.00  0.00    +0.058 C 
BRANCH   5  16
ATOM      7  O   UNL     1      35.106 -23.262 -14.210  0.00  0.00    -0.275 OA
ATOM      8  N   UNL     1      35.597 -22.084 -16.118  0.00  0.00    -0.270 N 
ATOM      9  N   UNL     1      36.186 -20.928 -18.097  0.00  0.00    -0.229 NA
ATOM     10  C   UNL     1      32.941 -22.518 -17.009  0.00  0.00    +0.039 C 
ATOM     11  C   UNL     1      33.963 -21.852 -17.881  0.00  0.00    +0.010 C 
ATOM     12  C   UNL     1      33.603 -23.507 -16.061  0.00  0.00    +0.090 C 
ATOM     13  C   UNL     1      35.250 -21.616 -17.400  0.00  0.00    +0.130 C 
ATOM     14  C   UNL     1      33.634 -21.358 -19.144  0.00  0.00    +0.000 C 
ATOM     15  C   UNL     1      34.810 -22.924 -15.356  0.00  0.00    +0.227 C 
ATOM     16  C   UNL     1      34.584 -20.668 -19.886  0.00  0.00    +0.019 C 
ATOM     17  C   UNL     1      35.833 -20.478 -19.321  0.00  0.00    +0.100 C 
ATOM     18  H   UNL     1      36.458 -21.792 -15.741  0.00  0.00    +0.156 HD
ENDBRANCH   5  16
ENDBRANCH   3   6
BRANCH   2  19
ATOM     19  C   UNL     1      34.631 -16.119 -22.303  0.00  0.00    +0.122 C 
BRANCH  19  21
ATOM     20  N   UNL     1      33.239 -13.069 -23.749  0.00  0.00    -0.284 N 
ATOM     21  C   UNL     1      33.952 -14.834 -22.632  0.00  0.00    +0.014 C 
ATOM     22  C   UNL     1      33.185 -14.044 -21.743  0.00  0.00    +0.013 C 
ATOM     23  C   UNL     1      32.745 -12.937 -22.470  0.00  0.00    +0.051 C 
ATOM     24  C   UNL     1      33.974 -14.219 -23.854  0.00  0.00    +0.063 C 
ATOM     25  C   UNL     1      32.815 -14.157 -20.388  0.00  0.00    +0.001 C 
ATOM     26  C   UNL     1      31.950 -11.932 -21.909  0.00  0.00    +0.015 C 
ATOM     27  C   UNL     1      33.020 -12.136 -24.834  0.00  0.00    +0.117 C 
ATOM     28  C   UNL     1      32.021 -13.159 -19.812  0.00  0.00    +0.000 C 
ATOM     29  C   UNL     1      31.596 -12.065 -20.562  0.00  0.00    +0.001 C 
ENDBRANCH  19  21
ENDBRANCH   2  19
TORSDOF 4
ENDMDL
MODEL 7
REMARK VINA RESULT:     -11.3      3.627      9.896
REMARK  Name = 5288607
REMARK  4 active torsions:
REMARK  status: ('A' for Active; 'I' for Inactive)
REMARK    1  A    between atoms: N_2  and  C_19
REMARK    2  A    between atoms: C_3  and  C_6
REMARK    3  A    between atoms: C_5  and  C_16
REMARK    4  A    between atoms: C_19  and  C_21
REMARK                            x       y       z     vdW  Elec       q    Type
REMARK                         _______ _______ _______ _____ _____    ______ ____
ROOT
ATOM      1  O   UNL     1      36.773 -21.045 -17.779  0.00  0.00    -0.270 OA
ATOM      2  N   UNL     1      34.768 -22.120 -17.300  0.00  0.00    -0.270 N 
ATOM      3  C   UNL     1      35.599 -21.290 -18.058  0.00  0.00    +0.249 C 
ATOM      4  C   UNL     1      35.294 -22.749 -16.096  0.00  0.00    +0.116 C 
ENDROOT
BRANCH   3   6
ATOM      5  C   UNL     1      35.621 -19.669 -19.921  0.00  0.00    +0.006 C 
ATOM      6  C   UNL     1      34.976 -20.659 -19.260  0.00  0.00    +0.058 C 
BRANCH   5  16
ATOM      7  O   UNL     1      33.101 -15.152 -25.630  0.00  0.00    -0.275 OA
ATOM      8  N   UNL     1      33.591 -17.055 -24.442  0.00  0.00    -0.270 N 
ATOM      9  N   UNL     1      34.152 -19.048 -23.297  0.00  0.00    -0.229 NA
ATOM     10  C   UNL     1      34.369 -15.428 -22.254  0.00  0.00    +0.039 C 
ATOM     11  C   UNL     1      34.546 -16.916 -22.228  0.00  0.00    +0.010 C 
ATOM     12  C   UNL     1      34.468 -14.898 -23.677  0.00  0.00    +0.090 C 
ATOM     13  C   UNL     1      34.117 -17.694 -23.302  0.00  0.00    +0.130 C 
ATOM     14  C   UNL     1      35.040 -17.572 -21.099  0.00  0.00    +0.000 C 
ATOM     15  C   UNL     1      33.629 -15.692 -24.657  0.00  0.00    +0.227 C 
ATOM     16  C   UNL     1      35.106 -18.960 -21.079  0.00  0.00    +0.019 C 
ATOM     17  C   UNL     1      34.650 -19.645 -22.192  0.00  0.00    +0.100 C 
ATOM     18  H   UNL     1      33.169 -17.618 -25.130  0.00  0.00    +0.156 HD
ENDBRANCH   5  16
ENDBRANCH   3   6
BRANCH   2  19
ATOM     19  C   UNL     1      33.364 -22.398 -17.594  0.00  0.00    +0.122 C 
BRANCH  19  21
ATOM     20  N   UNL     1      32.293 -23.650 -14.336  0.00  0.00    -0.284 N 
ATOM     21  C   UNL     1      32.667 -22.826 -16.349  0.00  0.00    +0.014 C 
ATOM     22  C   UNL     1      31.282 -22.707 -16.086  0.00  0.00    +0.013 C 
ATOM     23  C   UNL     1      31.070 -23.233 -14.810  0.00  0.00    +0.051 C 
ATOM     24  C   UNL     1      33.268 -23.407 -15.266  0.00  0.00    +0.063 C 
ATOM     25  C   UNL     1      30.179 -22.201 -16.802  0.00  0.00    +0.001 C 
ATOM     26  C   UNL     1      29.806 -23.279 -14.212  0.00  0.00    +0.015 C 
ATOM     27  C   UNL     1      32.530 -24.259 -13.044  0.00  0.00    +0.117 C 
ATOM     28  C   UNL     1      28.908 -22.242 -16.218  0.00  0.00    +0.000 C 
ATOM     29  C   UNL     1      28.726 -22.773 -14.943  0.00  0.00    +0.001 C 
ENDBRANCH  19  21
ENDBRANCH   2  19
TORSDOF 4
ENDMDL
MODEL 8
REMARK VINA RESULT:     -11.1      5.451     11.022
REMARK  Name = 5288607
REMARK  4 active torsions:
REMARK  status: ('A' for Active; 'I' for Inactive)
REMARK    1  A    between atoms: N_2  and  C_19
REMARK    2  A    between atoms: C_3  and  C_6
REMARK    3  A    between atoms: C_5  and  C_16
REMARK    4  A    between atoms: C_19  and  C_21
REMARK                            x       y       z     vdW  Elec       q    Type
REMARK                         _______ _______ _______ _____ _____    ______ ____
ROOT
ATOM      1  O   UNL     1      30.420 -24.460 -15.754  0.00  0.00    -0.270 OA
ATOM      2  N   UNL     1      31.904 -23.566 -14.205  0.00  0.00    -0.270 N 
ATOM      3  C   UNL     1      31.234 -23.595 -15.431  0.00  0.00    +0.249 C 
ATOM      4  C   UNL     1      31.645 -24.613 -13.225  0.00  0.00    +0.116 C 
ENDROOT
BRANCH   3   6
ATOM      5  C   UNL     1      32.409 -22.751 -17.433  0.00  0.00    +0.006 C 
ATOM      6  C   UNL     1      31.578 -22.505 -16.392  0.00  0.00    +0.058 C 
BRANCH   5  16
ATOM      7  O   UNL     1      35.536 -17.766 -22.404  0.00  0.00    -0.275 OA
ATOM      8  N   UNL     1      33.940 -18.926 -21.229  0.00  0.00    -0.270 N 
ATOM      9  N   UNL     1      32.255 -20.151 -20.107  0.00  0.00    -0.229 NA
ATOM     10  C   UNL     1      36.007 -20.125 -19.704  0.00  0.00    +0.039 C 
ATOM     11  C   UNL     1      34.574 -20.536 -19.544  0.00  0.00    +0.010 C 
ATOM     12  C   UNL     1      36.278 -19.652 -21.124  0.00  0.00    +0.090 C 
ATOM     13  C   UNL     1      33.575 -19.900 -20.280  0.00  0.00    +0.130 C 
ATOM     14  C   UNL     1      34.187 -21.480 -18.592  0.00  0.00    +0.000 C 
ATOM     15  C   UNL     1      35.238 -18.670 -21.623  0.00  0.00    +0.227 C 
ATOM     16  C   UNL     1      32.841 -21.770 -18.412  0.00  0.00    +0.019 C 
ATOM     17  C   UNL     1      31.922 -21.081 -19.186  0.00  0.00    +0.100 C 
ATOM     18  H   UNL     1      33.222 -18.392 -21.639  0.00  0.00    +0.156 HD
ENDBRANCH   5  16
ENDBRANCH   3   6
BRANCH   2  19
ATOM     19  C   UNL     1      32.898 -22.570 -13.814  0.00  0.00    +0.122 C 
BRANCH  19  21
ATOM     20  N   UNL     1      35.913 -24.516 -13.143  0.00  0.00    -0.284 N 
ATOM     21  C   UNL     1      34.245 -23.205 -13.747  0.00  0.00    +0.014 C 
ATOM     22  C   UNL     1      35.366 -22.868 -14.542  0.00  0.00    +0.013 C 
ATOM     23  C   UNL     1      36.406 -23.709 -14.143  0.00  0.00    +0.051 C 
ATOM     24  C   UNL     1      34.601 -24.215 -12.896  0.00  0.00    +0.063 C 
ATOM     25  C   UNL     1      35.606 -21.931 -15.567  0.00  0.00    +0.001 C 
ATOM     26  C   UNL     1      37.680 -23.660 -14.720  0.00  0.00    +0.015 C 
ATOM     27  C   UNL     1      36.662 -25.539 -12.443  0.00  0.00    +0.117 C 
ATOM     28  C   UNL     1      36.875 -21.870 -16.153  0.00  0.00    +0.000 C 
ATOM     29  C   UNL     1      37.895 -22.722 -15.735  0.00  0.00    +0.001 C 
ENDBRANCH  19  21
ENDBRANCH   2  19
TORSDOF 4
ENDMDL
MODEL 9
REMARK VINA RESULT:     -11.1      4.979     10.489
REMARK  Name = 5288607
REMARK  4 active torsions:
REMARK  status: ('A' for Active; 'I' for Inactive)
REMARK    1  A    between atoms: N_2  and  C_19
REMARK    2  A    between atoms: C_3  and  C_6
REMARK    3  A    between atoms: C_5  and  C_16
REMARK    4  A    between atoms: C_19  and  C_21
REMARK                            x       y       z     vdW  Elec       q    Type
REMARK                         _______ _______ _______ _____ _____    ______ ____
ROOT
ATOM      1  O   UNL     1      37.473 -21.998 -14.606  0.00  0.00    -0.270 OA
ATOM      2  N   UNL     1      36.047 -23.832 -14.539  0.00  0.00    -0.270 N 
ATOM      3  C   UNL     1      36.506 -22.615 -15.052  0.00  0.00    +0.249 C 
ATOM      4  C   UNL     1      36.735 -24.433 -13.404  0.00  0.00    +0.116 C 
ENDROOT
BRANCH   3   6
ATOM      5  C   UNL     1      36.368 -21.601 -17.300  0.00  0.00    +0.006 C 
ATOM      6  C   UNL     1      35.727 -22.050 -16.195  0.00  0.00    +0.058 C 
BRANCH   5  16
ATOM      7  O   UNL     1      33.723 -17.984 -23.565  0.00  0.00    -0.275 OA
ATOM      8  N   UNL     1      33.771 -19.365 -21.731  0.00  0.00    -0.270 N 
ATOM      9  N   UNL     1      33.795 -20.866 -19.903  0.00  0.00    -0.229 NA
ATOM     10  C   UNL     1      36.337 -18.344 -21.092  0.00  0.00    +0.039 C 
ATOM     11  C   UNL     1      35.725 -19.471 -20.316  0.00  0.00    +0.010 C 
ATOM     12  C   UNL     1      35.855 -18.357 -22.535  0.00  0.00    +0.090 C 
ATOM     13  C   UNL     1      34.445 -19.925 -20.629  0.00  0.00    +0.130 C 
ATOM     14  C   UNL     1      36.364 -20.023 -19.205  0.00  0.00    +0.000 C 
ATOM     15  C   UNL     1      34.353 -18.514 -22.649  0.00  0.00    +0.227 C 
ATOM     16  C   UNL     1      35.726 -21.005 -18.458  0.00  0.00    +0.019 C 
ATOM     17  C   UNL     1      34.452 -21.386 -18.843  0.00  0.00    +0.100 C 
ATOM     18  H   UNL     1      32.822 -19.596 -21.855  0.00  0.00    +0.156 HD
ENDBRANCH   5  16
ENDBRANCH   3   6
BRANCH   2  19
ATOM     19  C   UNL     1      34.882 -24.565 -15.029  0.00  0.00    +0.122 C 
BRANCH  19  21
ATOM     20  N   UNL     1      32.074 -23.142 -13.179  0.00  0.00    -0.284 N 
ATOM     21  C   UNL     1      33.636 -23.916 -14.533  0.00  0.00    +0.014 C 
ATOM     22  C   UNL     1      32.625 -23.331 -15.332  0.00  0.00    +0.013 C 
ATOM     23  C   UNL     1      31.651 -22.850 -14.456  0.00  0.00    +0.051 C 
ATOM     24  C   UNL     1      33.279 -23.791 -13.218  0.00  0.00    +0.063 C 
ATOM     25  C   UNL     1      32.436 -23.158 -16.718  0.00  0.00    +0.001 C 
ATOM     26  C   UNL     1      30.492 -22.201 -14.897  0.00  0.00    +0.015 C 
ATOM     27  C   UNL     1      31.360 -22.818 -11.962  0.00  0.00    +0.117 C 
ATOM     28  C   UNL     1      31.282 -22.513 -17.174  0.00  0.00    +0.000 C 
ATOM     29  C   UNL     1      30.326 -22.042 -16.277  0.00  0.00    +0.001 C 
ENDBRANCH  19  21
ENDBRANCH   2  19
TORSDOF 4
ENDMDL
