MODEL 1
REMARK VINA RESULT:     -12.1      0.000      0.000
REMARK  Name = 9822610
REMARK  5 active torsions:
REMARK  status: ('A' for Active; 'I' for Inactive)
REMARK    1  A    between atoms: N_1  and  C_16
REMARK    2  A    between atoms: N_2  and  C_22
REMARK    3  A    between atoms: C_23  and  O_28
REMARK    4  A    between atoms: C_24  and  O_30
REMARK    5  A    between atoms: C_25  and  O_32
REMARK                            x       y       z     vdW  Elec       q    Type
REMARK                         _______ _______ _______ _____ _____    ______ ____
ROOT
ATOM      1  N   UNL     1      31.319 -22.200 -17.697  0.00  0.00    -0.287 N 
ATOM      2  N   UNL     1      33.374 -23.304 -13.586  0.00  0.00    -0.247 N 
ATOM      3  N   UNL     1      32.375 -22.755 -15.635  0.00  0.00    -0.322 NA
ATOM      4  N   UNL     1      31.037 -23.112 -13.662  0.00  0.00    -0.170 NA
ATOM      5  C   UNL     1      31.237 -22.510 -16.332  0.00  0.00    +0.198 C 
ATOM      6  C   UNL     1      32.204 -23.044 -14.331  0.00  0.00    +0.150 C 
ATOM      7  C   UNL     1      29.978 -22.551 -15.750  0.00  0.00    +0.070 C 
ATOM      8  C   UNL     1      29.940 -22.859 -14.406  0.00  0.00    +0.116 C 
ATOM      9  H   UNL     1      30.534 -22.485 -18.217  0.00  0.00    +0.155 HD
ATOM     10  H   UNL     1      33.202 -23.511 -12.639  0.00  0.00    +0.165 HD
ENDROOT
BRANCH   1  16
ATOM     11  N   UNL     1      36.246 -20.458 -20.157  0.00  0.00    -0.280 N 
ATOM     12  N   UNL     1      35.904 -21.379 -19.236  0.00  0.00    -0.173 NA
ATOM     13  C   UNL     1      34.105 -20.230 -20.014  0.00  0.00    +0.032 A 
ATOM     14  C   UNL     1      34.568 -21.265 -19.120  0.00  0.00    +0.103 A 
ATOM     15  C   UNL     1      35.203 -19.737 -20.659  0.00  0.00    +0.053 A 
ATOM     16  C   UNL     1      32.319 -21.555 -18.473  0.00  0.00    +0.052 C 
ATOM     17  C   UNL     1      33.659 -21.968 -18.309  0.00  0.00    +0.036 C 
ATOM     18  C   UNL     1      32.797 -19.802 -20.198  0.00  0.00    +0.004 C 
ATOM     19  C   UNL     1      31.910 -20.523 -19.375  0.00  0.00    +0.015 C 
ATOM     20  C   UNL     1      35.397 -18.687 -21.674  0.00  0.00    +0.051 C 
ATOM     21  H   UNL     1      37.177 -20.317 -20.446  0.00  0.00    +0.189 HD
ENDBRANCH   1  16
BRANCH   2  22
ATOM     22  C   UNL     1      34.738 -23.325 -13.930  0.00  0.00    +0.064 C 
ATOM     23  C   UNL     1      37.446 -23.366 -14.615  0.00  0.00    +0.206 C 
ATOM     24  C   UNL     1      36.538 -22.656 -15.401  0.00  0.00    +0.177 C 
ATOM     25  C   UNL     1      37.001 -24.054 -13.486  0.00  0.00    +0.177 C 
ATOM     26  C   UNL     1      35.186 -22.635 -15.060  0.00  0.00    +0.055 C 
ATOM     27  C   UNL     1      35.649 -24.034 -13.145  0.00  0.00    +0.055 C 
BRANCH  23  28
ATOM     28  O   UNL     1      38.768 -23.386 -14.949  0.00  0.00    -0.465 OA
ATOM     29  C   UNL     1      39.387 -24.664 -15.062  0.00  0.00    +0.253 C 
ENDBRANCH  23  28
BRANCH  24  30
ATOM     30  O   UNL     1      36.959 -21.979 -16.507  0.00  0.00    -0.468 OA
ATOM     31  C   UNL     1      37.140 -20.570 -16.374  0.00  0.00    +0.253 C 
ENDBRANCH  24  30
BRANCH  25  32
ATOM     32  O   UNL     1      37.877 -24.752 -12.710  0.00  0.00    -0.468 OA
ATOM     33  C   UNL     1      37.329 -25.752 -11.854  0.00  0.00    +0.253 C 
ENDBRANCH  25  32
ENDBRANCH   2  22
TORSDOF 5
ENDMDL
MODEL 2
REMARK VINA RESULT:     -12.1      0.030      2.336
REMARK  Name = 9822610
REMARK  5 active torsions:
REMARK  status: ('A' for Active; 'I' for Inactive)
REMARK    1  A    between atoms: N_1  and  C_16
REMARK    2  A    between atoms: N_2  and  C_22
REMARK    3  A    between atoms: C_23  and  O_28
REMARK    4  A    between atoms: C_24  and  O_30
REMARK    5  A    between atoms: C_25  and  O_32
REMARK                            x       y       z     vdW  Elec       q    Type
REMARK                         _______ _______ _______ _____ _____    ______ ____
ROOT
ATOM      1  N   UNL     1      31.331 -22.198 -17.707  0.00  0.00    -0.287 N 
ATOM      2  N   UNL     1      33.365 -23.287 -13.581  0.00  0.00    -0.247 N 
ATOM      3  N   UNL     1      32.377 -22.745 -15.638  0.00  0.00    -0.322 NA
ATOM      4  N   UNL     1      31.028 -23.104 -13.673  0.00  0.00    -0.170 NA
ATOM      5  C   UNL     1      31.242 -22.505 -16.342  0.00  0.00    +0.198 C 
ATOM      6  C   UNL     1      32.199 -23.033 -14.334  0.00  0.00    +0.150 C 
ATOM      7  C   UNL     1      29.980 -22.551 -15.768  0.00  0.00    +0.070 C 
ATOM      8  C   UNL     1      29.935 -22.856 -14.423  0.00  0.00    +0.116 C 
ATOM      9  H   UNL     1      30.550 -22.487 -18.232  0.00  0.00    +0.155 HD
ATOM     10  H   UNL     1      33.188 -23.493 -12.635  0.00  0.00    +0.165 HD
ENDROOT
BRANCH   1  16
ATOM     11  N   UNL     1      36.267 -20.447 -20.145  0.00  0.00    -0.280 N 
ATOM     12  N   UNL     1      35.922 -21.370 -19.225  0.00  0.00    -0.173 NA
ATOM     13  C   UNL     1      34.125 -20.222 -20.009  0.00  0.00    +0.032 A 
ATOM     14  C   UNL     1      34.586 -21.257 -19.115  0.00  0.00    +0.103 A 
ATOM     15  C   UNL     1      35.225 -19.726 -20.650  0.00  0.00    +0.053 A 
ATOM     16  C   UNL     1      32.334 -21.551 -18.478  0.00  0.00    +0.052 C 
ATOM     17  C   UNL     1      33.674 -21.963 -18.309  0.00  0.00    +0.036 C 
ATOM     18  C   UNL     1      32.817 -19.794 -20.199  0.00  0.00    +0.004 C 
ATOM     19  C   UNL     1      31.927 -20.518 -19.380  0.00  0.00    +0.015 C 
ATOM     20  C   UNL     1      35.422 -18.675 -21.662  0.00  0.00    +0.051 C 
ATOM     21  H   UNL     1      37.199 -20.304 -20.429  0.00  0.00    +0.189 HD
ENDBRANCH   1  16
BRANCH   2  22
ATOM     22  C   UNL     1      34.732 -23.304 -13.917  0.00  0.00    +0.064 C 
ATOM     23  C   UNL     1      37.444 -23.336 -14.582  0.00  0.00    +0.206 C 
ATOM     24  C   UNL     1      36.995 -24.022 -13.454  0.00  0.00    +0.177 C 
ATOM     25  C   UNL     1      36.539 -22.634 -15.378  0.00  0.00    +0.177 C 
ATOM     26  C   UNL     1      35.640 -24.006 -13.121  0.00  0.00    +0.055 C 
ATOM     27  C   UNL     1      35.184 -22.618 -15.046  0.00  0.00    +0.055 C 
BRANCH  23  28
ATOM     28  O   UNL     1      38.768 -23.352 -14.907  0.00  0.00    -0.465 OA
ATOM     29  C   UNL     1      39.380 -24.630 -15.064  0.00  0.00    +0.253 C 
ENDBRANCH  23  28
BRANCH  24  30
ATOM     30  O   UNL     1      37.869 -24.711 -12.667  0.00  0.00    -0.468 OA
ATOM     31  C   UNL     1      37.323 -25.728 -11.829  0.00  0.00    +0.253 C 
ENDBRANCH  24  30
BRANCH  25  32
ATOM     32  O   UNL     1      36.965 -21.960 -16.483  0.00  0.00    -0.468 OA
ATOM     33  C   UNL     1      37.174 -20.556 -16.343  0.00  0.00    +0.253 C 
ENDBRANCH  25  32
ENDBRANCH   2  22
TORSDOF 5
ENDMDL
MODEL 3
REMARK VINA RESULT:     -11.4      1.381      1.752
REMARK  Name = 9822610
REMARK  5 active torsions:
REMARK  status: ('A' for Active; 'I' for Inactive)
REMARK    1  A    between atoms: N_1  and  C_16
REMARK    2  A    between atoms: N_2  and  C_22
REMARK    3  A    between atoms: C_23  and  O_28
REMARK    4  A    between atoms: C_24  and  O_30
REMARK    5  A    between atoms: C_25  and  O_32
REMARK                            x       y       z     vdW  Elec       q    Type
REMARK                         _______ _______ _______ _____ _____    ______ ____
ROOT
ATOM      1  N   UNL     1      31.122 -22.312 -17.472  0.00  0.00    -0.287 N 
ATOM      2  N   UNL     1      32.912 -23.641 -13.303  0.00  0.00    -0.247 N 
ATOM      3  N   UNL     1      32.045 -22.981 -15.381  0.00  0.00    -0.322 NA
ATOM      4  N   UNL     1      30.599 -23.288 -13.477  0.00  0.00    -0.170 NA
ATOM      5  C   UNL     1      30.959 -22.644 -16.120  0.00  0.00    +0.198 C 
ATOM      6  C   UNL     1      31.796 -23.286 -14.092  0.00  0.00    +0.150 C 
ATOM      7  C   UNL     1      29.675 -22.612 -15.594  0.00  0.00    +0.070 C 
ATOM      8  C   UNL     1      29.556 -22.945 -14.261  0.00  0.00    +0.116 C 
ATOM      9  H   UNL     1      30.344 -22.532 -18.033  0.00  0.00    +0.155 HD
ATOM     10  H   UNL     1      32.684 -23.856 -12.370  0.00  0.00    +0.165 HD
ENDROOT
BRANCH   1  16
ATOM     11  N   UNL     1      36.279 -20.725 -19.536  0.00  0.00    -0.280 N 
ATOM     12  N   UNL     1      35.842 -21.575 -18.586  0.00  0.00    -0.173 NA
ATOM     13  C   UNL     1      34.134 -20.504 -19.633  0.00  0.00    +0.032 A 
ATOM     14  C   UNL     1      34.502 -21.463 -18.619  0.00  0.00    +0.103 A 
ATOM     15  C   UNL     1      35.294 -20.053 -20.198  0.00  0.00    +0.053 A 
ATOM     16  C   UNL     1      32.198 -21.721 -18.188  0.00  0.00    +0.052 C 
ATOM     17  C   UNL     1      33.514 -22.109 -17.854  0.00  0.00    +0.036 C 
ATOM     18  C   UNL     1      32.852 -20.102 -19.985  0.00  0.00    +0.004 C 
ATOM     19  C   UNL     1      31.885 -20.765 -19.205  0.00  0.00    +0.015 C 
ATOM     20  C   UNL     1      35.592 -19.084 -21.265  0.00  0.00    +0.051 C 
ATOM     21  H   UNL     1      37.235 -20.599 -19.737  0.00  0.00    +0.189 HD
ENDBRANCH   1  16
BRANCH   2  22
ATOM     22  C   UNL     1      34.286 -23.748 -13.588  0.00  0.00    +0.064 C 
ATOM     23  C   UNL     1      37.013 -23.958 -14.155  0.00  0.00    +0.206 C 
ATOM     24  C   UNL     1      36.556 -22.974 -13.277  0.00  0.00    +0.177 C 
ATOM     25  C   UNL     1      36.107 -24.837 -14.748  0.00  0.00    +0.177 C 
ATOM     26  C   UNL     1      35.195 -22.869 -12.994  0.00  0.00    +0.055 C 
ATOM     27  C   UNL     1      34.745 -24.732 -14.466  0.00  0.00    +0.055 C 
BRANCH  23  28
ATOM     28  O   UNL     1      38.344 -24.061 -14.430  0.00  0.00    -0.465 OA
ATOM     29  C   UNL     1      39.111 -24.929 -13.600  0.00  0.00    +0.253 C 
ENDBRANCH  23  28
BRANCH  24  30
ATOM     30  O   UNL     1      37.430 -22.109 -12.690  0.00  0.00    -0.468 OA
ATOM     31  C   UNL     1      37.365 -21.985 -11.271  0.00  0.00    +0.253 C 
ENDBRANCH  24  30
BRANCH  25  32
ATOM     32  O   UNL     1      36.539 -25.802 -15.607  0.00  0.00    -0.468 OA
ATOM     33  C   UNL     1      36.372 -27.157 -15.196  0.00  0.00    +0.253 C 
ENDBRANCH  25  32
ENDBRANCH   2  22
TORSDOF 5
ENDMDL
MODEL 4
REMARK VINA RESULT:     -11.3      2.199      6.435
REMARK  Name = 9822610
REMARK  5 active torsions:
REMARK  status: ('A' for Active; 'I' for Inactive)
REMARK    1  A    between atoms: N_1  and  C_16
REMARK    2  A    between atoms: N_2  and  C_22
REMARK    3  A    between atoms: C_23  and  O_28
REMARK    4  A    between atoms: C_24  and  O_30
REMARK    5  A    between atoms: C_25  and  O_32
REMARK                            x       y       z     vdW  Elec       q    Type
REMARK                         _______ _______ _______ _____ _____    ______ ____
ROOT
ATOM      1  N   UNL     1      33.028 -23.428 -13.451  0.00  0.00    -0.287 N 
ATOM      2  N   UNL     1      31.431 -21.922 -17.638  0.00  0.00    -0.247 N 
ATOM      3  N   UNL     1      32.245 -22.666 -15.567  0.00  0.00    -0.322 NA
ATOM      4  N   UNL     1      29.883 -22.688 -16.050  0.00  0.00    -0.170 NA
ATOM      5  C   UNL     1      31.973 -23.173 -14.339  0.00  0.00    +0.198 C 
ATOM      6  C   UNL     1      31.173 -22.452 -16.355  0.00  0.00    +0.150 C 
ATOM      7  C   UNL     1      30.684 -23.457 -13.913  0.00  0.00    +0.070 C 
ATOM      8  C   UNL     1      29.674 -23.193 -14.816  0.00  0.00    +0.116 C 
ATOM      9  H   UNL     1      32.780 -23.338 -12.503  0.00  0.00    +0.155 HD
ATOM     10  H   UNL     1      30.620 -21.782 -18.178  0.00  0.00    +0.165 HD
ENDROOT
BRANCH   1  16
ATOM     11  N   UNL     1      37.978 -25.917 -15.086  0.00  0.00    -0.280 N 
ATOM     12  N   UNL     1      36.668 -26.134 -15.318  0.00  0.00    -0.173 NA
ATOM     13  C   UNL     1      37.016 -24.354 -13.951  0.00  0.00    +0.032 A 
ATOM     14  C   UNL     1      36.035 -25.173 -14.622  0.00  0.00    +0.103 A 
ATOM     15  C   UNL     1      38.245 -24.858 -14.269  0.00  0.00    +0.053 A 
ATOM     16  C   UNL     1      34.386 -23.789 -13.658  0.00  0.00    +0.052 C 
ATOM     17  C   UNL     1      34.662 -24.900 -14.486  0.00  0.00    +0.036 C 
ATOM     18  C   UNL     1      36.778 -23.257 -13.132  0.00  0.00    +0.004 C 
ATOM     19  C   UNL     1      35.397 -23.007 -13.014  0.00  0.00    +0.015 C 
ATOM     20  C   UNL     1      39.621 -24.479 -13.908  0.00  0.00    +0.051 C 
ATOM     21  H   UNL     1      38.686 -26.479 -15.477  0.00  0.00    +0.189 HD
ENDBRANCH   1  16
BRANCH   2  22
ATOM     22  C   UNL     1      32.619 -21.557 -18.297  0.00  0.00    +0.064 C 
ATOM     23  C   UNL     1      34.979 -20.830 -19.603  0.00  0.00    +0.206 C 
ATOM     24  C   UNL     1      35.035 -21.553 -18.411  0.00  0.00    +0.177 C 
ATOM     25  C   UNL     1      33.743 -20.472 -20.143  0.00  0.00    +0.177 C 
ATOM     26  C   UNL     1      33.857 -21.916 -17.758  0.00  0.00    +0.055 C 
ATOM     27  C   UNL     1      32.565 -20.834 -19.490  0.00  0.00    +0.055 C 
BRANCH  23  28
ATOM     28  O   UNL     1      36.130 -20.476 -20.241  0.00  0.00    -0.465 OA
ATOM     29  C   UNL     1      36.535 -19.113 -20.136  0.00  0.00    +0.253 C 
ENDBRANCH  23  28
BRANCH  24  30
ATOM     30  O   UNL     1      36.235 -21.909 -17.873  0.00  0.00    -0.468 OA
ATOM     31  C   UNL     1      36.468 -21.549 -16.512  0.00  0.00    +0.253 C 
ENDBRANCH  24  30
BRANCH  25  32
ATOM     32  O   UNL     1      33.674 -19.766 -21.306  0.00  0.00    -0.468 OA
ATOM     33  C   UNL     1      33.865 -18.355 -21.220  0.00  0.00    +0.253 C 
ENDBRANCH  25  32
ENDBRANCH   2  22
TORSDOF 5
ENDMDL
MODEL 5
REMARK VINA RESULT:     -11.3      2.207      6.060
REMARK  Name = 9822610
REMARK  5 active torsions:
REMARK  status: ('A' for Active; 'I' for Inactive)
REMARK    1  A    between atoms: N_1  and  C_16
REMARK    2  A    between atoms: N_2  and  C_22
REMARK    3  A    between atoms: C_23  and  O_28
REMARK    4  A    between atoms: C_24  and  O_30
REMARK    5  A    between atoms: C_25  and  O_32
REMARK                            x       y       z     vdW  Elec       q    Type
REMARK                         _______ _______ _______ _____ _____    ______ ____
ROOT
ATOM      1  N   UNL     1      32.991 -23.401 -13.420  0.00  0.00    -0.287 N 
ATOM      2  N   UNL     1      31.394 -21.947 -17.625  0.00  0.00    -0.247 N 
ATOM      3  N   UNL     1      32.208 -22.664 -15.545  0.00  0.00    -0.322 NA
ATOM      4  N   UNL     1      29.848 -22.708 -16.033  0.00  0.00    -0.170 NA
ATOM      5  C   UNL     1      31.937 -23.162 -14.313  0.00  0.00    +0.198 C 
ATOM      6  C   UNL     1      31.137 -22.465 -16.337  0.00  0.00    +0.150 C 
ATOM      7  C   UNL     1      30.648 -23.450 -13.888  0.00  0.00    +0.070 C 
ATOM      8  C   UNL     1      29.639 -23.202 -14.795  0.00  0.00    +0.116 C 
ATOM      9  H   UNL     1      32.740 -23.303 -12.473  0.00  0.00    +0.155 HD
ATOM     10  H   UNL     1      30.584 -21.817 -18.169  0.00  0.00    +0.165 HD
ENDROOT
BRANCH   1  16
ATOM     11  N   UNL     1      37.963 -25.849 -15.050  0.00  0.00    -0.280 N 
ATOM     12  N   UNL     1      36.656 -26.065 -15.299  0.00  0.00    -0.173 NA
ATOM     13  C   UNL     1      36.986 -24.308 -13.897  0.00  0.00    +0.032 A 
ATOM     14  C   UNL     1      36.013 -25.118 -14.592  0.00  0.00    +0.103 A 
ATOM     15  C   UNL     1      38.219 -24.804 -14.212  0.00  0.00    +0.053 A 
ATOM     16  C   UNL     1      34.352 -23.755 -13.620  0.00  0.00    +0.052 C 
ATOM     17  C   UNL     1      34.638 -24.850 -14.465  0.00  0.00    +0.036 C 
ATOM     18  C   UNL     1      36.737 -23.227 -13.061  0.00  0.00    +0.004 C 
ATOM     19  C   UNL     1      35.354 -22.982 -12.953  0.00  0.00    +0.015 C 
ATOM     20  C   UNL     1      39.591 -24.428 -13.831  0.00  0.00    +0.051 C 
ATOM     21  H   UNL     1      38.676 -26.402 -15.443  0.00  0.00    +0.189 HD
ENDBRANCH   1  16
BRANCH   2  22
ATOM     22  C   UNL     1      32.582 -21.579 -18.284  0.00  0.00    +0.064 C 
ATOM     23  C   UNL     1      34.939 -20.851 -19.595  0.00  0.00    +0.206 C 
ATOM     24  C   UNL     1      33.702 -20.494 -20.133  0.00  0.00    +0.177 C 
ATOM     25  C   UNL     1      34.997 -21.571 -18.401  0.00  0.00    +0.177 C 
ATOM     26  C   UNL     1      32.525 -20.857 -19.479  0.00  0.00    +0.055 C 
ATOM     27  C   UNL     1      33.820 -21.935 -17.748  0.00  0.00    +0.055 C 
BRANCH  23  28
ATOM     28  O   UNL     1      36.089 -20.495 -20.234  0.00  0.00    -0.465 OA
ATOM     29  C   UNL     1      36.497 -19.133 -20.120  0.00  0.00    +0.253 C 
ENDBRANCH  23  28
BRANCH  24  30
ATOM     30  O   UNL     1      33.630 -19.791 -21.298  0.00  0.00    -0.468 OA
ATOM     31  C   UNL     1      33.860 -18.385 -21.222  0.00  0.00    +0.253 C 
ENDBRANCH  24  30
BRANCH  25  32
ATOM     32  O   UNL     1      36.198 -21.926 -17.865  0.00  0.00    -0.468 OA
ATOM     33  C   UNL     1      36.452 -21.520 -16.521  0.00  0.00    +0.253 C 
ENDBRANCH  25  32
ENDBRANCH   2  22
TORSDOF 5
ENDMDL
MODEL 6
REMARK VINA RESULT:     -10.7      1.378      1.869
REMARK  Name = 9822610
REMARK  5 active torsions:
REMARK  status: ('A' for Active; 'I' for Inactive)
REMARK    1  A    between atoms: N_1  and  C_16
REMARK    2  A    between atoms: N_2  and  C_22
REMARK    3  A    between atoms: C_23  and  O_28
REMARK    4  A    between atoms: C_24  and  O_30
REMARK    5  A    between atoms: C_25  and  O_32
REMARK                            x       y       z     vdW  Elec       q    Type
REMARK                         _______ _______ _______ _____ _____    ______ ____
ROOT
ATOM      1  N   UNL     1      31.165 -22.285 -17.596  0.00  0.00    -0.287 N 
ATOM      2  N   UNL     1      32.810 -23.653 -13.380  0.00  0.00    -0.247 N 
ATOM      3  N   UNL     1      32.015 -22.973 -15.480  0.00  0.00    -0.322 NA
ATOM      4  N   UNL     1      30.501 -23.324 -13.638  0.00  0.00    -0.170 NA
ATOM      5  C   UNL     1      30.954 -22.638 -16.256  0.00  0.00    +0.198 C 
ATOM      6  C   UNL     1      31.721 -23.299 -14.207  0.00  0.00    +0.150 C 
ATOM      7  C   UNL     1      29.651 -22.628 -15.780  0.00  0.00    +0.070 C 
ATOM      8  C   UNL     1      29.484 -22.981 -14.456  0.00  0.00    +0.116 C 
ATOM      9  H   UNL     1      30.412 -22.505 -18.189  0.00  0.00    +0.155 HD
ATOM     10  H   UNL     1      32.549 -23.884 -12.459  0.00  0.00    +0.165 HD
ENDROOT
BRANCH   1  16
ATOM     11  N   UNL     1      36.377 -20.559 -19.393  0.00  0.00    -0.280 N 
ATOM     12  N   UNL     1      35.915 -21.404 -18.451  0.00  0.00    -0.173 NA
ATOM     13  C   UNL     1      34.235 -20.416 -19.620  0.00  0.00    +0.032 A 
ATOM     14  C   UNL     1      34.576 -21.340 -18.564  0.00  0.00    +0.103 A 
ATOM     15  C   UNL     1      35.410 -19.936 -20.127  0.00  0.00    +0.053 A 
ATOM     16  C   UNL     1      32.260 -21.671 -18.261  0.00  0.00    +0.052 C 
ATOM     17  C   UNL     1      33.567 -22.005 -17.843  0.00  0.00    +0.036 C 
ATOM     18  C   UNL     1      32.964 -20.067 -20.054  0.00  0.00    +0.004 C 
ATOM     19  C   UNL     1      31.975 -20.747 -19.316  0.00  0.00    +0.015 C 
ATOM     20  C   UNL     1      35.737 -18.979 -21.196  0.00  0.00    +0.051 C 
ATOM     21  H   UNL     1      37.338 -20.403 -19.541  0.00  0.00    +0.189 HD
ENDBRANCH   1  16
BRANCH   2  22
ATOM     22  C   UNL     1      34.195 -23.740 -13.614  0.00  0.00    +0.064 C 
ATOM     23  C   UNL     1      36.944 -23.913 -14.077  0.00  0.00    +0.206 C 
ATOM     24  C   UNL     1      36.075 -24.819 -14.686  0.00  0.00    +0.177 C 
ATOM     25  C   UNL     1      36.439 -22.920 -13.237  0.00  0.00    +0.177 C 
ATOM     26  C   UNL     1      34.702 -24.733 -14.455  0.00  0.00    +0.055 C 
ATOM     27  C   UNL     1      35.066 -22.834 -13.005  0.00  0.00    +0.055 C 
BRANCH  23  28
ATOM     28  O   UNL     1      38.285 -23.998 -14.304  0.00  0.00    -0.465 OA
ATOM     29  C   UNL     1      38.779 -23.390 -15.495  0.00  0.00    +0.253 C 
ENDBRANCH  23  28
BRANCH  24  30
ATOM     30  O   UNL     1      36.555 -25.794 -15.509  0.00  0.00    -0.468 OA
ATOM     31  C   UNL     1      36.206 -27.140 -15.191  0.00  0.00    +0.253 C 
ENDBRANCH  24  30
BRANCH  25  32
ATOM     32  O   UNL     1      37.276 -22.030 -12.636  0.00  0.00    -0.468 OA
ATOM     33  C   UNL     1      37.602 -22.269 -11.268  0.00  0.00    +0.253 C 
ENDBRANCH  25  32
ENDBRANCH   2  22
TORSDOF 5
ENDMDL
MODEL 7
REMARK VINA RESULT:     -10.3      3.216      7.396
REMARK  Name = 9822610
REMARK  5 active torsions:
REMARK  status: ('A' for Active; 'I' for Inactive)
REMARK    1  A    between atoms: N_1  and  C_16
REMARK    2  A    between atoms: N_2  and  C_22
REMARK    3  A    between atoms: C_23  and  O_28
REMARK    4  A    between atoms: C_24  and  O_30
REMARK    5  A    between atoms: C_25  and  O_32
REMARK                            x       y       z     vdW  Elec       q    Type
REMARK                         _______ _______ _______ _____ _____    ______ ____
ROOT
ATOM      1  N   UNL     1      36.339 -22.292 -17.161  0.00  0.00    -0.287 N 
ATOM      2  N   UNL     1      31.733 -21.653 -18.012  0.00  0.00    -0.247 N 
ATOM      3  N   UNL     1      34.013 -21.981 -17.571  0.00  0.00    -0.322 NA
ATOM      4  N   UNL     1      33.293 -20.735 -19.504  0.00  0.00    -0.170 NA
ATOM      5  C   UNL     1      35.300 -21.771 -17.945  0.00  0.00    +0.198 C 
ATOM      6  C   UNL     1      33.080 -21.446 -18.381  0.00  0.00    +0.150 C 
ATOM      7  C   UNL     1      35.642 -21.054 -19.083  0.00  0.00    +0.070 C 
ATOM      8  C   UNL     1      34.592 -20.557 -19.827  0.00  0.00    +0.116 C 
ATOM      9  H   UNL     1      37.149 -22.517 -17.673  0.00  0.00    +0.155 HD
ATOM     10  H   UNL     1      31.086 -21.245 -18.632  0.00  0.00    +0.165 HD
ENDROOT
BRANCH   1  16
ATOM     11  N   UNL     1      38.047 -23.861 -11.870  0.00  0.00    -0.280 N 
ATOM     12  N   UNL     1      38.587 -23.889 -13.104  0.00  0.00    -0.173 NA
ATOM     13  C   UNL     1      36.493 -23.009 -13.103  0.00  0.00    +0.032 A 
ATOM     14  C   UNL     1      37.641 -23.362 -13.903  0.00  0.00    +0.103 A 
ATOM     15  C   UNL     1      36.787 -23.342 -11.810  0.00  0.00    +0.053 A 
ATOM     16  C   UNL     1      36.445 -22.559 -15.770  0.00  0.00    +0.052 C 
ATOM     17  C   UNL     1      37.641 -23.138 -15.291  0.00  0.00    +0.036 C 
ATOM     18  C   UNL     1      35.305 -22.439 -13.541  0.00  0.00    +0.004 C 
ATOM     19  C   UNL     1      35.333 -22.226 -14.934  0.00  0.00    +0.015 C 
ATOM     20  C   UNL     1      36.046 -23.238 -10.542  0.00  0.00    +0.051 C 
ATOM     21  H   UNL     1      38.524 -24.189 -11.074  0.00  0.00    +0.189 HD
ENDBRANCH   1  16
BRANCH   2  22
ATOM     22  C   UNL     1      31.133 -22.327 -16.932  0.00  0.00    +0.064 C 
ATOM     23  C   UNL     1      29.944 -23.667 -14.789  0.00  0.00    +0.206 C 
ATOM     24  C   UNL     1      31.317 -23.782 -15.009  0.00  0.00    +0.177 C 
ATOM     25  C   UNL     1      29.166 -22.881 -15.640  0.00  0.00    +0.177 C 
ATOM     26  C   UNL     1      31.911 -23.113 -16.078  0.00  0.00    +0.055 C 
ATOM     27  C   UNL     1      29.760 -22.213 -16.710  0.00  0.00    +0.055 C 
BRANCH  23  28
ATOM     28  O   UNL     1      29.364 -24.320 -13.742  0.00  0.00    -0.465 OA
ATOM     29  C   UNL     1      28.596 -25.481 -14.050  0.00  0.00    +0.253 C 
ENDBRANCH  23  28
BRANCH  24  30
ATOM     30  O   UNL     1      32.089 -24.546 -14.185  0.00  0.00    -0.468 OA
ATOM     31  C   UNL     1      32.579 -23.926 -12.997  0.00  0.00    +0.253 C 
ENDBRANCH  24  30
BRANCH  25  32
ATOM     32  O   UNL     1      27.824 -22.761 -15.436  0.00  0.00    -0.468 OA
ATOM     33  C   UNL     1      27.072 -22.105 -16.455  0.00  0.00    +0.253 C 
ENDBRANCH  25  32
ENDBRANCH   2  22
TORSDOF 5
ENDMDL
MODEL 8
REMARK VINA RESULT:     -10.3      3.216      7.186
REMARK  Name = 9822610
REMARK  5 active torsions:
REMARK  status: ('A' for Active; 'I' for Inactive)
REMARK    1  A    between atoms: N_1  and  C_16
REMARK    2  A    between atoms: N_2  and  C_22
REMARK    3  A    between atoms: C_23  and  O_28
REMARK    4  A    between atoms: C_24  and  O_30
REMARK    5  A    between atoms: C_25  and  O_32
REMARK                            x       y       z     vdW  Elec       q    Type
REMARK                         _______ _______ _______ _____ _____    ______ ____
ROOT
ATOM      1  N   UNL     1      36.356 -22.299 -17.148  0.00  0.00    -0.287 N 
ATOM      2  N   UNL     1      31.752 -21.656 -18.008  0.00  0.00    -0.247 N 
ATOM      3  N   UNL     1      34.032 -21.986 -17.562  0.00  0.00    -0.322 NA
ATOM      4  N   UNL     1      33.316 -20.741 -19.498  0.00  0.00    -0.170 NA
ATOM      5  C   UNL     1      35.319 -21.777 -17.934  0.00  0.00    +0.198 C 
ATOM      6  C   UNL     1      33.100 -21.451 -18.375  0.00  0.00    +0.150 C 
ATOM      7  C   UNL     1      35.664 -21.062 -19.072  0.00  0.00    +0.070 C 
ATOM      8  C   UNL     1      34.616 -20.565 -19.818  0.00  0.00    +0.116 C 
ATOM      9  H   UNL     1      37.167 -22.526 -17.657  0.00  0.00    +0.155 HD
ATOM     10  H   UNL     1      31.107 -21.248 -18.629  0.00  0.00    +0.165 HD
ENDROOT
BRANCH   1  16
ATOM     11  N   UNL     1      38.054 -23.861 -11.852  0.00  0.00    -0.280 N 
ATOM     12  N   UNL     1      38.597 -23.890 -13.085  0.00  0.00    -0.173 NA
ATOM     13  C   UNL     1      36.502 -23.012 -13.088  0.00  0.00    +0.032 A 
ATOM     14  C   UNL     1      37.652 -23.365 -13.885  0.00  0.00    +0.103 A 
ATOM     15  C   UNL     1      36.793 -23.343 -11.795  0.00  0.00    +0.053 A 
ATOM     16  C   UNL     1      36.460 -22.564 -15.756  0.00  0.00    +0.052 C 
ATOM     17  C   UNL     1      37.655 -23.142 -15.274  0.00  0.00    +0.036 C 
ATOM     18  C   UNL     1      35.314 -22.443 -13.530  0.00  0.00    +0.004 C 
ATOM     19  C   UNL     1      35.345 -22.231 -14.922  0.00  0.00    +0.015 C 
ATOM     20  C   UNL     1      36.049 -23.238 -10.529  0.00  0.00    +0.051 C 
ATOM     21  H   UNL     1      38.530 -24.188 -11.054  0.00  0.00    +0.189 HD
ENDBRANCH   1  16
BRANCH   2  22
ATOM     22  C   UNL     1      31.150 -22.328 -16.928  0.00  0.00    +0.064 C 
ATOM     23  C   UNL     1      29.954 -23.661 -14.785  0.00  0.00    +0.206 C 
ATOM     24  C   UNL     1      29.180 -22.868 -15.632  0.00  0.00    +0.177 C 
ATOM     25  C   UNL     1      31.325 -23.789 -15.009  0.00  0.00    +0.177 C 
ATOM     26  C   UNL     1      29.777 -22.202 -16.703  0.00  0.00    +0.055 C 
ATOM     27  C   UNL     1      31.922 -23.123 -16.079  0.00  0.00    +0.055 C 
BRANCH  23  28
ATOM     28  O   UNL     1      29.370 -24.312 -13.739  0.00  0.00    -0.465 OA
ATOM     29  C   UNL     1      28.597 -25.469 -14.048  0.00  0.00    +0.253 C 
ENDBRANCH  23  28
BRANCH  24  30
ATOM     30  O   UNL     1      27.840 -22.734 -15.424  0.00  0.00    -0.468 OA
ATOM     31  C   UNL     1      27.081 -22.123 -16.466  0.00  0.00    +0.253 C 
ENDBRANCH  24  30
BRANCH  25  32
ATOM     32  O   UNL     1      32.092 -24.561 -14.189  0.00  0.00    -0.468 OA
ATOM     33  C   UNL     1      32.577 -23.952 -12.994  0.00  0.00    +0.253 C 
ENDBRANCH  25  32
ENDBRANCH   2  22
TORSDOF 5
ENDMDL
