MODEL 1
REMARK VINA RESULT:      -8.7      0.000      0.000
REMARK  Name = 6674
REMARK  5 active torsions:
REMARK  status: ('A' for Active; 'I' for Inactive)
REMARK    1  A    between atoms: C_9  and  C_23
REMARK    2  A    between atoms: C_23  and  C_25
REMARK    3  A    between atoms: C_25  and  C_26
REMARK    4  A    between atoms: C_26  and  C_28
REMARK    5  A    between atoms: C_28  and  O_29
REMARK                            x       y       z     vdW  Elec       q    Type
REMARK                         _______ _______ _______ _____ _____    ______ ____
ROOT
ATOM      1  O   UNL     1      36.465 -20.553 -17.778  0.00  0.00    -0.296 OA
ATOM      2  O   UNL     1      31.173 -22.428 -15.677  0.00  0.00    -0.296 OA
ATOM      3  O   UNL     1      34.739 -22.872 -10.863  0.00  0.00    -0.296 OA
ATOM      4  C   UNL     1      33.227 -21.742 -17.517  0.00  0.00    +0.013 C 
ATOM      5  C   UNL     1      34.410 -21.602 -18.503  0.00  0.00    +0.052 C 
ATOM      6  C   UNL     1      33.335 -22.993 -16.637  0.00  0.00    +0.058 C 
ATOM      7  C   UNL     1      34.642 -22.901 -15.784  0.00  0.00    +0.014 C 
ATOM      8  C   UNL     1      34.815 -24.142 -14.829  0.00  0.00    +0.002 C 
ATOM      9  C   UNL     1      33.971 -20.324 -19.251  0.00  0.00    +0.007 C 
ATOM     10  C   UNL     1      32.011 -21.573 -18.425  0.00  0.00    +0.001 C 
ATOM     11  C   UNL     1      33.547 -24.282 -13.917  0.00  0.00    +0.015 C 
ATOM     12  C   UNL     1      35.891 -22.594 -16.640  0.00  0.00    +0.065 C 
ATOM     13  C   UNL     1      32.453 -20.525 -19.459  0.00  0.00    +0.000 C 
ATOM     14  C   UNL     1      35.654 -21.467 -17.638  0.00  0.00    +0.150 C 
ATOM     15  C   UNL     1      32.161 -23.158 -15.675  0.00  0.00    +0.150 C 
ATOM     16  C   UNL     1      32.247 -24.336 -14.729  0.00  0.00    +0.065 C 
ATOM     17  C   UNL     1      36.063 -24.021 -13.906  0.00  0.00    +0.008 C 
ATOM     18  C   UNL     1      34.610 -22.793 -19.464  0.00  0.00    +0.007 C 
ATOM     19  C   UNL     1      35.007 -25.450 -15.641  0.00  0.00    +0.000 C 
ATOM     20  C   UNL     1      33.441 -23.171 -12.853  0.00  0.00    +0.065 C 
ATOM     21  C   UNL     1      35.989 -22.880 -12.905  0.00  0.00    +0.065 C 
ATOM     22  C   UNL     1      34.729 -23.004 -12.086  0.00  0.00    +0.151 C 
ENDROOT
BRANCH   9  23
ATOM     23  C   UNL     1      34.696 -20.013 -20.555  0.00  0.00    +0.001 C 
ATOM     24  C   UNL     1      36.094 -19.465 -20.258  0.00  0.00    +0.000 C 
BRANCH  23  25
ATOM     25  C   UNL     1      33.859 -19.038 -21.406  0.00  0.00    +0.012 C 
BRANCH  25  26
ATOM     26  C   UNL     1      34.697 -18.145 -22.324  0.00  0.00    +0.109 C 
BRANCH  26  28
ATOM     27  O   UNL     1      34.638 -16.376 -20.652  0.00  0.00    -0.250 OA
ATOM     28  C   UNL     1      34.765 -16.722 -21.817  0.00  0.00    +0.314 C 
BRANCH  28  29
ATOM     29  O   UNL     1      34.982 -15.844 -22.832  0.00  0.00    -0.480 OA
ATOM     30  H   UNL     1      34.807 -14.932 -22.707  0.00  0.00    +0.295 HD
ENDBRANCH  28  29
ENDBRANCH  26  28
ENDBRANCH  25  26
ENDBRANCH  23  25
ENDBRANCH   9  23
TORSDOF 5
ENDMDL
MODEL 2
REMARK VINA RESULT:      -7.6     10.372     15.369
REMARK  Name = 6674
REMARK  5 active torsions:
REMARK  status: ('A' for Active; 'I' for Inactive)
REMARK    1  A    between atoms: C_9  and  C_23
REMARK    2  A    between atoms: C_23  and  C_25
REMARK    3  A    between atoms: C_25  and  C_26
REMARK    4  A    between atoms: C_26  and  C_28
REMARK    5  A    between atoms: C_28  and  O_29
REMARK                            x       y       z     vdW  Elec       q    Type
REMARK                         _______ _______ _______ _____ _____    ______ ____
ROOT
ATOM      1  O   UNL     1      33.015  -7.398 -24.598  0.00  0.00    -0.296 OA
ATOM      2  O   UNL     1      32.264  -8.376 -18.731  0.00  0.00    -0.296 OA
ATOM      3  O   UNL     1      34.166 -13.713 -20.728  0.00  0.00    -0.296 OA
ATOM      4  C   UNL     1      32.041  -7.155 -21.288  0.00  0.00    +0.013 C 
ATOM      5  C   UNL     1      31.721  -6.628 -22.706  0.00  0.00    +0.052 C 
ATOM      6  C   UNL     1      31.346  -8.488 -20.981  0.00  0.00    +0.058 C 
ATOM      7  C   UNL     1      31.844  -9.564 -22.000  0.00  0.00    +0.014 C 
ATOM      8  C   UNL     1      31.194 -10.975 -21.735  0.00  0.00    +0.002 C 
ATOM      9  C   UNL     1      32.496  -5.292 -22.664  0.00  0.00    +0.007 C 
ATOM     10  C   UNL     1      31.750  -5.944 -20.404  0.00  0.00    +0.001 C 
ATOM     11  C   UNL     1      31.478 -11.414 -20.257  0.00  0.00    +0.015 C 
ATOM     12  C   UNL     1      31.734  -9.091 -23.467  0.00  0.00    +0.065 C 
ATOM     13  C   UNL     1      32.201  -4.742 -21.251  0.00  0.00    +0.000 C 
ATOM     14  C   UNL     1      32.261  -7.676 -23.667  0.00  0.00    +0.150 C 
ATOM     15  C   UNL     1      31.633  -9.009 -19.575  0.00  0.00    +0.150 C 
ATOM     16  C   UNL     1      31.034 -10.356 -19.239  0.00  0.00    +0.065 C 
ATOM     17  C   UNL     1      31.749 -12.079 -22.682  0.00  0.00    +0.008 C 
ATOM     18  C   UNL     1      30.223  -6.415 -23.006  0.00  0.00    +0.007 C 
ATOM     19  C   UNL     1      29.661 -10.937 -21.972  0.00  0.00    +0.000 C 
ATOM     20  C   UNL     1      32.955 -11.777 -20.007  0.00  0.00    +0.065 C 
ATOM     21  C   UNL     1      33.224 -12.386 -22.484  0.00  0.00    +0.065 C 
ATOM     22  C   UNL     1      33.478 -12.742 -21.042  0.00  0.00    +0.151 C 
ENDROOT
BRANCH   9  23
ATOM     23  C   UNL     1      32.173  -4.281 -23.757  0.00  0.00    +0.001 C 
ATOM     24  C   UNL     1      33.412  -4.033 -24.623  0.00  0.00    +0.000 C 
BRANCH  23  25
ATOM     25  C   UNL     1      31.633  -2.980 -23.131  0.00  0.00    +0.012 C 
BRANCH  25  26
ATOM     26  C   UNL     1      31.562  -1.807 -24.112  0.00  0.00    +0.109 C 
BRANCH  26  28
ATOM     27  O   UNL     1      29.211  -1.802 -24.745  0.00  0.00    -0.250 OA
ATOM     28  C   UNL     1      30.387  -1.931 -25.054  0.00  0.00    +0.314 C 
BRANCH  28  29
ATOM     29  O   UNL     1      30.793  -2.218 -26.319  0.00  0.00    -0.480 OA
ATOM     30  H   UNL     1      30.908  -3.110 -26.583  0.00  0.00    +0.295 HD
ENDBRANCH  28  29
ENDBRANCH  26  28
ENDBRANCH  25  26
ENDBRANCH  23  25
ENDBRANCH   9  23
TORSDOF 5
ENDMDL
MODEL 3
REMARK VINA RESULT:      -7.3      1.840      8.587
REMARK  Name = 6674
REMARK  5 active torsions:
REMARK  status: ('A' for Active; 'I' for Inactive)
REMARK    1  A    between atoms: C_9  and  C_23
REMARK    2  A    between atoms: C_23  and  C_25
REMARK    3  A    between atoms: C_25  and  C_26
REMARK    4  A    between atoms: C_26  and  C_28
REMARK    5  A    between atoms: C_28  and  O_29
REMARK                            x       y       z     vdW  Elec       q    Type
REMARK                         _______ _______ _______ _____ _____    ______ ____
ROOT
ATOM      1  O   UNL     1      31.458 -20.499 -19.241  0.00  0.00    -0.296 OA
ATOM      2  O   UNL     1      37.202 -18.800 -19.487  0.00  0.00    -0.296 OA
ATOM      3  O   UNL     1      34.454 -14.667 -22.872  0.00  0.00    -0.296 OA
ATOM      4  C   UNL     1      34.913 -20.436 -19.084  0.00  0.00    +0.013 C 
ATOM      5  C   UNL     1      33.699 -21.394 -19.095  0.00  0.00    +0.052 C 
ATOM      6  C   UNL     1      35.366 -20.037 -20.494  0.00  0.00    +0.058 C 
ATOM      7  C   UNL     1      34.192 -19.293 -21.211  0.00  0.00    +0.014 C 
ATOM      8  C   UNL     1      34.587 -18.825 -22.663  0.00  0.00    +0.002 C 
ATOM      9  C   UNL     1      33.551 -21.638 -17.577  0.00  0.00    +0.007 C 
ATOM     10  C   UNL     1      35.898 -21.150 -18.161  0.00  0.00    +0.001 C 
ATOM     11  C   UNL     1      35.872 -17.930 -22.593  0.00  0.00    +0.015 C 
ATOM     12  C   UNL     1      32.862 -20.078 -21.148  0.00  0.00    +0.065 C 
ATOM     13  C   UNL     1      35.007 -21.798 -17.088  0.00  0.00    +0.000 C 
ATOM     14  C   UNL     1      32.568 -20.620 -19.755  0.00  0.00    +0.150 C 
ATOM     15  C   UNL     1      36.578 -19.110 -20.500  0.00  0.00    +0.150 C 
ATOM     16  C   UNL     1      37.027 -18.624 -21.860  0.00  0.00    +0.065 C 
ATOM     17  C   UNL     1      33.461 -18.001 -23.355  0.00  0.00    +0.008 C 
ATOM     18  C   UNL     1      33.908 -22.711 -19.872  0.00  0.00    +0.007 C 
ATOM     19  C   UNL     1      34.859 -20.041 -23.587  0.00  0.00    +0.000 C 
ATOM     20  C   UNL     1      35.616 -16.551 -21.956  0.00  0.00    +0.065 C 
ATOM     21  C   UNL     1      33.159 -16.672 -22.683  0.00  0.00    +0.065 C 
ATOM     22  C   UNL     1      34.424 -15.860 -22.573  0.00  0.00    +0.151 C 
ENDROOT
BRANCH   9  23
ATOM     23  C   UNL     1      32.668 -22.807 -17.156  0.00  0.00    +0.001 C 
ATOM     24  C   UNL     1      31.253 -22.309 -16.850  0.00  0.00    +0.000 C 
BRANCH  23  25
ATOM     25  C   UNL     1      33.298 -23.539 -15.956  0.00  0.00    +0.012 C 
BRANCH  25  26
ATOM     26  C   UNL     1      32.829 -23.014 -14.597  0.00  0.00    +0.109 C 
BRANCH  26  28
ATOM     27  O   UNL     1      31.270 -24.738 -13.871  0.00  0.00    -0.250 OA
ATOM     28  C   UNL     1      32.315 -24.124 -13.710  0.00  0.00    +0.314 C 
BRANCH  28  29
ATOM     29  O   UNL     1      33.166 -24.368 -12.678  0.00  0.00    -0.480 OA
ATOM     30  H   UNL     1      33.345 -25.250 -12.417  0.00  0.00    +0.295 HD
ENDBRANCH  28  29
ENDBRANCH  26  28
ENDBRANCH  25  26
ENDBRANCH  23  25
ENDBRANCH   9  23
TORSDOF 5
ENDMDL
MODEL 4
REMARK VINA RESULT:      -7.3     15.235     18.606
REMARK  Name = 6674
REMARK  5 active torsions:
REMARK  status: ('A' for Active; 'I' for Inactive)
REMARK    1  A    between atoms: C_9  and  C_23
REMARK    2  A    between atoms: C_23  and  C_25
REMARK    3  A    between atoms: C_25  and  C_26
REMARK    4  A    between atoms: C_26  and  C_28
REMARK    5  A    between atoms: C_28  and  O_29
REMARK                            x       y       z     vdW  Elec       q    Type
REMARK                         _______ _______ _______ _____ _____    ______ ____
ROOT
ATOM      1  O   UNL     1      35.189  -6.160 -25.316  0.00  0.00    -0.296 OA
ATOM      2  O   UNL     1      31.306  -2.383 -22.748  0.00  0.00    -0.296 OA
ATOM      3  O   UNL     1      31.634  -6.858 -18.755  0.00  0.00    -0.296 OA
ATOM      4  C   UNL     1      32.891  -3.639 -24.745  0.00  0.00    +0.013 C 
ATOM      5  C   UNL     1      33.560  -4.462 -25.871  0.00  0.00    +0.052 C 
ATOM      6  C   UNL     1      31.671  -4.344 -24.140  0.00  0.00    +0.058 C 
ATOM      7  C   UNL     1      32.132  -5.700 -23.513  0.00  0.00    +0.014 C 
ATOM      8  C   UNL     1      30.937  -6.479 -22.843  0.00  0.00    +0.002 C 
ATOM      9  C   UNL     1      34.669  -3.472 -26.289  0.00  0.00    +0.007 C 
ATOM     10  C   UNL     1      32.711  -2.267 -25.393  0.00  0.00    +0.001 C 
ATOM     11  C   UNL     1      30.246  -5.561 -21.775  0.00  0.00    +0.015 C 
ATOM     12  C   UNL     1      32.964  -6.558 -24.492  0.00  0.00    +0.065 C 
ATOM     13  C   UNL     1      33.959  -2.100 -26.276  0.00  0.00    +0.000 C 
ATOM     14  C   UNL     1      34.035  -5.749 -25.214  0.00  0.00    +0.150 C 
ATOM     15  C   UNL     1      30.986  -3.532 -23.044  0.00  0.00    +0.150 C 
ATOM     16  C   UNL     1      29.820  -4.208 -22.358  0.00  0.00    +0.065 C 
ATOM     17  C   UNL     1      31.394  -7.786 -22.133  0.00  0.00    +0.008 C 
ATOM     18  C   UNL     1      32.639  -4.829 -27.053  0.00  0.00    +0.007 C 
ATOM     19  C   UNL     1      29.888  -6.910 -23.902  0.00  0.00    +0.000 C 
ATOM     20  C   UNL     1      31.115  -5.330 -20.524  0.00  0.00    +0.065 C 
ATOM     21  C   UNL     1      32.310  -7.561 -20.941  0.00  0.00    +0.065 C 
ATOM     22  C   UNL     1      31.647  -6.625 -19.963  0.00  0.00    +0.151 C 
ENDROOT
BRANCH   9  23
ATOM     23  C   UNL     1      35.367  -3.748 -27.615  0.00  0.00    +0.001 C 
ATOM     24  C   UNL     1      36.885  -3.671 -27.433  0.00  0.00    +0.000 C 
BRANCH  23  25
ATOM     25  C   UNL     1      34.861  -2.770 -28.693  0.00  0.00    +0.012 C 
BRANCH  25  26
ATOM     26  C   UNL     1      34.450  -3.451 -30.000  0.00  0.00    +0.109 C 
BRANCH  26  28
ATOM     27  O   UNL     1      35.916  -5.396 -30.000  0.00  0.00    -0.250 OA
ATOM     28  C   UNL     1      34.787  -4.925 -29.998  0.00  0.00    +0.314 C 
BRANCH  28  29
ATOM     29  O   UNL     1      33.665  -5.691 -30.000  0.00  0.00    -0.480 OA
ATOM     30  H   UNL     1      33.728  -6.614 -30.146  0.00  0.00    +0.295 HD
ENDBRANCH  28  29
ENDBRANCH  26  28
ENDBRANCH  25  26
ENDBRANCH  23  25
ENDBRANCH   9  23
TORSDOF 5
ENDMDL
MODEL 5
REMARK VINA RESULT:      -7.1     12.855     19.225
REMARK  Name = 6674
REMARK  5 active torsions:
REMARK  status: ('A' for Active; 'I' for Inactive)
REMARK    1  A    between atoms: C_9  and  C_23
REMARK    2  A    between atoms: C_23  and  C_25
REMARK    3  A    between atoms: C_25  and  C_26
REMARK    4  A    between atoms: C_26  and  C_28
REMARK    5  A    between atoms: C_28  and  O_29
REMARK                            x       y       z     vdW  Elec       q    Type
REMARK                         _______ _______ _______ _____ _____    ______ ____
ROOT
ATOM      1  O   UNL     1      34.433  -5.851 -22.970  0.00  0.00    -0.296 OA
ATOM      2  O   UNL     1      32.608  -6.305 -28.663  0.00  0.00    -0.296 OA
ATOM      3  O   UNL     1      38.273  -4.392 -29.238  0.00  0.00    -0.296 OA
ATOM      4  C   UNL     1      32.502  -6.099 -25.830  0.00  0.00    +0.013 C 
ATOM      5  C   UNL     1      32.432  -5.748 -24.325  0.00  0.00    +0.052 C 
ATOM      6  C   UNL     1      32.925  -4.907 -26.698  0.00  0.00    +0.058 C 
ATOM      7  C   UNL     1      34.354  -4.446 -26.261  0.00  0.00    +0.014 C 
ATOM      8  C   UNL     1      34.876  -3.236 -27.126  0.00  0.00    +0.002 C 
ATOM      9  C   UNL     1      31.933  -7.099 -23.769  0.00  0.00    +0.007 C 
ATOM     10  C   UNL     1      31.150  -6.761 -26.084  0.00  0.00    +0.001 C 
ATOM     11  C   UNL     1      34.840  -3.623 -28.644  0.00  0.00    +0.015 C 
ATOM     12  C   UNL     1      34.467  -4.219 -24.737  0.00  0.00    +0.065 C 
ATOM     13  C   UNL     1      30.863  -7.543 -24.792  0.00  0.00    +0.000 C 
ATOM     14  C   UNL     1      33.846  -5.351 -23.929  0.00  0.00    +0.150 C 
ATOM     15  C   UNL     1      32.975  -5.233 -28.188  0.00  0.00    +0.150 C 
ATOM     16  C   UNL     1      33.457  -4.116 -29.088  0.00  0.00    +0.065 C 
ATOM     17  C   UNL     1      36.333  -2.825 -26.766  0.00  0.00    +0.008 C 
ATOM     18  C   UNL     1      31.481  -4.588 -23.964  0.00  0.00    +0.007 C 
ATOM     19  C   UNL     1      34.005  -1.972 -26.899  0.00  0.00    +0.000 C 
ATOM     20  C   UNL     1      35.904  -4.670 -29.028  0.00  0.00    +0.065 C 
ATOM     21  C   UNL     1      37.375  -3.887 -27.078  0.00  0.00    +0.065 C 
ATOM     22  C   UNL     1      37.275  -4.285 -28.528  0.00  0.00    +0.151 C 
ENDROOT
BRANCH   9  23
ATOM     23  C   UNL     1      31.400  -7.095 -22.341  0.00  0.00    +0.001 C 
ATOM     24  C   UNL     1      32.566  -7.111 -21.349  0.00  0.00    +0.000 C 
BRANCH  23  25
ATOM     25  C   UNL     1      30.442  -8.284 -22.131  0.00  0.00    +0.012 C 
BRANCH  25  26
ATOM     26  C   UNL     1      31.017  -9.388 -21.240  0.00  0.00    +0.109 C 
BRANCH  26  28
ATOM     27  O   UNL     1      32.195 -10.633 -22.969  0.00  0.00    -0.250 OA
ATOM     28  C   UNL     1      31.403 -10.612 -22.038  0.00  0.00    +0.314 C 
BRANCH  28  29
ATOM     29  O   UNL     1      30.747 -11.718 -21.599  0.00  0.00    -0.480 OA
ATOM     30  H   UNL     1      31.215 -12.389 -21.140  0.00  0.00    +0.295 HD
ENDBRANCH  28  29
ENDBRANCH  26  28
ENDBRANCH  25  26
ENDBRANCH  23  25
ENDBRANCH   9  23
TORSDOF 5
ENDMDL
MODEL 6
REMARK VINA RESULT:      -7.0     15.293     18.816
REMARK  Name = 6674
REMARK  5 active torsions:
REMARK  status: ('A' for Active; 'I' for Inactive)
REMARK    1  A    between atoms: C_9  and  C_23
REMARK    2  A    between atoms: C_23  and  C_25
REMARK    3  A    between atoms: C_25  and  C_26
REMARK    4  A    between atoms: C_26  and  C_28
REMARK    5  A    between atoms: C_28  and  O_29
REMARK                            x       y       z     vdW  Elec       q    Type
REMARK                         _______ _______ _______ _____ _____    ______ ____
ROOT
ATOM      1  O   UNL     1      34.945  -6.525 -25.584  0.00  0.00    -0.296 OA
ATOM      2  O   UNL     1      31.644  -2.316 -22.875  0.00  0.00    -0.296 OA
ATOM      3  O   UNL     1      31.870  -6.678 -18.751  0.00  0.00    -0.296 OA
ATOM      4  C   UNL     1      32.943  -3.779 -24.937  0.00  0.00    +0.013 C 
ATOM      5  C   UNL     1      33.441  -4.696 -26.078  0.00  0.00    +0.052 C 
ATOM      6  C   UNL     1      31.714  -4.345 -24.215  0.00  0.00    +0.058 C 
ATOM      7  C   UNL     1      32.095  -5.720 -23.574  0.00  0.00    +0.014 C 
ATOM      8  C   UNL     1      30.889  -6.359 -22.786  0.00  0.00    +0.002 C 
ATOM      9  C   UNL     1      34.601  -3.830 -26.616  0.00  0.00    +0.007 C 
ATOM     10  C   UNL     1      32.841  -2.417 -25.621  0.00  0.00    +0.001 C 
ATOM     11  C   UNL     1      30.374  -5.348 -21.705  0.00  0.00    +0.015 C 
ATOM     12  C   UNL     1      32.764  -6.682 -24.580  0.00  0.00    +0.065 C 
ATOM     13  C   UNL     1      34.025  -2.397 -26.602  0.00  0.00    +0.000 C 
ATOM     14  C   UNL     1      33.845  -6.002 -25.410  0.00  0.00    +0.150 C 
ATOM     15  C   UNL     1      31.197  -3.438 -23.102  0.00  0.00    +0.150 C 
ATOM     16  C   UNL     1      30.030  -3.979 -22.304  0.00  0.00    +0.065 C 
ATOM     17  C   UNL     1      31.278  -7.682 -22.063  0.00  0.00    +0.008 C 
ATOM     18  C   UNL     1      32.400  -5.010 -27.173  0.00  0.00    +0.007 C 
ATOM     19  C   UNL     1      29.725  -6.721 -23.745  0.00  0.00    +0.000 C 
ATOM     20  C   UNL     1      31.356  -5.162 -20.532  0.00  0.00    +0.065 C 
ATOM     21  C   UNL     1      32.302  -7.509 -20.954  0.00  0.00    +0.065 C 
ATOM     22  C   UNL     1      31.808  -6.485 -19.964  0.00  0.00    +0.151 C 
ENDROOT
BRANCH   9  23
ATOM     23  C   UNL     1      35.163  -4.213 -27.980  0.00  0.00    +0.001 C 
ATOM     24  C   UNL     1      36.444  -5.033 -27.806  0.00  0.00    +0.000 C 
BRANCH  23  25
ATOM     25  C   UNL     1      35.394  -2.948 -28.831  0.00  0.00    +0.012 C 
BRANCH  25  26
ATOM     26  C   UNL     1      36.605  -3.045 -29.762  0.00  0.00    +0.109 C 
BRANCH  26  28
ATOM     27  O   UNL     1      38.718  -1.852 -29.964  0.00  0.00    -0.250 OA
ATOM     28  C   UNL     1      37.748  -2.175 -29.293  0.00  0.00    +0.314 C 
BRANCH  28  29
ATOM     29  O   UNL     1      37.578  -1.786 -28.001  0.00  0.00    -0.480 OA
ATOM     30  H   UNL     1      36.821  -1.290 -27.758  0.00  0.00    +0.295 HD
ENDBRANCH  28  29
ENDBRANCH  26  28
ENDBRANCH  25  26
ENDBRANCH  23  25
ENDBRANCH   9  23
TORSDOF 5
ENDMDL
MODEL 7
REMARK VINA RESULT:      -6.9     11.903     18.877
REMARK  Name = 6674
REMARK  5 active torsions:
REMARK  status: ('A' for Active; 'I' for Inactive)
REMARK    1  A    between atoms: C_9  and  C_23
REMARK    2  A    between atoms: C_23  and  C_25
REMARK    3  A    between atoms: C_25  and  C_26
REMARK    4  A    between atoms: C_26  and  C_28
REMARK    5  A    between atoms: C_28  and  O_29
REMARK                            x       y       z     vdW  Elec       q    Type
REMARK                         _______ _______ _______ _____ _____    ______ ____
ROOT
ATOM      1  O   UNL     1      31.735  -8.100 -24.176  0.00  0.00    -0.296 OA
ATOM      2  O   UNL     1      31.320  -2.120 -24.229  0.00  0.00    -0.296 OA
ATOM      3  O   UNL     1      32.358  -3.425 -30.000  0.00  0.00    -0.296 OA
ATOM      4  C   UNL     1      31.655  -4.767 -23.252  0.00  0.00    +0.013 C 
ATOM      5  C   UNL     1      32.075  -6.171 -22.757  0.00  0.00    +0.052 C 
ATOM      6  C   UNL     1      32.736  -4.094 -24.107  0.00  0.00    +0.058 C 
ATOM      7  C   UNL     1      33.001  -4.973 -25.372  0.00  0.00    +0.014 C 
ATOM      8  C   UNL     1      34.085  -4.334 -26.321  0.00  0.00    +0.002 C 
ATOM      9  C   UNL     1      30.835  -6.524 -21.906  0.00  0.00    +0.007 C 
ATOM     10  C   UNL     1      31.188  -4.084 -21.969  0.00  0.00    +0.001 C 
ATOM     11  C   UNL     1      33.645  -2.882 -26.716  0.00  0.00    +0.015 C 
ATOM     12  C   UNL     1      33.271  -6.454 -25.023  0.00  0.00    +0.065 C 
ATOM     13  C   UNL     1      30.511  -5.207 -21.167  0.00  0.00    +0.000 C 
ATOM     14  C   UNL     1      32.276  -7.008 -24.012  0.00  0.00    +0.150 C 
ATOM     15  C   UNL     1      32.346  -2.697 -24.583  0.00  0.00    +0.150 C 
ATOM     16  C   UNL     1      33.342  -2.011 -25.491  0.00  0.00    +0.065 C 
ATOM     17  C   UNL     1      34.292  -5.150 -27.631  0.00  0.00    +0.008 C 
ATOM     18  C   UNL     1      33.374  -6.215 -21.927  0.00  0.00    +0.007 C 
ATOM     19  C   UNL     1      35.471  -4.278 -25.626  0.00  0.00    +0.000 C 
ATOM     20  C   UNL     1      32.439  -2.855 -27.675  0.00  0.00    +0.065 C 
ATOM     21  C   UNL     1      33.078  -5.183 -28.543  0.00  0.00    +0.065 C 
ATOM     22  C   UNL     1      32.639  -3.775 -28.855  0.00  0.00    +0.151 C 
ENDROOT
BRANCH   9  23
ATOM     23  C   UNL     1      30.976  -7.703 -20.951  0.00  0.00    +0.001 C 
ATOM     24  C   UNL     1      31.988  -7.368 -19.852  0.00  0.00    +0.000 C 
BRANCH  23  25
ATOM     25  C   UNL     1      31.366  -8.973 -21.732  0.00  0.00    +0.012 C 
BRANCH  25  26
ATOM     26  C   UNL     1      30.791 -10.262 -21.141  0.00  0.00    +0.109 C 
BRANCH  26  28
ATOM     27  O   UNL     1      31.558 -12.571 -21.038  0.00  0.00    -0.250 OA
ATOM     28  C   UNL     1      31.557 -11.483 -21.596  0.00  0.00    +0.314 C 
BRANCH  28  29
ATOM     29  O   UNL     1      32.274 -11.227 -22.723  0.00  0.00    -0.480 OA
ATOM     30  H   UNL     1      32.777 -11.909 -23.122  0.00  0.00    +0.295 HD
ENDBRANCH  28  29
ENDBRANCH  26  28
ENDBRANCH  25  26
ENDBRANCH  23  25
ENDBRANCH   9  23
TORSDOF 5
ENDMDL
MODEL 8
REMARK VINA RESULT:      -6.5     15.902     20.153
REMARK  Name = 6674
REMARK  5 active torsions:
REMARK  status: ('A' for Active; 'I' for Inactive)
REMARK    1  A    between atoms: C_9  and  C_23
REMARK    2  A    between atoms: C_23  and  C_25
REMARK    3  A    between atoms: C_25  and  C_26
REMARK    4  A    between atoms: C_26  and  C_28
REMARK    5  A    between atoms: C_28  and  O_29
REMARK                            x       y       z     vdW  Elec       q    Type
REMARK                         _______ _______ _______ _____ _____    ______ ____
ROOT
ATOM      1  O   UNL     1      34.734  -5.443 -23.652  0.00  0.00    -0.296 OA
ATOM      2  O   UNL     1      32.897  -6.298 -29.294  0.00  0.00    -0.296 OA
ATOM      3  O   UNL     1      38.715  -4.969 -29.984  0.00  0.00    -0.296 OA
ATOM      4  C   UNL     1      32.800  -5.801 -26.498  0.00  0.00    +0.013 C 
ATOM      5  C   UNL     1      32.756  -5.296 -25.036  0.00  0.00    +0.052 C 
ATOM      6  C   UNL     1      33.332  -4.745 -27.474  0.00  0.00    +0.058 C 
ATOM      7  C   UNL     1      34.795  -4.372 -27.067  0.00  0.00    +0.014 C 
ATOM      8  C   UNL     1      35.428  -3.307 -28.040  0.00  0.00    +0.002 C 
ATOM      9  C   UNL     1      32.134  -6.534 -24.355  0.00  0.00    +0.007 C 
ATOM     10  C   UNL     1      31.394  -6.361 -26.702  0.00  0.00    +0.001 C 
ATOM     11  C   UNL     1      35.363  -3.839 -29.514  0.00  0.00    +0.015 C 
ATOM     12  C   UNL     1      34.923  -4.005 -25.572  0.00  0.00    +0.065 C 
ATOM     13  C   UNL     1      31.032  -6.980 -25.342  0.00  0.00    +0.000 C 
ATOM     14  C   UNL     1      34.199  -4.990 -24.663  0.00  0.00    +0.150 C 
ATOM     15  C   UNL     1      33.358  -5.221 -28.924  0.00  0.00    +0.150 C 
ATOM     16  C   UNL     1      33.943  -4.248 -29.924  0.00  0.00    +0.065 C 
ATOM     17  C   UNL     1      36.915  -2.995 -27.705  0.00  0.00    +0.008 C 
ATOM     18  C   UNL     1      31.912  -4.025 -24.805  0.00  0.00    +0.007 C 
ATOM     19  C   UNL     1      34.675  -1.953 -27.952  0.00  0.00    +0.000 C 
ATOM     20  C   UNL     1      36.329  -5.010 -29.777  0.00  0.00    +0.065 C 
ATOM     21  C   UNL     1      37.858  -4.172 -27.896  0.00  0.00    +0.065 C 
ATOM     22  C   UNL     1      37.727  -4.703 -29.301  0.00  0.00    +0.151 C 
ENDROOT
BRANCH   9  23
ATOM     23  C   UNL     1      31.599  -6.339 -22.942  0.00  0.00    +0.001 C 
ATOM     24  C   UNL     1      31.748  -7.637 -22.143  0.00  0.00    +0.000 C 
BRANCH  23  25
ATOM     25  C   UNL     1      30.137  -5.853 -22.992  0.00  0.00    +0.012 C 
BRANCH  25  26
ATOM     26  C   UNL     1      29.720  -5.028 -21.772  0.00  0.00    +0.109 C 
BRANCH  26  28
ATOM     27  O   UNL     1      29.577  -2.648 -22.266  0.00  0.00    -0.250 OA
ATOM     28  C   UNL     1      30.220  -3.604 -21.858  0.00  0.00    +0.314 C 
BRANCH  28  29
ATOM     29  O   UNL     1      31.504  -3.502 -21.424  0.00  0.00    -0.480 OA
ATOM     30  H   UNL     1      32.208  -3.502 -22.042  0.00  0.00    +0.295 HD
ENDBRANCH  28  29
ENDBRANCH  26  28
ENDBRANCH  25  26
ENDBRANCH  23  25
ENDBRANCH   9  23
TORSDOF 5
ENDMDL
MODEL 9
REMARK VINA RESULT:      -6.5     10.198     14.772
REMARK  Name = 6674
REMARK  5 active torsions:
REMARK  status: ('A' for Active; 'I' for Inactive)
REMARK    1  A    between atoms: C_9  and  C_23
REMARK    2  A    between atoms: C_23  and  C_25
REMARK    3  A    between atoms: C_25  and  C_26
REMARK    4  A    between atoms: C_26  and  C_28
REMARK    5  A    between atoms: C_28  and  O_29
REMARK                            x       y       z     vdW  Elec       q    Type
REMARK                         _______ _______ _______ _____ _____    ______ ____
ROOT
ATOM      1  O   UNL     1      33.278  -7.390 -24.295  0.00  0.00    -0.296 OA
ATOM      2  O   UNL     1      32.208  -8.811 -18.570  0.00  0.00    -0.296 OA
ATOM      3  O   UNL     1      34.249 -13.978 -20.856  0.00  0.00    -0.296 OA
ATOM      4  C   UNL     1      32.119  -7.400 -21.036  0.00  0.00    +0.013 C 
ATOM      5  C   UNL     1      31.876  -6.767 -22.425  0.00  0.00    +0.052 C 
ATOM      6  C   UNL     1      31.417  -8.753 -20.869  0.00  0.00    +0.058 C 
ATOM      7  C   UNL     1      31.976  -9.748 -21.938  0.00  0.00    +0.014 C 
ATOM      8  C   UNL     1      31.321 -11.176 -21.817  0.00  0.00    +0.002 C 
ATOM      9  C   UNL     1      32.639  -5.437 -22.239  0.00  0.00    +0.007 C 
ATOM     10  C   UNL     1      31.773  -6.259 -20.081  0.00  0.00    +0.001 C 
ATOM     11  C   UNL     1      31.526 -11.725 -20.363  0.00  0.00    +0.015 C 
ATOM     12  C   UNL     1      31.945  -9.165 -23.368  0.00  0.00    +0.065 C 
ATOM     13  C   UNL     1      32.263  -4.996 -20.808  0.00  0.00    +0.000 C 
ATOM     14  C   UNL     1      32.474  -7.738 -23.431  0.00  0.00    +0.150 C 
ATOM     15  C   UNL     1      31.628  -9.378 -19.493  0.00  0.00    +0.150 C 
ATOM     16  C   UNL     1      31.019 -10.749 -19.294  0.00  0.00    +0.065 C 
ATOM     17  C   UNL     1      31.934 -12.204 -22.813  0.00  0.00    +0.008 C 
ATOM     18  C   UNL     1      30.395  -6.535 -22.792  0.00  0.00    +0.007 C 
ATOM     19  C   UNL     1      29.804 -11.123 -22.136  0.00  0.00    +0.000 C 
ATOM     20  C   UNL     1      32.988 -12.104 -20.059  0.00  0.00    +0.065 C 
ATOM     21  C   UNL     1      33.398 -12.523 -22.556  0.00  0.00    +0.065 C 
ATOM     22  C   UNL     1      33.574 -12.987 -21.133  0.00  0.00    +0.151 C 
ENDROOT
BRANCH   9  23
ATOM     23  C   UNL     1      32.372  -4.346 -23.269  0.00  0.00    +0.001 C 
ATOM     24  C   UNL     1      30.929  -4.446 -23.773  0.00  0.00    +0.000 C 
BRANCH  23  25
ATOM     25  C   UNL     1      33.395  -4.441 -24.418  0.00  0.00    +0.012 C 
BRANCH  25  26
ATOM     26  C   UNL     1      32.848  -3.980 -25.771  0.00  0.00    +0.109 C 
BRANCH  26  28
ATOM     27  O   UNL     1      33.828  -4.978 -27.764  0.00  0.00    -0.250 OA
ATOM     28  C   UNL     1      33.029  -5.033 -26.840  0.00  0.00    +0.314 C 
BRANCH  28  29
ATOM     29  O   UNL     1      32.175  -6.075 -26.660  0.00  0.00    -0.480 OA
ATOM     30  H   UNL     1      31.444  -5.986 -26.081  0.00  0.00    +0.295 HD
ENDBRANCH  28  29
ENDBRANCH  26  28
ENDBRANCH  25  26
ENDBRANCH  23  25
ENDBRANCH   9  23
TORSDOF 5
ENDMDL
