MODEL 1
REMARK VINA RESULT:     -11.8      0.000      0.000
REMARK  Name = 11987888
REMARK  9 active torsions:
REMARK  status: ('A' for Active; 'I' for Inactive)
REMARK    1  A    between atoms: N_2  and  C_30
REMARK    2  A    between atoms: C_10  and  O_23
REMARK    3  A    between atoms: C_12  and  C_14
REMARK    4  A    between atoms: C_17  and  N_22
REMARK    5  A    between atoms: O_23  and  C_25
REMARK    6  A    between atoms: C_25  and  C_26
REMARK    7  A    between atoms: C_30  and  C_31
REMARK    8  A    between atoms: C_31  and  C_32
REMARK    9  A    between atoms: C_32  and  O_33
REMARK                            x       y       z     vdW  Elec       q    Type
REMARK                         _______ _______ _______ _____ _____    ______ ____
ROOT
ATOM      1  O   UNL     1      36.560 -18.629 -20.406  0.00  0.00    -0.270 OA
ATOM      2  N   UNL     1      34.245 -21.619 -18.413  0.00  0.00    -0.248 N 
ATOM      3  N   UNL     1      36.192 -20.559 -18.242  0.00  0.00    -0.371 NA
ATOM      4  N   UNL     1      34.690 -20.026 -20.089  0.00  0.00    -0.243 N 
ATOM      5  C   UNL     1      34.926 -22.073 -17.307  0.00  0.00    +0.081 C 
ATOM      6  C   UNL     1      36.150 -21.424 -17.178  0.00  0.00    +0.150 C 
ATOM      7  C   UNL     1      35.032 -20.713 -18.950  0.00  0.00    +0.248 C 
ATOM      8  C   UNL     1      34.562 -23.044 -16.358  0.00  0.00    -0.001 C 
ATOM      9  C   UNL     1      37.052 -21.685 -16.145  0.00  0.00    +0.067 C 
ATOM     10  C   UNL     1      36.674 -22.654 -15.210  0.00  0.00    +0.133 C 
ATOM     11  C   UNL     1      35.452 -23.323 -15.312  0.00  0.00    +0.092 C 
ATOM     12  C   UNL     1      35.455 -19.047 -20.736  0.00  0.00    +0.252 C 
ATOM     13  H   UNL     1      33.818 -20.244 -20.491  0.00  0.00    +0.159 HD
ENDROOT
BRANCH  12  14
ATOM     14  C   UNL     1      34.852 -18.488 -21.974  0.00  0.00    +0.055 C 
ATOM     15  C   UNL     1      34.716 -17.107 -22.122  0.00  0.00    +0.029 C 
ATOM     16  C   UNL     1      34.421 -19.343 -22.988  0.00  0.00    +0.005 C 
ATOM     17  C   UNL     1      34.149 -16.582 -23.284  0.00  0.00    +0.143 C 
ATOM     18  C   UNL     1      33.854 -18.819 -24.150  0.00  0.00    +0.002 C 
ATOM     19  C   UNL     1      33.719 -17.438 -24.298  0.00  0.00    +0.024 C 
BRANCH  17  22
ATOM     20  O   UNL     1      34.469 -14.421 -22.545  0.00  0.00    -0.126 OA
ATOM     21  O   UNL     1      33.437 -14.730 -24.458  0.00  0.00    -0.126 OA
ATOM     22  N   UNL     1      34.011 -15.177 -23.436  0.00  0.00    +0.058 N 
ENDBRANCH  17  22
ENDBRANCH  12  14
BRANCH  10  23
ATOM     23  O   UNL     1      37.536 -22.958 -14.154  0.00  0.00    -0.428 OA
BRANCH  23  25
ATOM     24  O   UNL     1      39.384 -23.698 -15.370  0.00  0.00    -0.250 OA
ATOM     25  C   UNL     1      38.534 -23.868 -14.504  0.00  0.00    +0.320 C 
BRANCH  25  26
ATOM     26  C   UNL     1      38.411 -25.126 -13.637  0.00  0.00    +0.090 C 
ATOM     27  C   UNL     1      39.784 -25.798 -13.511  0.00  0.00    +0.011 C 
ATOM     28  C   UNL     1      37.872 -24.743 -12.251  0.00  0.00    +0.011 C 
ATOM     29  C   UNL     1      37.431 -26.108 -14.298  0.00  0.00    +0.011 C 
ENDBRANCH  25  26
ENDBRANCH  23  25
ENDBRANCH  10  23
BRANCH   2  30
ATOM     30  C   UNL     1      32.945 -22.065 -18.859  0.00  0.00    +0.102 C 
BRANCH  30  31
ATOM     31  C   UNL     1      31.782 -21.402 -18.123  0.00  0.00    +0.054 C 
BRANCH  31  32
ATOM     32  C   UNL     1      31.192 -22.272 -17.019  0.00  0.00    +0.139 C 
BRANCH  32  33
ATOM     33  O   UNL     1      29.799 -22.003 -16.922  0.00  0.00    -0.382 OA
ATOM     34  H   UNL     1      29.430 -21.883 -17.810  0.00  0.00    +0.210 HD
ENDBRANCH  32  33
ENDBRANCH  31  32
ENDBRANCH  30  31
ENDBRANCH   2  30
TORSDOF 9
ENDMDL
MODEL 2
REMARK VINA RESULT:     -11.5      2.701      9.711
REMARK  Name = 11987888
REMARK  9 active torsions:
REMARK  status: ('A' for Active; 'I' for Inactive)
REMARK    1  A    between atoms: N_2  and  C_30
REMARK    2  A    between atoms: C_10  and  O_23
REMARK    3  A    between atoms: C_12  and  C_14
REMARK    4  A    between atoms: C_17  and  N_22
REMARK    5  A    between atoms: O_23  and  C_25
REMARK    6  A    between atoms: C_25  and  C_26
REMARK    7  A    between atoms: C_30  and  C_31
REMARK    8  A    between atoms: C_31  and  C_32
REMARK    9  A    between atoms: C_32  and  O_33
REMARK                            x       y       z     vdW  Elec       q    Type
REMARK                         _______ _______ _______ _____ _____    ______ ____
ROOT
ATOM      1  O   UNL     1      37.684 -22.562 -15.809  0.00  0.00    -0.270 OA
ATOM      2  N   UNL     1      33.551 -22.466 -16.893  0.00  0.00    -0.248 N 
ATOM      3  N   UNL     1      35.525 -21.721 -17.591  0.00  0.00    -0.371 NA
ATOM      4  N   UNL     1      35.396 -23.063 -15.558  0.00  0.00    -0.243 N 
ATOM      5  C   UNL     1      33.390 -21.737 -18.049  0.00  0.00    +0.081 C 
ATOM      6  C   UNL     1      34.614 -21.259 -18.506  0.00  0.00    +0.150 C 
ATOM      7  C   UNL     1      34.841 -22.436 -16.647  0.00  0.00    +0.248 C 
ATOM      8  C   UNL     1      32.223 -21.438 -18.773  0.00  0.00    -0.001 C 
ATOM      9  C   UNL     1      34.753 -20.486 -19.660  0.00  0.00    +0.067 C 
ATOM     10  C   UNL     1      33.582 -20.197 -20.369  0.00  0.00    +0.133 C 
ATOM     11  C   UNL     1      32.339 -20.663 -19.935  0.00  0.00    +0.092 C 
ATOM     12  C   UNL     1      36.753 -23.089 -15.210  0.00  0.00    +0.252 C 
ATOM     13  H   UNL     1      34.777 -23.543 -14.961  0.00  0.00    +0.159 HD
ENDROOT
BRANCH  12  14
ATOM     14  C   UNL     1      37.071 -23.821 -13.955  0.00  0.00    +0.055 C 
ATOM     15  C   UNL     1      36.255 -23.669 -12.833  0.00  0.00    +0.029 C 
ATOM     16  C   UNL     1      38.185 -24.657 -13.898  0.00  0.00    +0.005 C 
ATOM     17  C   UNL     1      36.553 -24.355 -11.656  0.00  0.00    +0.143 C 
ATOM     18  C   UNL     1      38.485 -25.343 -12.721  0.00  0.00    +0.002 C 
ATOM     19  C   UNL     1      37.669 -25.192 -11.600  0.00  0.00    +0.024 C 
BRANCH  17  22
ATOM     20  O   UNL     1      34.568 -24.693 -10.532  0.00  0.00    -0.126 OA
ATOM     21  O   UNL     1      36.169 -23.584  -9.517  0.00  0.00    -0.126 OA
ATOM     22  N   UNL     1      35.723 -24.203 -10.514  0.00  0.00    +0.058 N 
ENDBRANCH  17  22
ENDBRANCH  12  14
BRANCH  10  23
ATOM     23  O   UNL     1      33.659 -19.428 -21.531  0.00  0.00    -0.428 OA
BRANCH  23  25
ATOM     24  O   UNL     1      34.246 -17.493 -20.368  0.00  0.00    -0.250 OA
ATOM     25  C   UNL     1      34.337 -18.222 -21.348  0.00  0.00    +0.320 C 
BRANCH  25  26
ATOM     26  C   UNL     1      35.223 -17.940 -22.567  0.00  0.00    +0.090 C 
ATOM     27  C   UNL     1      36.698 -18.099 -22.175  0.00  0.00    +0.011 C 
ATOM     28  C   UNL     1      34.861 -18.909 -23.700  0.00  0.00    +0.011 C 
ATOM     29  C   UNL     1      34.986 -16.499 -23.048  0.00  0.00    +0.011 C 
ENDBRANCH  25  26
ENDBRANCH  23  25
ENDBRANCH  10  23
BRANCH   2  30
ATOM     30  C   UNL     1      32.502 -23.113 -16.138  0.00  0.00    +0.102 C 
BRANCH  30  31
ATOM     31  C   UNL     1      32.297 -22.526 -14.742  0.00  0.00    +0.054 C 
BRANCH  31  32
ATOM     32  C   UNL     1      32.233 -23.584 -13.647  0.00  0.00    +0.139 C 
BRANCH  32  33
ATOM     33  O   UNL     1      32.859 -23.068 -12.478  0.00  0.00    -0.382 OA
ATOM     34  H   UNL     1      32.276 -22.414 -12.061  0.00  0.00    +0.210 HD
ENDBRANCH  32  33
ENDBRANCH  31  32
ENDBRANCH  30  31
ENDBRANCH   2  30
TORSDOF 9
ENDMDL
MODEL 3
REMARK VINA RESULT:     -11.0      1.058      1.512
REMARK  Name = 11987888
REMARK  9 active torsions:
REMARK  status: ('A' for Active; 'I' for Inactive)
REMARK    1  A    between atoms: N_2  and  C_30
REMARK    2  A    between atoms: C_10  and  O_23
REMARK    3  A    between atoms: C_12  and  C_14
REMARK    4  A    between atoms: C_17  and  N_22
REMARK    5  A    between atoms: O_23  and  C_25
REMARK    6  A    between atoms: C_25  and  C_26
REMARK    7  A    between atoms: C_30  and  C_31
REMARK    8  A    between atoms: C_31  and  C_32
REMARK    9  A    between atoms: C_32  and  O_33
REMARK                            x       y       z     vdW  Elec       q    Type
REMARK                         _______ _______ _______ _____ _____    ______ ____
ROOT
ATOM      1  O   UNL     1      36.592 -18.477 -20.464  0.00  0.00    -0.270 OA
ATOM      2  N   UNL     1      34.436 -21.616 -18.521  0.00  0.00    -0.248 N 
ATOM      3  N   UNL     1      36.311 -20.440 -18.316  0.00  0.00    -0.371 NA
ATOM      4  N   UNL     1      34.806 -19.988 -20.182  0.00  0.00    -0.243 N 
ATOM      5  C   UNL     1      35.128 -22.035 -17.408  0.00  0.00    +0.081 C 
ATOM      6  C   UNL     1      36.308 -21.312 -17.258  0.00  0.00    +0.150 C 
ATOM      7  C   UNL     1      35.173 -20.660 -19.042  0.00  0.00    +0.248 C 
ATOM      8  C   UNL     1      34.810 -23.032 -16.470  0.00  0.00    -0.001 C 
ATOM      9  C   UNL     1      37.209 -21.525 -16.213  0.00  0.00    +0.067 C 
ATOM     10  C   UNL     1      36.878 -22.521 -15.289  0.00  0.00    +0.133 C 
ATOM     11  C   UNL     1      35.701 -23.263 -15.413  0.00  0.00    +0.092 C 
ATOM     12  C   UNL     1      35.519 -18.960 -20.812  0.00  0.00    +0.252 C 
ATOM     13  H   UNL     1      33.955 -20.256 -20.598  0.00  0.00    +0.159 HD
ENDROOT
BRANCH  12  14
ATOM     14  C   UNL     1      34.900 -18.430 -22.056  0.00  0.00    +0.055 C 
ATOM     15  C   UNL     1      34.766 -17.053 -22.238  0.00  0.00    +0.029 C 
ATOM     16  C   UNL     1      34.453 -19.310 -23.041  0.00  0.00    +0.005 C 
ATOM     17  C   UNL     1      34.185 -16.556 -23.404  0.00  0.00    +0.143 C 
ATOM     18  C   UNL     1      33.870 -18.814 -24.209  0.00  0.00    +0.002 C 
ATOM     19  C   UNL     1      33.738 -17.437 -24.390  0.00  0.00    +0.024 C 
BRANCH  17  22
ATOM     20  O   UNL     1      34.418 -14.382 -22.674  0.00  0.00    -0.126 OA
ATOM     21  O   UNL     1      33.567 -14.730 -24.668  0.00  0.00    -0.126 OA
ATOM     22  N   UNL     1      34.050 -15.156 -23.591  0.00  0.00    +0.058 N 
ENDBRANCH  17  22
ENDBRANCH  12  14
BRANCH  10  23
ATOM     23  O   UNL     1      37.743 -22.778 -14.223  0.00  0.00    -0.428 OA
BRANCH  23  25
ATOM     24  O   UNL     1      36.253 -23.260 -12.494  0.00  0.00    -0.250 OA
ATOM     25  C   UNL     1      37.173 -23.583 -13.236  0.00  0.00    +0.320 C 
BRANCH  25  26
ATOM     26  C   UNL     1      37.873 -24.947 -13.215  0.00  0.00    +0.090 C 
ATOM     27  C   UNL     1      37.849 -25.513 -11.790  0.00  0.00    +0.011 C 
ATOM     28  C   UNL     1      37.162 -25.902 -14.184  0.00  0.00    +0.011 C 
ATOM     29  C   UNL     1      39.333 -24.778 -13.663  0.00  0.00    +0.011 C 
ENDBRANCH  25  26
ENDBRANCH  23  25
ENDBRANCH  10  23
BRANCH   2  30
ATOM     30  C   UNL     1      33.172 -22.137 -18.988  0.00  0.00    +0.102 C 
BRANCH  30  31
ATOM     31  C   UNL     1      31.960 -21.351 -18.490  0.00  0.00    +0.054 C 
BRANCH  31  32
ATOM     32  C   UNL     1      31.657 -20.115 -19.329  0.00  0.00    +0.139 C 
BRANCH  32  33
ATOM     33  O   UNL     1      31.960 -20.401 -20.689  0.00  0.00    -0.382 OA
ATOM     34  H   UNL     1      31.650 -21.293 -20.908  0.00  0.00    +0.210 HD
ENDBRANCH  32  33
ENDBRANCH  31  32
ENDBRANCH  30  31
ENDBRANCH   2  30
TORSDOF 9
ENDMDL
MODEL 4
REMARK VINA RESULT:     -10.4      1.561      2.008
REMARK  Name = 11987888
REMARK  9 active torsions:
REMARK  status: ('A' for Active; 'I' for Inactive)
REMARK    1  A    between atoms: N_2  and  C_30
REMARK    2  A    between atoms: C_10  and  O_23
REMARK    3  A    between atoms: C_12  and  C_14
REMARK    4  A    between atoms: C_17  and  N_22
REMARK    5  A    between atoms: O_23  and  C_25
REMARK    6  A    between atoms: C_25  and  C_26
REMARK    7  A    between atoms: C_30  and  C_31
REMARK    8  A    between atoms: C_31  and  C_32
REMARK    9  A    between atoms: C_32  and  O_33
REMARK                            x       y       z     vdW  Elec       q    Type
REMARK                         _______ _______ _______ _____ _____    ______ ____
ROOT
ATOM      1  O   UNL     1      36.671 -18.324 -20.258  0.00  0.00    -0.270 OA
ATOM      2  N   UNL     1      34.360 -21.464 -18.506  0.00  0.00    -0.248 N 
ATOM      3  N   UNL     1      36.305 -20.418 -18.252  0.00  0.00    -0.371 NA
ATOM      4  N   UNL     1      34.803 -19.745 -20.052  0.00  0.00    -0.243 N 
ATOM      5  C   UNL     1      35.041 -22.002 -17.438  0.00  0.00    +0.081 C 
ATOM      6  C   UNL     1      36.264 -21.363 -17.259  0.00  0.00    +0.150 C 
ATOM      7  C   UNL     1      35.145 -20.518 -18.970  0.00  0.00    +0.248 C 
ATOM      8  C   UNL     1      34.678 -23.045 -16.568  0.00  0.00    -0.001 C 
ATOM      9  C   UNL     1      37.166 -21.702 -16.248  0.00  0.00    +0.067 C 
ATOM     10  C   UNL     1      36.789 -22.742 -15.392  0.00  0.00    +0.133 C 
ATOM     11  C   UNL     1      35.568 -23.403 -15.547  0.00  0.00    +0.092 C 
ATOM     12  C   UNL     1      35.567 -18.717 -20.621  0.00  0.00    +0.252 C 
ATOM     13  H   UNL     1      33.931 -19.932 -20.471  0.00  0.00    +0.159 HD
ENDROOT
BRANCH  12  14
ATOM     14  C   UNL     1      34.963 -18.063 -21.812  0.00  0.00    +0.055 C 
ATOM     15  C   UNL     1      34.245 -18.823 -22.737  0.00  0.00    +0.029 C 
ATOM     16  C   UNL     1      35.114 -16.691 -22.005  0.00  0.00    +0.005 C 
ATOM     17  C   UNL     1      33.679 -18.210 -23.854  0.00  0.00    +0.143 C 
ATOM     18  C   UNL     1      34.549 -16.076 -23.124  0.00  0.00    +0.002 C 
ATOM     19  C   UNL     1      33.831 -16.837 -24.047  0.00  0.00    +0.024 C 
BRANCH  17  22
ATOM     20  O   UNL     1      31.831 -18.565 -25.187  0.00  0.00    -0.126 OA
ATOM     21  O   UNL     1      33.440 -20.059 -25.211  0.00  0.00    -0.126 OA
ATOM     22  N   UNL     1      32.948 -18.982 -24.795  0.00  0.00    +0.058 N 
ENDBRANCH  17  22
ENDBRANCH  12  14
BRANCH  10  23
ATOM     23  O   UNL     1      37.652 -23.126 -14.363  0.00  0.00    -0.428 OA
BRANCH  23  25
ATOM     24  O   UNL     1      36.088 -23.366 -12.650  0.00  0.00    -0.250 OA
ATOM     25  C   UNL     1      37.007 -23.806 -13.331  0.00  0.00    +0.320 C 
BRANCH  25  26
ATOM     26  C   UNL     1      37.621 -25.202 -13.170  0.00  0.00    +0.090 C 
ATOM     27  C   UNL     1      39.127 -25.135 -13.453  0.00  0.00    +0.011 C 
ATOM     28  C   UNL     1      37.365 -25.713 -11.745  0.00  0.00    +0.011 C 
ATOM     29  C   UNL     1      36.966 -26.167 -14.171  0.00  0.00    +0.011 C 
ENDBRANCH  25  26
ENDBRANCH  23  25
ENDBRANCH  10  23
BRANCH   2  30
ATOM     30  C   UNL     1      33.061 -21.876 -18.986  0.00  0.00    +0.102 C 
BRANCH  30  31
ATOM     31  C   UNL     1      31.896 -21.280 -18.197  0.00  0.00    +0.054 C 
BRANCH  31  32
ATOM     32  C   UNL     1      31.359 -22.213 -17.118  0.00  0.00    +0.139 C 
BRANCH  32  33
ATOM     33  O   UNL     1      29.964 -21.980 -16.966  0.00  0.00    -0.382 OA
ATOM     34  H   UNL     1      29.571 -22.698 -16.446  0.00  0.00    +0.210 HD
ENDBRANCH  32  33
ENDBRANCH  31  32
ENDBRANCH  30  31
ENDBRANCH   2  30
TORSDOF 9
ENDMDL
MODEL 5
REMARK VINA RESULT:     -10.4      2.150      9.849
REMARK  Name = 11987888
REMARK  9 active torsions:
REMARK  status: ('A' for Active; 'I' for Inactive)
REMARK    1  A    between atoms: N_2  and  C_30
REMARK    2  A    between atoms: C_10  and  O_23
REMARK    3  A    between atoms: C_12  and  C_14
REMARK    4  A    between atoms: C_17  and  N_22
REMARK    5  A    between atoms: O_23  and  C_25
REMARK    6  A    between atoms: C_25  and  C_26
REMARK    7  A    between atoms: C_30  and  C_31
REMARK    8  A    between atoms: C_31  and  C_32
REMARK    9  A    between atoms: C_32  and  O_33
REMARK                            x       y       z     vdW  Elec       q    Type
REMARK                         _______ _______ _______ _____ _____    ______ ____
ROOT
ATOM      1  O   UNL     1      37.831 -20.939 -16.321  0.00  0.00    -0.270 OA
ATOM      2  N   UNL     1      34.479 -21.405 -18.932  0.00  0.00    -0.248 N 
ATOM      3  N   UNL     1      36.280 -20.130 -18.663  0.00  0.00    -0.371 NA
ATOM      4  N   UNL     1      35.835 -21.934 -17.082  0.00  0.00    -0.243 N 
ATOM      5  C   UNL     1      34.532 -20.458 -19.929  0.00  0.00    +0.081 C 
ATOM      6  C   UNL     1      35.652 -19.647 -19.782  0.00  0.00    +0.150 C 
ATOM      7  C   UNL     1      35.541 -21.180 -18.191  0.00  0.00    +0.248 C 
ATOM      8  C   UNL     1      33.654 -20.228 -21.003  0.00  0.00    -0.001 C 
ATOM      9  C   UNL     1      35.961 -18.599 -20.653  0.00  0.00    +0.067 C 
ATOM     10  C   UNL     1      35.076 -18.383 -21.715  0.00  0.00    +0.133 C 
ATOM     11  C   UNL     1      33.943 -19.182 -21.889  0.00  0.00    +0.092 C 
ATOM     12  C   UNL     1      36.937 -21.774 -16.231  0.00  0.00    +0.252 C 
ATOM     13  H   UNL     1      35.209 -22.660 -16.862  0.00  0.00    +0.159 HD
ENDROOT
BRANCH  12  14
ATOM     14  C   UNL     1      36.992 -22.715 -15.081  0.00  0.00    +0.055 C 
ATOM     15  C   UNL     1      37.857 -23.810 -15.115  0.00  0.00    +0.029 C 
ATOM     16  C   UNL     1      36.177 -22.506 -13.969  0.00  0.00    +0.005 C 
ATOM     17  C   UNL     1      37.908 -24.693 -14.037  0.00  0.00    +0.143 C 
ATOM     18  C   UNL     1      36.226 -23.390 -12.891  0.00  0.00    +0.002 C 
ATOM     19  C   UNL     1      37.092 -24.483 -12.925  0.00  0.00    +0.024 C 
BRANCH  17  22
ATOM     20  O   UNL     1      39.996 -25.635 -13.769  0.00  0.00    -0.126 OA
ATOM     21  O   UNL     1      38.337 -26.930 -14.397  0.00  0.00    -0.126 OA
ATOM     22  N   UNL     1      38.789 -25.805 -14.070  0.00  0.00    +0.058 N 
ENDBRANCH  17  22
ENDBRANCH  12  14
BRANCH  10  23
ATOM     23  O   UNL     1      35.333 -17.350 -22.618  0.00  0.00    -0.428 OA
BRANCH  23  25
ATOM     24  O   UNL     1      34.512 -15.666 -21.227  0.00  0.00    -0.250 OA
ATOM     25  C   UNL     1      34.624 -16.183 -22.333  0.00  0.00    +0.320 C 
BRANCH  25  26
ATOM     26  C   UNL     1      33.997 -15.634 -23.620  0.00  0.00    +0.090 C 
ATOM     27  C   UNL     1      35.106 -15.142 -24.560  0.00  0.00    +0.011 C 
ATOM     28  C   UNL     1      33.169 -16.734 -24.297  0.00  0.00    +0.011 C 
ATOM     29  C   UNL     1      33.073 -14.455 -23.276  0.00  0.00    +0.011 C 
ENDBRANCH  25  26
ENDBRANCH  23  25
ENDBRANCH  10  23
BRANCH   2  30
ATOM     30  C   UNL     1      33.460 -22.415 -18.766  0.00  0.00    +0.102 C 
BRANCH  30  31
ATOM     31  C   UNL     1      32.350 -22.016 -17.795  0.00  0.00    +0.054 C 
BRANCH  31  32
ATOM     32  C   UNL     1      32.337 -22.849 -16.519  0.00  0.00    +0.139 C 
BRANCH  32  33
ATOM     33  O   UNL     1      33.590 -23.511 -16.393  0.00  0.00    -0.382 OA
ATOM     34  H   UNL     1      34.223 -22.922 -15.954  0.00  0.00    +0.210 HD
ENDBRANCH  32  33
ENDBRANCH  31  32
ENDBRANCH  30  31
ENDBRANCH   2  30
TORSDOF 9
ENDMDL
MODEL 6
REMARK VINA RESULT:     -10.2      2.196      9.707
REMARK  Name = 11987888
REMARK  9 active torsions:
REMARK  status: ('A' for Active; 'I' for Inactive)
REMARK    1  A    between atoms: N_2  and  C_30
REMARK    2  A    between atoms: C_10  and  O_23
REMARK    3  A    between atoms: C_12  and  C_14
REMARK    4  A    between atoms: C_17  and  N_22
REMARK    5  A    between atoms: O_23  and  C_25
REMARK    6  A    between atoms: C_25  and  C_26
REMARK    7  A    between atoms: C_30  and  C_31
REMARK    8  A    between atoms: C_31  and  C_32
REMARK    9  A    between atoms: C_32  and  O_33
REMARK                            x       y       z     vdW  Elec       q    Type
REMARK                         _______ _______ _______ _____ _____    ______ ____
ROOT
ATOM      1  O   UNL     1      37.766 -20.999 -16.314  0.00  0.00    -0.270 OA
ATOM      2  N   UNL     1      34.442 -21.392 -18.972  0.00  0.00    -0.248 N 
ATOM      3  N   UNL     1      36.250 -20.137 -18.659  0.00  0.00    -0.371 NA
ATOM      4  N   UNL     1      35.772 -21.964 -17.115  0.00  0.00    -0.243 N 
ATOM      5  C   UNL     1      34.515 -20.428 -19.952  0.00  0.00    +0.081 C 
ATOM      6  C   UNL     1      35.640 -19.629 -19.777  0.00  0.00    +0.150 C 
ATOM      7  C   UNL     1      35.497 -21.188 -18.215  0.00  0.00    +0.248 C 
ATOM      8  C   UNL     1      33.652 -20.172 -21.032  0.00  0.00    -0.001 C 
ATOM      9  C   UNL     1      35.967 -18.570 -20.626  0.00  0.00    +0.067 C 
ATOM     10  C   UNL     1      35.097 -18.328 -21.695  0.00  0.00    +0.133 C 
ATOM     11  C   UNL     1      33.960 -19.114 -21.896  0.00  0.00    +0.092 C 
ATOM     12  C   UNL     1      36.865 -21.828 -16.248  0.00  0.00    +0.252 C 
ATOM     13  H   UNL     1      35.136 -22.689 -16.915  0.00  0.00    +0.159 HD
ENDROOT
BRANCH  12  14
ATOM     14  C   UNL     1      36.897 -22.790 -15.115  0.00  0.00    +0.055 C 
ATOM     15  C   UNL     1      35.843 -22.828 -14.201  0.00  0.00    +0.029 C 
ATOM     16  C   UNL     1      37.982 -23.653 -14.964  0.00  0.00    +0.005 C 
ATOM     17  C   UNL     1      35.874 -23.730 -13.138  0.00  0.00    +0.143 C 
ATOM     18  C   UNL     1      38.014 -24.555 -13.900  0.00  0.00    +0.002 C 
ATOM     19  C   UNL     1      36.960 -24.594 -12.988  0.00  0.00    +0.024 C 
BRANCH  17  22
ATOM     20  O   UNL     1      33.635 -23.955 -12.634  0.00  0.00    -0.126 OA
ATOM     21  O   UNL     1      35.050 -23.627 -10.987  0.00  0.00    -0.126 OA
ATOM     22  N   UNL     1      34.802 -23.772 -12.209  0.00  0.00    +0.058 N 
ENDBRANCH  17  22
ENDBRANCH  12  14
BRANCH  10  23
ATOM     23  O   UNL     1      35.373 -17.281 -22.576  0.00  0.00    -0.428 OA
BRANCH  23  25
ATOM     24  O   UNL     1      34.510 -15.603 -21.205  0.00  0.00    -0.250 OA
ATOM     25  C   UNL     1      34.639 -16.127 -22.305  0.00  0.00    +0.320 C 
BRANCH  25  26
ATOM     26  C   UNL     1      34.009 -15.601 -23.601  0.00  0.00    +0.090 C 
ATOM     27  C   UNL     1      35.117 -15.191 -24.580  0.00  0.00    +0.011 C 
ATOM     28  C   UNL     1      33.123 -16.691 -24.219  0.00  0.00    +0.011 C 
ATOM     29  C   UNL     1      33.141 -14.373 -23.285  0.00  0.00    +0.011 C 
ENDBRANCH  25  26
ENDBRANCH  23  25
ENDBRANCH  10  23
BRANCH   2  30
ATOM     30  C   UNL     1      33.413 -22.396 -18.835  0.00  0.00    +0.102 C 
BRANCH  30  31
ATOM     31  C   UNL     1      32.291 -22.001 -17.876  0.00  0.00    +0.054 C 
BRANCH  31  32
ATOM     32  C   UNL     1      32.310 -22.788 -16.570  0.00  0.00    +0.139 C 
BRANCH  32  33
ATOM     33  O   UNL     1      33.470 -23.610 -16.550  0.00  0.00    -0.382 OA
ATOM     34  H   UNL     1      33.542 -24.046 -15.686  0.00  0.00    +0.210 HD
ENDBRANCH  32  33
ENDBRANCH  31  32
ENDBRANCH  30  31
ENDBRANCH   2  30
TORSDOF 9
ENDMDL
MODEL 7
REMARK VINA RESULT:     -10.0      7.427     13.870
REMARK  Name = 11987888
REMARK  9 active torsions:
REMARK  status: ('A' for Active; 'I' for Inactive)
REMARK    1  A    between atoms: N_2  and  C_30
REMARK    2  A    between atoms: C_10  and  O_23
REMARK    3  A    between atoms: C_12  and  C_14
REMARK    4  A    between atoms: C_17  and  N_22
REMARK    5  A    between atoms: O_23  and  C_25
REMARK    6  A    between atoms: C_25  and  C_26
REMARK    7  A    between atoms: C_30  and  C_31
REMARK    8  A    between atoms: C_31  and  C_32
REMARK    9  A    between atoms: C_32  and  O_33
REMARK                            x       y       z     vdW  Elec       q    Type
REMARK                         _______ _______ _______ _____ _____    ______ ____
ROOT
ATOM      1  O   UNL     1      33.241 -13.332 -25.113  0.00  0.00    -0.270 OA
ATOM      2  N   UNL     1      32.054 -11.399 -21.490  0.00  0.00    -0.248 N 
ATOM      3  N   UNL     1      32.359 -10.962 -23.648  0.00  0.00    -0.371 NA
ATOM      4  N   UNL     1      32.768 -13.215 -22.808  0.00  0.00    -0.243 N 
ATOM      5  C   UNL     1      31.768 -10.076 -21.742  0.00  0.00    +0.081 C 
ATOM      6  C   UNL     1      31.952  -9.778 -23.088  0.00  0.00    +0.150 C 
ATOM      7  C   UNL     1      32.405 -11.899 -22.654  0.00  0.00    +0.248 C 
ATOM      8  C   UNL     1      31.343  -9.062 -20.866  0.00  0.00    -0.001 C 
ATOM      9  C   UNL     1      31.734  -8.509 -23.629  0.00  0.00    +0.067 C 
ATOM     10  C   UNL     1      31.312  -7.512 -22.744  0.00  0.00    +0.133 C 
ATOM     11  C   UNL     1      31.119  -7.781 -21.387  0.00  0.00    +0.092 C 
ATOM     12  C   UNL     1      33.156 -13.841 -24.000  0.00  0.00    +0.252 C 
ATOM     13  H   UNL     1      32.755 -13.775 -21.998  0.00  0.00    +0.159 HD
ENDROOT
BRANCH  12  14
ATOM     14  C   UNL     1      33.529 -15.275 -23.870  0.00  0.00    +0.055 C 
ATOM     15  C   UNL     1      34.363 -15.688 -22.830  0.00  0.00    +0.029 C 
ATOM     16  C   UNL     1      33.045 -16.206 -24.788  0.00  0.00    +0.005 C 
ATOM     17  C   UNL     1      34.712 -17.032 -22.709  0.00  0.00    +0.143 C 
ATOM     18  C   UNL     1      33.395 -17.552 -24.668  0.00  0.00    +0.002 C 
ATOM     19  C   UNL     1      34.228 -17.965 -23.628  0.00  0.00    +0.024 C 
BRANCH  17  22
ATOM     20  O   UNL     1      36.594 -18.111 -21.926  0.00  0.00    -0.126 OA
ATOM     21  O   UNL     1      35.254 -17.157 -20.471  0.00  0.00    -0.126 OA
ATOM     22  N   UNL     1      35.560 -17.454 -21.651  0.00  0.00    +0.058 N 
ENDBRANCH  17  22
ENDBRANCH  12  14
BRANCH  10  23
ATOM     23  O   UNL     1      31.079  -6.223 -23.228  0.00  0.00    -0.428 OA
BRANCH  23  25
ATOM     24  O   UNL     1      33.222  -5.482 -22.679  0.00  0.00    -0.250 OA
ATOM     25  C   UNL     1      32.250  -5.491 -23.426  0.00  0.00    +0.320 C 
BRANCH  25  26
ATOM     26  C   UNL     1      32.143  -4.691 -24.730  0.00  0.00    +0.090 C 
ATOM     27  C   UNL     1      31.858  -5.647 -25.895  0.00  0.00    +0.011 C 
ATOM     28  C   UNL     1      31.022  -3.651 -24.602  0.00  0.00    +0.011 C 
ATOM     29  C   UNL     1      33.471  -3.963 -24.993  0.00  0.00    +0.011 C 
ENDBRANCH  25  26
ENDBRANCH  23  25
ENDBRANCH  10  23
BRANCH   2  30
ATOM     30  C   UNL     1      31.976 -12.062 -20.209  0.00  0.00    +0.102 C 
BRANCH  30  31
ATOM     31  C   UNL     1      31.758 -13.570 -20.309  0.00  0.00    +0.054 C 
BRANCH  31  32
ATOM     32  C   UNL     1      32.962 -14.386 -19.853  0.00  0.00    +0.139 C 
BRANCH  32  33
ATOM     33  O   UNL     1      34.147 -13.730 -20.288  0.00  0.00    -0.382 OA
ATOM     34  H   UNL     1      34.133 -13.643 -21.254  0.00  0.00    +0.210 HD
ENDBRANCH  32  33
ENDBRANCH  31  32
ENDBRANCH  30  31
ENDBRANCH   2  30
TORSDOF 9
ENDMDL
MODEL 8
REMARK VINA RESULT:     -10.0      8.816     15.896
REMARK  Name = 11987888
REMARK  9 active torsions:
REMARK  status: ('A' for Active; 'I' for Inactive)
REMARK    1  A    between atoms: N_2  and  C_30
REMARK    2  A    between atoms: C_10  and  O_23
REMARK    3  A    between atoms: C_12  and  C_14
REMARK    4  A    between atoms: C_17  and  N_22
REMARK    5  A    between atoms: O_23  and  C_25
REMARK    6  A    between atoms: C_25  and  C_26
REMARK    7  A    between atoms: C_30  and  C_31
REMARK    8  A    between atoms: C_31  and  C_32
REMARK    9  A    between atoms: C_32  and  O_33
REMARK                            x       y       z     vdW  Elec       q    Type
REMARK                         _______ _______ _______ _____ _____    ______ ____
ROOT
ATOM      1  O   UNL     1      33.701 -11.438 -24.304  0.00  0.00    -0.270 OA
ATOM      2  N   UNL     1      31.300  -8.819 -21.929  0.00  0.00    -0.248 N 
ATOM      3  N   UNL     1      32.354  -8.878 -23.884  0.00  0.00    -0.371 NA
ATOM      4  N   UNL     1      32.436 -10.823 -22.414  0.00  0.00    -0.243 N 
ATOM      5  C   UNL     1      31.123  -7.625 -22.589  0.00  0.00    +0.081 C 
ATOM      6  C   UNL     1      31.775  -7.637 -23.817  0.00  0.00    +0.150 C 
ATOM      7  C   UNL     1      32.042  -9.547 -22.733  0.00  0.00    +0.248 C 
ATOM      8  C   UNL     1      30.413  -6.475 -22.200  0.00  0.00    -0.001 C 
ATOM      9  C   UNL     1      31.766  -6.557 -24.702  0.00  0.00    +0.067 C 
ATOM     10  C   UNL     1      31.056  -5.421 -24.299  0.00  0.00    +0.133 C 
ATOM     11  C   UNL     1      30.391  -5.379 -23.071  0.00  0.00    +0.092 C 
ATOM     12  C   UNL     1      33.224 -11.676 -23.200  0.00  0.00    +0.252 C 
ATOM     13  H   UNL     1      32.134 -11.175 -21.546  0.00  0.00    +0.159 HD
ENDROOT
BRANCH  12  14
ATOM     14  C   UNL     1      33.525 -12.999 -22.592  0.00  0.00    +0.055 C 
ATOM     15  C   UNL     1      33.773 -14.102 -23.409  0.00  0.00    +0.029 C 
ATOM     16  C   UNL     1      33.557 -13.137 -21.205  0.00  0.00    +0.005 C 
ATOM     17  C   UNL     1      34.055 -15.343 -22.839  0.00  0.00    +0.143 C 
ATOM     18  C   UNL     1      33.839 -14.379 -20.633  0.00  0.00    +0.002 C 
ATOM     19  C   UNL     1      34.088 -15.482 -21.451  0.00  0.00    +0.024 C 
BRANCH  17  22
ATOM     20  O   UNL     1      34.727 -17.528 -23.146  0.00  0.00    -0.126 OA
ATOM     21  O   UNL     1      34.108 -16.368 -24.904  0.00  0.00    -0.126 OA
ATOM     22  N   UNL     1      34.309 -16.466 -23.669  0.00  0.00    +0.058 N 
ENDBRANCH  17  22
ENDBRANCH  12  14
BRANCH  10  23
ATOM     23  O   UNL     1      31.012  -4.308 -25.143  0.00  0.00    -0.428 OA
BRANCH  23  25
ATOM     24  O   UNL     1      31.884  -2.612 -23.800  0.00  0.00    -0.250 OA
ATOM     25  C   UNL     1      31.935  -3.321 -24.798  0.00  0.00    +0.320 C 
BRANCH  25  26
ATOM     26  C   UNL     1      33.036  -3.252 -25.862  0.00  0.00    +0.090 C 
ATOM     27  C   UNL     1      34.257  -4.052 -25.390  0.00  0.00    +0.011 C 
ATOM     28  C   UNL     1      32.505  -3.816 -27.187  0.00  0.00    +0.011 C 
ATOM     29  C   UNL     1      33.450  -1.787 -26.075  0.00  0.00    +0.011 C 
ENDBRANCH  25  26
ENDBRANCH  23  25
ENDBRANCH  10  23
BRANCH   2  30
ATOM     30  C   UNL     1      30.768  -9.165 -20.631  0.00  0.00    +0.102 C 
BRANCH  30  31
ATOM     31  C   UNL     1      31.674  -8.764 -19.468  0.00  0.00    +0.054 C 
BRANCH  31  32
ATOM     32  C   UNL     1      31.616  -7.275 -19.144  0.00  0.00    +0.139 C 
BRANCH  32  33
ATOM     33  O   UNL     1      32.865  -6.686 -19.485  0.00  0.00    -0.382 OA
ATOM     34  H   UNL     1      33.502  -6.842 -18.771  0.00  0.00    +0.210 HD
ENDBRANCH  32  33
ENDBRANCH  31  32
ENDBRANCH  30  31
ENDBRANCH   2  30
TORSDOF 9
ENDMDL
MODEL 9
REMARK VINA RESULT:      -9.9      7.810     12.137
REMARK  Name = 11987888
REMARK  9 active torsions:
REMARK  status: ('A' for Active; 'I' for Inactive)
REMARK    1  A    between atoms: N_2  and  C_30
REMARK    2  A    between atoms: C_10  and  O_23
REMARK    3  A    between atoms: C_12  and  C_14
REMARK    4  A    between atoms: C_17  and  N_22
REMARK    5  A    between atoms: O_23  and  C_25
REMARK    6  A    between atoms: C_25  and  C_26
REMARK    7  A    between atoms: C_30  and  C_31
REMARK    8  A    between atoms: C_31  and  C_32
REMARK    9  A    between atoms: C_32  and  O_33
REMARK                            x       y       z     vdW  Elec       q    Type
REMARK                         _______ _______ _______ _____ _____    ______ ____
ROOT
ATOM      1  O   UNL     1      32.904  -8.163 -24.392  0.00  0.00    -0.270 OA
ATOM      2  N   UNL     1      31.645 -10.789 -21.263  0.00  0.00    -0.248 N 
ATOM      3  N   UNL     1      32.958 -10.763 -23.057  0.00  0.00    -0.371 NA
ATOM      4  N   UNL     1      31.709  -8.757 -22.450  0.00  0.00    -0.243 N 
ATOM      5  C   UNL     1      32.248 -12.017 -21.417  0.00  0.00    +0.081 C 
ATOM      6  C   UNL     1      33.076 -12.025 -22.535  0.00  0.00    +0.150 C 
ATOM      7  C   UNL     1      32.092 -10.062 -22.262  0.00  0.00    +0.248 C 
ATOM      8  C   UNL     1      32.137 -13.181 -20.636  0.00  0.00    -0.001 C 
ATOM      9  C   UNL     1      33.815 -13.140 -22.933  0.00  0.00    +0.067 C 
ATOM     10  C   UNL     1      33.693 -14.290 -22.146  0.00  0.00    +0.133 C 
ATOM     11  C   UNL     1      32.869 -14.312 -21.018  0.00  0.00    +0.092 C 
ATOM     12  C   UNL     1      32.126  -7.902 -23.479  0.00  0.00    +0.252 C 
ATOM     13  H   UNL     1      31.076  -8.384 -21.795  0.00  0.00    +0.159 HD
ENDROOT
BRANCH  12  14
ATOM     14  C   UNL     1      31.525  -6.543 -23.457  0.00  0.00    +0.055 C 
ATOM     15  C   UNL     1      31.773  -5.652 -24.502  0.00  0.00    +0.029 C 
ATOM     16  C   UNL     1      30.713  -6.157 -22.391  0.00  0.00    +0.005 C 
ATOM     17  C   UNL     1      31.209  -4.377 -24.481  0.00  0.00    +0.143 C 
ATOM     18  C   UNL     1      30.148  -4.881 -22.369  0.00  0.00    +0.002 C 
ATOM     19  C   UNL     1      30.397  -3.991 -23.414  0.00  0.00    +0.024 C 
BRANCH  17  22
ATOM     20  O   UNL     1      32.052  -3.885 -26.570  0.00  0.00    -0.126 OA
ATOM     21  O   UNL     1      31.081  -2.279 -25.430  0.00  0.00    -0.126 OA
ATOM     22  N   UNL     1      31.460  -3.470 -25.544  0.00  0.00    +0.058 N 
ENDBRANCH  17  22
ENDBRANCH  12  14
BRANCH  10  23
ATOM     23  O   UNL     1      34.408 -15.437 -22.497  0.00  0.00    -0.428 OA
BRANCH  23  25
ATOM     24  O   UNL     1      34.510 -16.042 -20.246  0.00  0.00    -0.250 OA
ATOM     25  C   UNL     1      34.571 -16.328 -21.436  0.00  0.00    +0.320 C 
BRANCH  25  26
ATOM     26  C   UNL     1      34.839 -17.736 -21.983  0.00  0.00    +0.090 C 
ATOM     27  C   UNL     1      34.242 -17.861 -23.391  0.00  0.00    +0.011 C 
ATOM     28  C   UNL     1      36.352 -17.993 -22.016  0.00  0.00    +0.011 C 
ATOM     29  C   UNL     1      34.177 -18.775 -21.064  0.00  0.00    +0.011 C 
ENDBRANCH  25  26
ENDBRANCH  23  25
ENDBRANCH  10  23
BRANCH   2  30
ATOM     30  C   UNL     1      30.723 -10.415 -20.216  0.00  0.00    +0.102 C 
BRANCH  30  31
ATOM     31  C   UNL     1      31.380  -9.667 -19.056  0.00  0.00    +0.054 C 
BRANCH  31  32
ATOM     32  C   UNL     1      31.217  -8.155 -19.144  0.00  0.00    +0.139 C 
BRANCH  32  33
ATOM     33  O   UNL     1      32.464  -7.583 -19.520  0.00  0.00    -0.382 OA
ATOM     34  H   UNL     1      32.376  -6.618 -19.564  0.00  0.00    +0.210 HD
ENDBRANCH  32  33
ENDBRANCH  31  32
ENDBRANCH  30  31
ENDBRANCH   2  30
TORSDOF 9
ENDMDL
