MODEL 1
REMARK VINA RESULT:     -14.7      0.000      0.000
REMARK  Name = 16741238
REMARK  6 active torsions:
REMARK  status: ('A' for Active; 'I' for Inactive)
REMARK    1  A    between atoms: N_1  and  C_22
REMARK    2  A    between atoms: C_10  and  C_15
REMARK    3  A    between atoms: C_15  and  C_16
REMARK    4  A    between atoms: C_22  and  C_23
REMARK    5  A    between atoms: C_23  and  C_26
REMARK    6  A    between atoms: N_25  and  C_28
REMARK                            x       y       z     vdW  Elec       q    Type
REMARK                         _______ _______ _______ _____ _____    ______ ____
ROOT
ATOM      1  N   UNL     1      33.505 -13.325 -23.957  0.00  0.00    -0.249 N 
ATOM      2  N   UNL     1      33.097 -15.350 -25.189  0.00  0.00    -0.373 NA
ATOM      3  N   UNL     1      32.481 -13.307 -26.080  0.00  0.00    -0.321 N 
ATOM      4  C   UNL     1      34.120 -14.005 -22.816  0.00  0.00    +0.071 C 
ATOM      5  C   UNL     1      34.170 -15.498 -22.985  0.00  0.00    +0.045 C 
ATOM      6  C   UNL     1      33.039 -14.047 -25.061  0.00  0.00    +0.239 C 
ATOM      7  C   UNL     1      33.664 -16.099 -24.146  0.00  0.00    +0.136 C 
ATOM      8  C   UNL     1      34.727 -16.293 -21.974  0.00  0.00    +0.007 C 
ATOM      9  C   UNL     1      33.725 -17.492 -24.277  0.00  0.00    +0.032 C 
ATOM     10  C   UNL     1      34.781 -17.679 -22.115  0.00  0.00    +0.039 C 
ATOM     11  C   UNL     1      34.280 -18.279 -23.267  0.00  0.00    +0.006 C 
ATOM     12  H   UNL     1      32.429 -12.326 -26.005  0.00  0.00    +0.146 HD
ATOM     13  H   UNL     1      32.135 -13.758 -26.884  0.00  0.00    +0.146 HD
ENDROOT
BRANCH  10  15
ATOM     14  O   UNL     1      36.515 -18.281 -20.665  0.00  0.00    -0.287 OA
ATOM     15  C   UNL     1      35.360 -18.497 -21.061  0.00  0.00    +0.196 C 
BRANCH  15  16
ATOM     16  C   UNL     1      34.610 -19.614 -20.412  0.00  0.00    +0.039 C 
ATOM     17  C   UNL     1      35.303 -20.628 -19.751  0.00  0.00    +0.003 C 
ATOM     18  C   UNL     1      33.216 -19.644 -20.467  0.00  0.00    +0.003 C 
ATOM     19  C   UNL     1      34.603 -21.671 -19.144  0.00  0.00    +0.000 C 
ATOM     20  C   UNL     1      32.516 -20.687 -19.860  0.00  0.00    +0.000 C 
ATOM     21  C   UNL     1      33.210 -21.701 -19.200  0.00  0.00    +0.000 C 
ENDBRANCH  15  16
ENDBRANCH  10  15
BRANCH   1  22
ATOM     22  C   UNL     1      33.427 -11.872 -23.845  0.00  0.00    +0.109 C 
BRANCH  22  23
ATOM     23  C   UNL     1      32.340 -11.472 -22.851  0.00  0.00    +0.107 C 
BRANCH  23  26
ATOM     24  O   UNL     1      32.959  -9.188 -23.259  0.00  0.00    -0.275 OA
ATOM     25  N   UNL     1      31.199  -9.539 -21.791  0.00  0.00    -0.279 N 
ATOM     26  C   UNL     1      32.207  -9.964 -22.663  0.00  0.00    +0.227 C 
ATOM     27  C   UNL     1      30.319 -10.474 -21.094  0.00  0.00    +0.115 C 
BRANCH  25  28
ATOM     28  C   UNL     1      30.952  -8.143 -21.515  0.00  0.00    +0.075 C 
ATOM     29  C   UNL     1      30.721  -7.373 -22.817  0.00  0.00    +0.020 C 
ATOM     30  C   UNL     1      32.103  -7.539 -20.706  0.00  0.00    +0.020 C 
ATOM     31  C   UNL     1      30.509  -5.883 -22.559  0.00  0.00    +0.002 C 
ATOM     32  C   UNL     1      31.889  -6.049 -20.450  0.00  0.00    +0.002 C 
ATOM     33  C   UNL     1      31.656  -5.284 -21.749  0.00  0.00    +0.000 C 
ENDBRANCH  25  28
ENDBRANCH  23  26
ENDBRANCH  22  23
ENDBRANCH   1  22
TORSDOF 6
ENDMDL
MODEL 2
REMARK VINA RESULT:     -13.3      4.491      7.941
REMARK  Name = 16741238
REMARK  6 active torsions:
REMARK  status: ('A' for Active; 'I' for Inactive)
REMARK    1  A    between atoms: N_1  and  C_22
REMARK    2  A    between atoms: C_10  and  C_15
REMARK    3  A    between atoms: C_15  and  C_16
REMARK    4  A    between atoms: C_22  and  C_23
REMARK    5  A    between atoms: C_23  and  C_26
REMARK    6  A    between atoms: N_25  and  C_28
REMARK                            x       y       z     vdW  Elec       q    Type
REMARK                         _______ _______ _______ _____ _____    ______ ____
ROOT
ATOM      1  N   UNL     1      34.284 -20.181 -20.229  0.00  0.00    -0.249 N 
ATOM      2  N   UNL     1      32.808 -21.376 -18.753  0.00  0.00    -0.373 NA
ATOM      3  N   UNL     1      31.966 -20.325 -20.633  0.00  0.00    -0.321 N 
ATOM      4  C   UNL     1      35.489 -20.472 -19.451  0.00  0.00    +0.071 C 
ATOM      5  C   UNL     1      35.205 -21.295 -18.225  0.00  0.00    +0.045 C 
ATOM      6  C   UNL     1      33.032 -20.655 -19.824  0.00  0.00    +0.239 C 
ATOM      7  C   UNL     1      33.898 -21.707 -17.931  0.00  0.00    +0.136 C 
ATOM      8  C   UNL     1      36.257 -21.654 -17.371  0.00  0.00    +0.007 C 
ATOM      9  C   UNL     1      33.663 -22.474 -16.783  0.00  0.00    +0.032 C 
ATOM     10  C   UNL     1      36.012 -22.418 -16.230  0.00  0.00    +0.039 C 
ATOM     11  C   UNL     1      34.714 -22.828 -15.937  0.00  0.00    +0.006 C 
ATOM     12  H   UNL     1      32.112 -19.785 -21.444  0.00  0.00    +0.146 HD
ATOM     13  H   UNL     1      31.059 -20.629 -20.400  0.00  0.00    +0.146 HD
ENDROOT
BRANCH  10  15
ATOM     14  O   UNL     1      38.278 -22.507 -15.657  0.00  0.00    -0.287 OA
ATOM     15  C   UNL     1      37.109 -22.785 -15.350  0.00  0.00    +0.196 C 
BRANCH  15  16
ATOM     16  C   UNL     1      36.891 -23.499 -14.055  0.00  0.00    +0.039 C 
ATOM     17  C   UNL     1      37.047 -24.883 -13.987  0.00  0.00    +0.003 C 
ATOM     18  C   UNL     1      36.534 -22.781 -12.914  0.00  0.00    +0.003 C 
ATOM     19  C   UNL     1      36.845 -25.549 -12.778  0.00  0.00    +0.000 C 
ATOM     20  C   UNL     1      36.332 -23.447 -11.705  0.00  0.00    +0.000 C 
ATOM     21  C   UNL     1      36.487 -24.831 -11.638  0.00  0.00    +0.000 C 
ENDBRANCH  15  16
ENDBRANCH  10  15
BRANCH   1  22
ATOM     22  C   UNL     1      34.500 -19.380 -21.430  0.00  0.00    +0.109 C 
BRANCH  22  23
ATOM     23  C   UNL     1      34.788 -17.928 -21.058  0.00  0.00    +0.107 C 
BRANCH  23  26
ATOM     24  O   UNL     1      34.960 -17.353 -23.383  0.00  0.00    -0.275 OA
ATOM     25  N   UNL     1      34.338 -15.651 -21.937  0.00  0.00    -0.279 N 
ATOM     26  C   UNL     1      34.708 -16.966 -22.238  0.00  0.00    +0.227 C 
ATOM     27  C   UNL     1      34.045 -15.212 -20.574  0.00  0.00    +0.115 C 
BRANCH  25  28
ATOM     28  C   UNL     1      34.219 -14.629 -22.949  0.00  0.00    +0.075 C 
ATOM     29  C   UNL     1      33.669 -13.336 -22.343  0.00  0.00    +0.020 C 
ATOM     30  C   UNL     1      33.347 -15.115 -24.110  0.00  0.00    +0.020 C 
ATOM     31  C   UNL     1      33.481 -12.252 -23.402  0.00  0.00    +0.002 C 
ATOM     32  C   UNL     1      33.162 -14.030 -25.168  0.00  0.00    +0.002 C 
ATOM     33  C   UNL     1      32.615 -12.741 -24.560  0.00  0.00    +0.000 C 
ENDBRANCH  25  28
ENDBRANCH  23  26
ENDBRANCH  22  23
ENDBRANCH   1  22
TORSDOF 6
ENDMDL
MODEL 3
REMARK VINA RESULT:     -13.2      3.333      5.922
REMARK  Name = 16741238
REMARK  6 active torsions:
REMARK  status: ('A' for Active; 'I' for Inactive)
REMARK    1  A    between atoms: N_1  and  C_22
REMARK    2  A    between atoms: C_10  and  C_15
REMARK    3  A    between atoms: C_15  and  C_16
REMARK    4  A    between atoms: C_22  and  C_23
REMARK    5  A    between atoms: C_23  and  C_26
REMARK    6  A    between atoms: N_25  and  C_28
REMARK                            x       y       z     vdW  Elec       q    Type
REMARK                         _______ _______ _______ _____ _____    ______ ____
ROOT
ATOM      1  N   UNL     1      34.708 -18.514 -21.717  0.00  0.00    -0.249 N 
ATOM      2  N   UNL     1      36.457 -19.263 -20.246  0.00  0.00    -0.373 NA
ATOM      3  N   UNL     1      36.874 -17.586 -21.783  0.00  0.00    -0.321 N 
ATOM      4  C   UNL     1      33.703 -19.434 -21.182  0.00  0.00    +0.071 C 
ATOM      5  C   UNL     1      34.241 -20.307 -20.083  0.00  0.00    +0.045 C 
ATOM      6  C   UNL     1      36.011 -18.494 -21.210  0.00  0.00    +0.239 C 
ATOM      7  C   UNL     1      35.574 -20.188 -19.667  0.00  0.00    +0.136 C 
ATOM      8  C   UNL     1      33.401 -21.248 -19.470  0.00  0.00    +0.007 C 
ATOM      9  C   UNL     1      36.047 -21.014 -18.639  0.00  0.00    +0.032 C 
ATOM     10  C   UNL     1      33.883 -22.066 -18.448  0.00  0.00    +0.039 C 
ATOM     11  C   UNL     1      35.207 -21.948 -18.033  0.00  0.00    +0.006 C 
ATOM     12  H   UNL     1      36.559 -16.998 -22.508  0.00  0.00    +0.146 HD
ATOM     13  H   UNL     1      37.805 -17.525 -21.468  0.00  0.00    +0.146 HD
ENDROOT
BRANCH  10  15
ATOM     14  O   UNL     1      32.821 -24.147 -18.344  0.00  0.00    -0.287 OA
ATOM     15  C   UNL     1      33.006 -23.038 -17.819  0.00  0.00    +0.196 C 
BRANCH  15  16
ATOM     16  C   UNL     1      32.297 -22.763 -16.532  0.00  0.00    +0.039 C 
ATOM     17  C   UNL     1      30.941 -22.439 -16.538  0.00  0.00    +0.003 C 
ATOM     18  C   UNL     1      32.992 -22.831 -15.325  0.00  0.00    +0.003 C 
ATOM     19  C   UNL     1      30.279 -22.184 -15.337  0.00  0.00    +0.000 C 
ATOM     20  C   UNL     1      32.331 -22.575 -14.124  0.00  0.00    +0.000 C 
ATOM     21  C   UNL     1      30.974 -22.251 -14.130  0.00  0.00    +0.000 C 
ENDBRANCH  15  16
ENDBRANCH  10  15
BRANCH   1  22
ATOM     22  C   UNL     1      34.242 -17.643 -22.791  0.00  0.00    +0.109 C 
BRANCH  22  23
ATOM     23  C   UNL     1      34.805 -16.235 -22.620  0.00  0.00    +0.107 C 
BRANCH  23  26
ATOM     24  O   UNL     1      33.485 -15.089 -24.266  0.00  0.00    -0.275 OA
ATOM     25  N   UNL     1      33.457 -14.211 -22.120  0.00  0.00    -0.279 N 
ATOM     26  C   UNL     1      33.859 -15.135 -23.091  0.00  0.00    +0.227 C 
ATOM     27  C   UNL     1      33.912 -14.283 -20.733  0.00  0.00    +0.115 C 
BRANCH  25  28
ATOM     28  C   UNL     1      32.563 -13.117 -22.416  0.00  0.00    +0.075 C 
ATOM     29  C   UNL     1      33.317 -11.983 -23.115  0.00  0.00    +0.020 C 
ATOM     30  C   UNL     1      31.870 -12.624 -21.143  0.00  0.00    +0.020 C 
ATOM     31  C   UNL     1      32.407 -10.789 -23.393  0.00  0.00    +0.002 C 
ATOM     32  C   UNL     1      30.961 -11.430 -21.424  0.00  0.00    +0.002 C 
ATOM     33  C   UNL     1      31.714 -10.302 -22.123  0.00  0.00    +0.000 C 
ENDBRANCH  25  28
ENDBRANCH  23  26
ENDBRANCH  22  23
ENDBRANCH   1  22
TORSDOF 6
ENDMDL
MODEL 4
REMARK VINA RESULT:     -12.9      2.558     11.008
REMARK  Name = 16741238
REMARK  6 active torsions:
REMARK  status: ('A' for Active; 'I' for Inactive)
REMARK    1  A    between atoms: N_1  and  C_22
REMARK    2  A    between atoms: C_10  and  C_15
REMARK    3  A    between atoms: C_15  and  C_16
REMARK    4  A    between atoms: C_22  and  C_23
REMARK    5  A    between atoms: C_23  and  C_26
REMARK    6  A    between atoms: N_25  and  C_28
REMARK                            x       y       z     vdW  Elec       q    Type
REMARK                         _______ _______ _______ _____ _____    ______ ____
ROOT
ATOM      1  N   UNL     1      32.149 -12.278 -22.271  0.00  0.00    -0.249 N 
ATOM      2  N   UNL     1      31.455 -11.115 -20.284  0.00  0.00    -0.373 NA
ATOM      3  N   UNL     1      31.652 -13.420 -20.270  0.00  0.00    -0.321 N 
ATOM      4  C   UNL     1      32.287 -11.063 -23.076  0.00  0.00    +0.071 C 
ATOM      5  C   UNL     1      31.944  -9.816 -22.310  0.00  0.00    +0.045 C 
ATOM      6  C   UNL     1      31.745 -12.216 -20.934  0.00  0.00    +0.239 C 
ATOM      7  C   UNL     1      31.548  -9.892 -20.967  0.00  0.00    +0.136 C 
ATOM      8  C   UNL     1      32.021  -8.568 -22.944  0.00  0.00    +0.007 C 
ATOM      9  C   UNL     1      31.236  -8.714 -20.277  0.00  0.00    +0.032 C 
ATOM     10  C   UNL     1      31.707  -7.401 -22.248  0.00  0.00    +0.039 C 
ATOM     11  C   UNL     1      31.315  -7.474 -20.914  0.00  0.00    +0.006 C 
ATOM     12  H   UNL     1      31.867 -14.258 -20.739  0.00  0.00    +0.146 HD
ATOM     13  H   UNL     1      31.373 -13.440 -19.326  0.00  0.00    +0.146 HD
ENDROOT
BRANCH  10  15
ATOM     14  O   UNL     1      31.294  -5.103 -22.387  0.00  0.00    -0.287 OA
ATOM     15  C   UNL     1      31.789  -6.112 -22.913  0.00  0.00    +0.196 C 
BRANCH  15  16
ATOM     16  C   UNL     1      32.462  -5.934 -24.235  0.00  0.00    +0.039 C 
ATOM     17  C   UNL     1      31.728  -6.064 -25.414  0.00  0.00    +0.003 C 
ATOM     18  C   UNL     1      33.824  -5.637 -24.291  0.00  0.00    +0.003 C 
ATOM     19  C   UNL     1      32.356  -5.897 -26.649  0.00  0.00    +0.000 C 
ATOM     20  C   UNL     1      34.451  -5.470 -25.526  0.00  0.00    +0.000 C 
ATOM     21  C   UNL     1      33.717  -5.601 -26.704  0.00  0.00    +0.000 C 
ENDBRANCH  15  16
ENDBRANCH  10  15
BRANCH   1  22
ATOM     22  C   UNL     1      32.466 -13.521 -22.967  0.00  0.00    +0.109 C 
BRANCH  22  23
ATOM     23  C   UNL     1      33.943 -13.866 -22.798  0.00  0.00    +0.107 C 
BRANCH  23  26
ATOM     24  O   UNL     1      34.207 -14.597 -20.526  0.00  0.00    -0.275 OA
ATOM     25  N   UNL     1      34.446 -16.215 -22.170  0.00  0.00    -0.279 N 
ATOM     26  C   UNL     1      34.209 -14.912 -21.719  0.00  0.00    +0.227 C 
ATOM     27  C   UNL     1      34.444 -16.566 -23.588  0.00  0.00    +0.115 C 
BRANCH  25  28
ATOM     28  C   UNL     1      34.710 -17.310 -21.267  0.00  0.00    +0.075 C 
ATOM     29  C   UNL     1      36.140 -17.823 -21.451  0.00  0.00    +0.020 C 
ATOM     30  C   UNL     1      33.686 -18.432 -21.462  0.00  0.00    +0.020 C 
ATOM     31  C   UNL     1      36.431 -19.017 -20.545  0.00  0.00    +0.002 C 
ATOM     32  C   UNL     1      33.979 -19.624 -20.555  0.00  0.00    +0.002 C 
ATOM     33  C   UNL     1      35.406 -20.132 -20.738  0.00  0.00    +0.000 C 
ENDBRANCH  25  28
ENDBRANCH  23  26
ENDBRANCH  22  23
ENDBRANCH   1  22
TORSDOF 6
ENDMDL
MODEL 5
REMARK VINA RESULT:     -12.8      5.021     11.749
REMARK  Name = 16741238
REMARK  6 active torsions:
REMARK  status: ('A' for Active; 'I' for Inactive)
REMARK    1  A    between atoms: N_1  and  C_22
REMARK    2  A    between atoms: C_10  and  C_15
REMARK    3  A    between atoms: C_15  and  C_16
REMARK    4  A    between atoms: C_22  and  C_23
REMARK    5  A    between atoms: C_23  and  C_26
REMARK    6  A    between atoms: N_25  and  C_28
REMARK                            x       y       z     vdW  Elec       q    Type
REMARK                         _______ _______ _______ _____ _____    ______ ____
ROOT
ATOM      1  N   UNL     1      34.227 -21.259 -19.461  0.00  0.00    -0.249 N 
ATOM      2  N   UNL     1      36.228 -19.934 -19.623  0.00  0.00    -0.373 NA
ATOM      3  N   UNL     1      36.085 -21.631 -18.059  0.00  0.00    -0.321 N 
ATOM      4  C   UNL     1      33.532 -20.553 -20.539  0.00  0.00    +0.071 C 
ATOM      5  C   UNL     1      34.357 -19.450 -21.139  0.00  0.00    +0.045 C 
ATOM      6  C   UNL     1      35.524 -20.898 -19.082  0.00  0.00    +0.239 C 
ATOM      7  C   UNL     1      35.650 -19.189 -20.665  0.00  0.00    +0.136 C 
ATOM      8  C   UNL     1      33.829 -18.676 -22.182  0.00  0.00    +0.007 C 
ATOM      9  C   UNL     1      36.397 -18.155 -21.243  0.00  0.00    +0.032 C 
ATOM     10  C   UNL     1      34.581 -17.648 -22.751  0.00  0.00    +0.039 C 
ATOM     11  C   UNL     1      35.866 -17.388 -22.281  0.00  0.00    +0.006 C 
ATOM     12  H   UNL     1      35.574 -22.361 -17.639  0.00  0.00    +0.146 HD
ATOM     13  H   UNL     1      36.996 -21.424 -17.748  0.00  0.00    +0.146 HD
ENDROOT
BRANCH  10  15
ATOM     14  O   UNL     1      33.766 -17.373 -24.926  0.00  0.00    -0.287 OA
ATOM     15  C   UNL     1      34.025 -16.851 -23.831  0.00  0.00    +0.196 C 
BRANCH  15  16
ATOM     16  C   UNL     1      33.739 -15.391 -23.683  0.00  0.00    +0.039 C 
ATOM     17  C   UNL     1      33.139 -14.689 -24.727  0.00  0.00    +0.003 C 
ATOM     18  C   UNL     1      34.073 -14.731 -22.500  0.00  0.00    +0.003 C 
ATOM     19  C   UNL     1      32.871 -13.327 -24.589  0.00  0.00    +0.000 C 
ATOM     20  C   UNL     1      33.805 -13.370 -22.362  0.00  0.00    +0.000 C 
ATOM     21  C   UNL     1      33.205 -12.667 -23.407  0.00  0.00    +0.000 C 
ENDBRANCH  15  16
ENDBRANCH  10  15
BRANCH   1  22
ATOM     22  C   UNL     1      33.470 -22.339 -18.838  0.00  0.00    +0.109 C 
BRANCH  22  23
ATOM     23  C   UNL     1      33.408 -22.145 -17.326  0.00  0.00    +0.107 C 
BRANCH  23  26
ATOM     24  O   UNL     1      31.008 -22.063 -17.338  0.00  0.00    -0.275 OA
ATOM     25  N   UNL     1      32.002 -23.037 -15.484  0.00  0.00    -0.279 N 
ATOM     26  C   UNL     1      32.027 -22.403 -16.731  0.00  0.00    +0.227 C 
ATOM     27  C   UNL     1      33.222 -23.431 -14.781  0.00  0.00    +0.115 C 
BRANCH  25  28
ATOM     28  C   UNL     1      30.771 -23.349 -14.798  0.00  0.00    +0.075 C 
ATOM     29  C   UNL     1      31.037 -24.289 -13.620  0.00  0.00    +0.020 C 
ATOM     30  C   UNL     1      29.747 -23.946 -15.767  0.00  0.00    +0.020 C 
ATOM     31  C   UNL     1      29.745 -24.679 -12.907  0.00  0.00    +0.002 C 
ATOM     32  C   UNL     1      28.455 -24.334 -15.052  0.00  0.00    +0.002 C 
ATOM     33  C   UNL     1      28.724 -25.270 -13.876  0.00  0.00    +0.000 C 
ENDBRANCH  25  28
ENDBRANCH  23  26
ENDBRANCH  22  23
ENDBRANCH   1  22
TORSDOF 6
ENDMDL
MODEL 6
REMARK VINA RESULT:     -12.7      6.039     10.697
REMARK  Name = 16741238
REMARK  6 active torsions:
REMARK  status: ('A' for Active; 'I' for Inactive)
REMARK    1  A    between atoms: N_1  and  C_22
REMARK    2  A    between atoms: C_10  and  C_15
REMARK    3  A    between atoms: C_15  and  C_16
REMARK    4  A    between atoms: C_22  and  C_23
REMARK    5  A    between atoms: C_23  and  C_26
REMARK    6  A    between atoms: N_25  and  C_28
REMARK                            x       y       z     vdW  Elec       q    Type
REMARK                         _______ _______ _______ _____ _____    ______ ____
ROOT
ATOM      1  N   UNL     1      35.536 -22.070 -16.996  0.00  0.00    -0.249 N 
ATOM      2  N   UNL     1      35.986 -22.786 -14.744  0.00  0.00    -0.373 NA
ATOM      3  N   UNL     1      37.715 -22.059 -16.098  0.00  0.00    -0.321 N 
ATOM      4  C   UNL     1      34.094 -22.310 -16.909  0.00  0.00    +0.071 C 
ATOM      5  C   UNL     1      33.674 -22.844 -15.568  0.00  0.00    +0.045 C 
ATOM      6  C   UNL     1      36.377 -22.324 -15.908  0.00  0.00    +0.239 C 
ATOM      7  C   UNL     1      34.621 -23.056 -14.557  0.00  0.00    +0.136 C 
ATOM      8  C   UNL     1      32.322 -23.130 -15.327  0.00  0.00    +0.007 C 
ATOM      9  C   UNL     1      34.200 -23.552 -13.317  0.00  0.00    +0.032 C 
ATOM     10  C   UNL     1      31.914 -23.624 -14.089  0.00  0.00    +0.039 C 
ATOM     11  C   UNL     1      32.854 -23.835 -13.083  0.00  0.00    +0.006 C 
ATOM     12  H   UNL     1      38.030 -21.711 -16.964  0.00  0.00    +0.146 HD
ATOM     13  H   UNL     1      38.357 -22.218 -15.368  0.00  0.00    +0.146 HD
ENDROOT
BRANCH  10  15
ATOM     14  O   UNL     1      30.169 -24.547 -12.835  0.00  0.00    -0.287 OA
ATOM     15  C   UNL     1      30.511 -23.919 -13.849  0.00  0.00    +0.196 C 
BRANCH  15  16
ATOM     16  C   UNL     1      29.431 -23.489 -14.786  0.00  0.00    +0.039 C 
ATOM     17  C   UNL     1      28.991 -22.165 -14.785  0.00  0.00    +0.003 C 
ATOM     18  C   UNL     1      28.861 -24.412 -15.664  0.00  0.00    +0.003 C 
ATOM     19  C   UNL     1      27.983 -21.764 -15.662  0.00  0.00    +0.000 C 
ATOM     20  C   UNL     1      27.853 -24.011 -16.540  0.00  0.00    +0.000 C 
ATOM     21  C   UNL     1      27.413 -22.687 -16.539  0.00  0.00    +0.000 C 
ENDBRANCH  15  16
ENDBRANCH  10  15
BRANCH   1  22
ATOM     22  C   UNL     1      36.002 -21.556 -18.280  0.00  0.00    +0.109 C 
BRANCH  22  23
ATOM     23  C   UNL     1      34.856 -20.887 -19.034  0.00  0.00    +0.107 C 
BRANCH  23  26
ATOM     24  O   UNL     1      36.491 -19.466 -20.070  0.00  0.00    -0.275 OA
ATOM     25  N   UNL     1      34.337 -19.360 -20.922  0.00  0.00    -0.279 N 
ATOM     26  C   UNL     1      35.316 -19.843 -20.047  0.00  0.00    +0.227 C 
ATOM     27  C   UNL     1      32.951 -19.820 -20.877  0.00  0.00    +0.115 C 
BRANCH  25  28
ATOM     28  C   UNL     1      34.623 -18.372 -21.934  0.00  0.00    +0.075 C 
ATOM     29  C   UNL     1      34.505 -16.961 -21.355  0.00  0.00    +0.020 C 
ATOM     30  C   UNL     1      33.704 -18.556 -23.145  0.00  0.00    +0.020 C 
ATOM     31  C   UNL     1      34.750 -15.893 -22.418  0.00  0.00    +0.002 C 
ATOM     32  C   UNL     1      33.952 -17.487 -24.207  0.00  0.00    +0.002 C 
ATOM     33  C   UNL     1      33.836 -16.081 -23.625  0.00  0.00    +0.000 C 
ENDBRANCH  25  28
ENDBRANCH  23  26
ENDBRANCH  22  23
ENDBRANCH   1  22
TORSDOF 6
ENDMDL
MODEL 7
REMARK VINA RESULT:     -12.5      3.657      6.941
REMARK  Name = 16741238
REMARK  6 active torsions:
REMARK  status: ('A' for Active; 'I' for Inactive)
REMARK    1  A    between atoms: N_1  and  C_22
REMARK    2  A    between atoms: C_10  and  C_15
REMARK    3  A    between atoms: C_15  and  C_16
REMARK    4  A    between atoms: C_22  and  C_23
REMARK    5  A    between atoms: C_23  and  C_26
REMARK    6  A    between atoms: N_25  and  C_28
REMARK                            x       y       z     vdW  Elec       q    Type
REMARK                         _______ _______ _______ _____ _____    ______ ____
ROOT
ATOM      1  N   UNL     1      34.723 -19.427 -20.940  0.00  0.00    -0.249 N 
ATOM      2  N   UNL     1      36.607 -19.781 -19.487  0.00  0.00    -0.373 NA
ATOM      3  N   UNL     1      36.807 -18.399 -21.331  0.00  0.00    -0.321 N 
ATOM      4  C   UNL     1      33.822 -20.291 -20.174  0.00  0.00    +0.071 C 
ATOM      5  C   UNL     1      34.487 -20.909 -18.977  0.00  0.00    +0.045 C 
ATOM      6  C   UNL     1      36.049 -19.234 -20.540  0.00  0.00    +0.239 C 
ATOM      7  C   UNL     1      35.830 -20.633 -18.686  0.00  0.00    +0.136 C 
ATOM      8  C   UNL     1      33.756 -21.767 -18.143  0.00  0.00    +0.007 C 
ATOM      9  C   UNL     1      36.423 -21.222 -17.563  0.00  0.00    +0.032 C 
ATOM     10  C   UNL     1      34.357 -22.349 -17.027  0.00  0.00    +0.039 C 
ATOM     11  C   UNL     1      35.691 -22.076 -16.736  0.00  0.00    +0.006 C 
ATOM     12  H   UNL     1      36.408 -17.977 -22.126  0.00  0.00    +0.146 HD
ATOM     13  H   UNL     1      37.748 -18.224 -21.101  0.00  0.00    +0.146 HD
ENDROOT
BRANCH  10  15
ATOM     14  O   UNL     1      34.075 -24.320 -15.800  0.00  0.00    -0.287 OA
ATOM     15  C   UNL     1      33.592 -23.238 -16.168  0.00  0.00    +0.196 C 
BRANCH  15  16
ATOM     16  C   UNL     1      32.216 -22.903 -15.691  0.00  0.00    +0.039 C 
ATOM     17  C   UNL     1      31.969 -22.748 -14.328  0.00  0.00    +0.003 C 
ATOM     18  C   UNL     1      31.179 -22.745 -16.610  0.00  0.00    +0.003 C 
ATOM     19  C   UNL     1      30.685 -22.435 -13.883  0.00  0.00    +0.000 C 
ATOM     20  C   UNL     1      29.895 -22.431 -16.166  0.00  0.00    +0.000 C 
ATOM     21  C   UNL     1      29.647 -22.277 -14.802  0.00  0.00    +0.000 C 
ENDBRANCH  15  16
ENDBRANCH  10  15
BRANCH   1  22
ATOM     22  C   UNL     1      34.131 -18.803 -22.118  0.00  0.00    +0.109 C 
BRANCH  22  23
ATOM     23  C   UNL     1      34.969 -17.610 -22.568  0.00  0.00    +0.107 C 
BRANCH  23  26
ATOM     24  O   UNL     1      34.618 -16.181 -20.670  0.00  0.00    -0.275 OA
ATOM     25  N   UNL     1      34.177 -15.264 -22.754  0.00  0.00    -0.279 N 
ATOM     26  C   UNL     1      34.576 -16.297 -21.898  0.00  0.00    +0.227 C 
ATOM     27  C   UNL     1      34.133 -15.422 -24.206  0.00  0.00    +0.115 C 
BRANCH  25  28
ATOM     28  C   UNL     1      33.778 -13.965 -22.266  0.00  0.00    +0.075 C 
ATOM     29  C   UNL     1      32.801 -14.108 -21.098  0.00  0.00    +0.020 C 
ATOM     30  C   UNL     1      33.178 -13.123 -23.395  0.00  0.00    +0.020 C 
ATOM     31  C   UNL     1      32.320 -12.749 -20.595  0.00  0.00    +0.002 C 
ATOM     32  C   UNL     1      32.699 -11.764 -22.890  0.00  0.00    +0.002 C 
ATOM     33  C   UNL     1      31.726 -11.910 -21.723  0.00  0.00    +0.000 C 
ENDBRANCH  25  28
ENDBRANCH  23  26
ENDBRANCH  22  23
ENDBRANCH   1  22
TORSDOF 6
ENDMDL
MODEL 8
REMARK VINA RESULT:     -12.4      2.864      4.922
REMARK  Name = 16741238
REMARK  6 active torsions:
REMARK  status: ('A' for Active; 'I' for Inactive)
REMARK    1  A    between atoms: N_1  and  C_22
REMARK    2  A    between atoms: C_10  and  C_15
REMARK    3  A    between atoms: C_15  and  C_16
REMARK    4  A    between atoms: C_22  and  C_23
REMARK    5  A    between atoms: C_23  and  C_26
REMARK    6  A    between atoms: N_25  and  C_28
REMARK                            x       y       z     vdW  Elec       q    Type
REMARK                         _______ _______ _______ _____ _____    ______ ____
ROOT
ATOM      1  N   UNL     1      31.355 -10.003 -21.915  0.00  0.00    -0.249 N 
ATOM      2  N   UNL     1      31.635 -11.468 -20.029  0.00  0.00    -0.373 NA
ATOM      3  N   UNL     1      30.572  -9.431 -19.767  0.00  0.00    -0.321 N 
ATOM      4  C   UNL     1      32.016 -10.903 -22.862  0.00  0.00    +0.071 C 
ATOM      5  C   UNL     1      32.496 -12.174 -22.218  0.00  0.00    +0.045 C 
ATOM      6  C   UNL     1      31.212 -10.351 -20.568  0.00  0.00    +0.239 C 
ATOM      7  C   UNL     1      32.289 -12.401 -20.850  0.00  0.00    +0.136 C 
ATOM      8  C   UNL     1      33.154 -13.139 -22.992  0.00  0.00    +0.007 C 
ATOM      9  C   UNL     1      32.746 -13.594 -20.277  0.00  0.00    +0.032 C 
ATOM     10  C   UNL     1      33.606 -14.324 -22.412  0.00  0.00    +0.039 C 
ATOM     11  C   UNL     1      33.401 -14.552 -21.053  0.00  0.00    +0.006 C 
ATOM     12  H   UNL     1      30.245  -8.586 -20.153  0.00  0.00    +0.146 HD
ATOM     13  H   UNL     1      30.441  -9.619 -18.810  0.00  0.00    +0.146 HD
ENDROOT
BRANCH  10  15
ATOM     14  O   UNL     1      34.729 -15.019 -24.342  0.00  0.00    -0.287 OA
ATOM     15  C   UNL     1      34.288 -15.319 -23.222  0.00  0.00    +0.196 C 
BRANCH  15  16
ATOM     16  C   UNL     1      34.493 -16.725 -22.759  0.00  0.00    +0.039 C 
ATOM     17  C   UNL     1      33.985 -17.787 -23.505  0.00  0.00    +0.003 C 
ATOM     18  C   UNL     1      35.195 -16.975 -21.579  0.00  0.00    +0.003 C 
ATOM     19  C   UNL     1      34.177 -19.099 -23.074  0.00  0.00    +0.000 C 
ATOM     20  C   UNL     1      35.388 -18.287 -21.147  0.00  0.00    +0.000 C 
ATOM     21  C   UNL     1      34.878 -19.349 -21.895  0.00  0.00    +0.000 C 
ENDBRANCH  15  16
ENDBRANCH  10  15
BRANCH   1  22
ATOM     22  C   UNL     1      30.872  -8.750 -22.486  0.00  0.00    +0.109 C 
BRANCH  22  23
ATOM     23  C   UNL     1      31.830  -7.609 -22.157  0.00  0.00    +0.107 C 
BRANCH  23  26
ATOM     24  O   UNL     1      33.900  -7.976 -23.317  0.00  0.00    -0.275 OA
ATOM     25  N   UNL     1      32.519  -6.316 -24.161  0.00  0.00    -0.279 N 
ATOM     26  C   UNL     1      32.851  -7.329 -23.255  0.00  0.00    +0.227 C 
ATOM     27  C   UNL     1      31.271  -5.561 -24.070  0.00  0.00    +0.115 C 
BRANCH  25  28
ATOM     28  C   UNL     1      33.384  -5.940 -25.254  0.00  0.00    +0.075 C 
ATOM     29  C   UNL     1      34.205  -4.702 -24.886  0.00  0.00    +0.020 C 
ATOM     30  C   UNL     1      32.574  -5.712 -26.533  0.00  0.00    +0.020 C 
ATOM     31  C   UNL     1      35.092  -4.250 -26.044  0.00  0.00    +0.002 C 
ATOM     32  C   UNL     1      33.463  -5.261 -27.689  0.00  0.00    +0.002 C 
ATOM     33  C   UNL     1      34.282  -4.028 -27.319  0.00  0.00    +0.000 C 
ENDBRANCH  25  28
ENDBRANCH  23  26
ENDBRANCH  22  23
ENDBRANCH   1  22
TORSDOF 6
ENDMDL
MODEL 9
REMARK VINA RESULT:     -12.3      4.585      8.473
REMARK  Name = 16741238
REMARK  6 active torsions:
REMARK  status: ('A' for Active; 'I' for Inactive)
REMARK    1  A    between atoms: N_1  and  C_22
REMARK    2  A    between atoms: C_10  and  C_15
REMARK    3  A    between atoms: C_15  and  C_16
REMARK    4  A    between atoms: C_22  and  C_23
REMARK    5  A    between atoms: C_23  and  C_26
REMARK    6  A    between atoms: N_25  and  C_28
REMARK                            x       y       z     vdW  Elec       q    Type
REMARK                         _______ _______ _______ _____ _____    ______ ____
ROOT
ATOM      1  N   UNL     1      34.566 -20.675 -19.559  0.00  0.00    -0.249 N 
ATOM      2  N   UNL     1      32.315 -21.260 -18.948  0.00  0.00    -0.373 NA
ATOM      3  N   UNL     1      32.717 -20.060 -20.884  0.00  0.00    -0.321 N 
ATOM      4  C   UNL     1      35.175 -21.319 -18.393  0.00  0.00    +0.071 C 
ATOM      5  C   UNL     1      34.160 -21.956 -17.486  0.00  0.00    +0.045 C 
ATOM      6  C   UNL     1      33.181 -20.693 -19.752  0.00  0.00    +0.239 C 
ATOM      7  C   UNL     1      32.794 -21.902 -17.795  0.00  0.00    +0.136 C 
ATOM      8  C   UNL     1      34.585 -22.611 -16.321  0.00  0.00    +0.007 C 
ATOM      9  C   UNL     1      31.871 -22.506 -16.932  0.00  0.00    +0.032 C 
ATOM     10  C   UNL     1      33.657 -23.208 -15.468  0.00  0.00    +0.039 C 
ATOM     11  C   UNL     1      32.300 -23.156 -15.774  0.00  0.00    +0.006 C 
ATOM     12  H   UNL     1      33.351 -19.629 -21.502  0.00  0.00    +0.146 HD
ATOM     13  H   UNL     1      31.751 -20.039 -21.075  0.00  0.00    +0.146 HD
ENDROOT
BRANCH  10  15
ATOM     14  O   UNL     1      33.355 -23.973 -13.278  0.00  0.00    -0.287 OA
ATOM     15  C   UNL     1      34.106 -23.884 -14.262  0.00  0.00    +0.196 C 
BRANCH  15  16
ATOM     16  C   UNL     1      35.464 -24.495 -14.145  0.00  0.00    +0.039 C 
ATOM     17  C   UNL     1      35.743 -25.703 -14.783  0.00  0.00    +0.003 C 
ATOM     18  C   UNL     1      36.455 -23.857 -13.397  0.00  0.00    +0.003 C 
ATOM     19  C   UNL     1      37.011 -26.273 -14.675  0.00  0.00    +0.000 C 
ATOM     20  C   UNL     1      37.723 -24.427 -13.289  0.00  0.00    +0.000 C 
ATOM     21  C   UNL     1      38.001 -25.636 -13.927  0.00  0.00    +0.000 C 
ENDBRANCH  15  16
ENDBRANCH  10  15
BRANCH   1  22
ATOM     22  C   UNL     1      35.506 -20.034 -20.474  0.00  0.00    +0.109 C 
BRANCH  22  23
ATOM     23  C   UNL     1      34.756 -19.233 -21.534  0.00  0.00    +0.107 C 
BRANCH  23  26
ATOM     24  O   UNL     1      35.371 -17.246 -20.333  0.00  0.00    -0.275 OA
ATOM     25  N   UNL     1      34.404 -16.940 -22.418  0.00  0.00    -0.279 N 
ATOM     26  C   UNL     1      34.877 -17.722 -21.359  0.00  0.00    +0.227 C 
ATOM     27  C   UNL     1      33.822 -17.523 -23.624  0.00  0.00    +0.115 C 
BRANCH  25  28
ATOM     28  C   UNL     1      34.454 -15.497 -22.397  0.00  0.00    +0.075 C 
ATOM     29  C   UNL     1      33.876 -14.960 -21.086  0.00  0.00    +0.020 C 
ATOM     30  C   UNL     1      33.723 -14.912 -23.609  0.00  0.00    +0.020 C 
ATOM     31  C   UNL     1      33.867 -13.433 -21.058  0.00  0.00    +0.002 C 
ATOM     32  C   UNL     1      33.716 -13.386 -23.578  0.00  0.00    +0.002 C 
ATOM     33  C   UNL     1      33.142 -12.853 -22.269  0.00  0.00    +0.000 C 
ENDBRANCH  25  28
ENDBRANCH  23  26
ENDBRANCH  22  23
ENDBRANCH   1  22
TORSDOF 6
ENDMDL
