MODEL 1
REMARK VINA RESULT:     -10.9      0.000      0.000
REMARK  Name = 9820882
REMARK  12 active torsions:
REMARK  status: ('A' for Active; 'I' for Inactive)
REMARK    1  A    between atoms: N_1  and  C_4
REMARK    2  A    between atoms: N_1  and  C_17
REMARK    3  A    between atoms: C_4  and  C_6
REMARK    4  A    between atoms: C_6  and  C_7
REMARK    5  A    between atoms: C_6  and  O_15
REMARK    6  A    between atoms: C_12  and  O_13
REMARK    7  A    between atoms: C_17  and  C_18
REMARK    8  A    between atoms: C_18  and  C_19
REMARK    9  A    between atoms: C_24  and  O_27
REMARK   10  A    between atoms: O_27  and  C_28
REMARK   11  A    between atoms: C_28  and  C_30
REMARK   12  A    between atoms: C_30  and  O_31
REMARK                            x       y       z     vdW  Elec       q    Type
REMARK                         _______ _______ _______ _____ _____    ______ ____
ROOT
ATOM      1  N   UNL     1      35.144 -16.745 -22.836  0.00  0.00    +0.387 N 
ATOM      2  H   UNL     1      35.468 -16.953 -23.781  0.00  0.00    -0.084 HD
ATOM      3  H   UNL     1      35.931 -16.479 -22.245  0.00  0.00    -0.084 HD
ENDROOT
BRANCH   1   4
ATOM      4  C   UNL     1      34.508 -17.942 -22.270  0.00  0.00    -0.030 C 
ATOM      5  C   UNL     1      34.531 -19.039 -23.336  0.00  0.00    -0.021 C 
BRANCH   4   6
ATOM      6  C   UNL     1      35.244 -18.355 -20.976  0.00  0.00    +0.113 C 
BRANCH   6   7
ATOM      7  C   UNL     1      34.684 -19.604 -20.330  0.00  0.00    +0.002 C 
ATOM      8  C   UNL     1      33.315 -19.806 -20.324  0.00  0.00    +0.001 C 
ATOM      9  C   UNL     1      35.554 -20.517 -19.760  0.00  0.00    +0.001 C 
ATOM     10  C   UNL     1      32.799 -20.957 -19.727  0.00  0.00    +0.036 C 
ATOM     11  C   UNL     1      35.039 -21.668 -19.164  0.00  0.00    +0.036 C 
ATOM     12  C   UNL     1      33.661 -21.888 -19.148  0.00  0.00    +0.134 C 
BRANCH  12  13
ATOM     13  O   UNL     1      33.157 -23.010 -18.567  0.00  0.00    -0.506 OA
ATOM     14  H   UNL     1      33.449 -23.856 -18.848  0.00  0.00    +0.292 HD
ENDBRANCH  12  13
ENDBRANCH   6   7
BRANCH   6  15
ATOM     15  O   UNL     1      36.621 -18.619 -21.259  0.00  0.00    -0.382 OA
ATOM     16  H   UNL     1      36.864 -19.488 -20.900  0.00  0.00    +0.211 HD
ENDBRANCH   6  15
ENDBRANCH   4   6
ENDBRANCH   1   4
BRANCH   1  17
ATOM     17  C   UNL     1      34.200 -15.642 -22.887  0.00  0.00    -0.077 C 
BRANCH  17  18
ATOM     18  C   UNL     1      34.093 -14.949 -21.529  0.00  0.00    +0.003 C 
BRANCH  18  19
ATOM     19  C   UNL     1      33.288 -13.678 -21.618  0.00  0.00    -0.028 C 
ATOM     20  C   UNL     1      32.287 -13.413 -20.694  0.00  0.00    -0.023 C 
ATOM     21  C   UNL     1      33.570 -12.784 -22.642  0.00  0.00    -0.006 C 
ATOM     22  C   UNL     1      32.837 -11.602 -22.743  0.00  0.00    +0.012 C 
ATOM     23  C   UNL     1      31.553 -12.231 -20.795  0.00  0.00    +0.032 C 
ATOM     24  C   UNL     1      31.829 -11.326 -21.820  0.00  0.00    +0.135 C 
ATOM     25  C   UNL     1      31.976 -14.367 -19.589  0.00  0.00    +0.031 C 
ATOM     26  C   UNL     1      33.144 -10.645 -23.848  0.00  0.00    +0.034 C 
BRANCH  24  27
ATOM     27  O   UNL     1      31.103 -10.175 -21.904  0.00  0.00    -0.464 OA
BRANCH  27  28
ATOM     28  C   UNL     1      30.846  -9.481 -20.685  0.00  0.00    +0.314 C 
BRANCH  28  30
ATOM     29  O   UNL     1      32.099  -7.603 -21.581  0.00  0.00    -0.246 OA
ATOM     30  C   UNL     1      31.685  -8.235 -20.622  0.00  0.00    +0.359 C 
BRANCH  30  31
ATOM     31  O   UNL     1      31.926  -7.897 -19.330  0.00  0.00    -0.478 OA
ATOM     32  H   UNL     1      32.471  -7.162 -19.132  0.00  0.00    +0.295 HD
ENDBRANCH  30  31
ENDBRANCH  28  30
ENDBRANCH  27  28
ENDBRANCH  24  27
ENDBRANCH  18  19
ENDBRANCH  17  18
ENDBRANCH   1  17
TORSDOF 12
ENDMDL
MODEL 2
REMARK VINA RESULT:     -10.9      5.455      8.455
REMARK  Name = 9820882
REMARK  12 active torsions:
REMARK  status: ('A' for Active; 'I' for Inactive)
REMARK    1  A    between atoms: N_1  and  C_4
REMARK    2  A    between atoms: N_1  and  C_17
REMARK    3  A    between atoms: C_4  and  C_6
REMARK    4  A    between atoms: C_6  and  C_7
REMARK    5  A    between atoms: C_6  and  O_15
REMARK    6  A    between atoms: C_12  and  O_13
REMARK    7  A    between atoms: C_17  and  C_18
REMARK    8  A    between atoms: C_18  and  C_19
REMARK    9  A    between atoms: C_24  and  O_27
REMARK   10  A    between atoms: O_27  and  C_28
REMARK   11  A    between atoms: C_28  and  C_30
REMARK   12  A    between atoms: C_30  and  O_31
REMARK                            x       y       z     vdW  Elec       q    Type
REMARK                         _______ _______ _______ _____ _____    ______ ____
ROOT
ATOM      1  N   UNL     1      36.831 -22.054 -16.825  0.00  0.00    +0.387 N 
ATOM      2  H   UNL     1      36.723 -22.920 -17.351  0.00  0.00    -0.084 HD
ATOM      3  H   UNL     1      37.819 -21.814 -16.741  0.00  0.00    -0.084 HD
ENDROOT
BRANCH   1   4
ATOM      4  C   UNL     1      36.270 -22.233 -15.479  0.00  0.00    -0.030 C 
ATOM      5  C   UNL     1      34.765 -22.466 -15.622  0.00  0.00    -0.021 C 
BRANCH   4   6
ATOM      6  C   UNL     1      36.988 -23.404 -14.772  0.00  0.00    +0.113 C 
BRANCH   6   7
ATOM      7  C   UNL     1      36.651 -23.524 -13.301  0.00  0.00    +0.002 C 
ATOM      8  C   UNL     1      36.187 -24.731 -12.811  0.00  0.00    +0.001 C 
ATOM      9  C   UNL     1      36.814 -22.422 -12.480  0.00  0.00    +0.001 C 
ATOM     10  C   UNL     1      35.875 -24.841 -11.455  0.00  0.00    +0.036 C 
ATOM     11  C   UNL     1      36.502 -22.531 -11.124  0.00  0.00    +0.036 C 
ATOM     12  C   UNL     1      36.033 -23.741 -10.612  0.00  0.00    +0.134 C 
BRANCH  12  13
ATOM     13  O   UNL     1      35.730 -23.850  -9.290  0.00  0.00    -0.506 OA
ATOM     14  H   UNL     1      35.872 -24.660  -8.841  0.00  0.00    +0.292 HD
ENDBRANCH  12  13
ENDBRANCH   6   7
BRANCH   6  15
ATOM     15  O   UNL     1      36.621 -24.644 -15.382  0.00  0.00    -0.382 OA
ATOM     16  H   UNL     1      35.674 -24.631 -15.595  0.00  0.00    +0.211 HD
ENDBRANCH   6  15
ENDBRANCH   4   6
ENDBRANCH   1   4
BRANCH   1  17
ATOM     17  C   UNL     1      36.145 -20.981 -17.524  0.00  0.00    -0.077 C 
BRANCH  17  18
ATOM     18  C   UNL     1      35.234 -21.536 -18.619  0.00  0.00    +0.003 C 
BRANCH  18  19
ATOM     19  C   UNL     1      34.955 -20.504 -19.683  0.00  0.00    -0.028 C 
ATOM     20  C   UNL     1      33.653 -20.249 -20.090  0.00  0.00    -0.023 C 
ATOM     21  C   UNL     1      36.026 -19.820 -20.241  0.00  0.00    -0.006 C 
ATOM     22  C   UNL     1      35.790 -18.862 -21.226  0.00  0.00    +0.012 C 
ATOM     23  C   UNL     1      33.417 -19.290 -21.076  0.00  0.00    +0.032 C 
ATOM     24  C   UNL     1      34.486 -18.597 -21.643  0.00  0.00    +0.135 C 
ATOM     25  C   UNL     1      32.494 -20.978 -19.495  0.00  0.00    +0.031 C 
ATOM     26  C   UNL     1      36.947 -18.131 -21.825  0.00  0.00    +0.034 C 
BRANCH  24  27
ATOM     27  O   UNL     1      34.239 -17.664 -22.605  0.00  0.00    -0.464 OA
BRANCH  27  28
ATOM     28  C   UNL     1      33.734 -18.137 -23.852  0.00  0.00    +0.314 C 
BRANCH  28  30
ATOM     29  O   UNL     1      34.090 -16.027 -25.005  0.00  0.00    -0.246 OA
ATOM     30  C   UNL     1      33.365 -16.971 -24.727  0.00  0.00    +0.359 C 
BRANCH  30  31
ATOM     31  O   UNL     1      32.092 -17.108 -25.179  0.00  0.00    -0.478 OA
ATOM     32  H   UNL     1      31.871 -17.823 -25.743  0.00  0.00    +0.295 HD
ENDBRANCH  30  31
ENDBRANCH  28  30
ENDBRANCH  27  28
ENDBRANCH  24  27
ENDBRANCH  18  19
ENDBRANCH  17  18
ENDBRANCH   1  17
TORSDOF 12
ENDMDL
MODEL 3
REMARK VINA RESULT:     -10.8      3.168     10.872
REMARK  Name = 9820882
REMARK  12 active torsions:
REMARK  status: ('A' for Active; 'I' for Inactive)
REMARK    1  A    between atoms: N_1  and  C_4
REMARK    2  A    between atoms: N_1  and  C_17
REMARK    3  A    between atoms: C_4  and  C_6
REMARK    4  A    between atoms: C_6  and  C_7
REMARK    5  A    between atoms: C_6  and  O_15
REMARK    6  A    between atoms: C_12  and  O_13
REMARK    7  A    between atoms: C_17  and  C_18
REMARK    8  A    between atoms: C_18  and  C_19
REMARK    9  A    between atoms: C_24  and  O_27
REMARK   10  A    between atoms: O_27  and  C_28
REMARK   11  A    between atoms: C_28  and  C_30
REMARK   12  A    between atoms: C_30  and  O_31
REMARK                            x       y       z     vdW  Elec       q    Type
REMARK                         _______ _______ _______ _____ _____    ______ ____
ROOT
ATOM      1  N   UNL     1      33.938 -19.501 -20.493  0.00  0.00    +0.387 N 
ATOM      2  H   UNL     1      33.508 -19.689 -21.398  0.00  0.00    -0.084 HD
ATOM      3  H   UNL     1      33.242 -19.142 -19.841  0.00  0.00    -0.084 HD
ENDROOT
BRANCH   1   4
ATOM      4  C   UNL     1      34.995 -18.494 -20.660  0.00  0.00    -0.030 C 
ATOM      5  C   UNL     1      36.337 -19.164 -20.357  0.00  0.00    -0.021 C 
BRANCH   4   6
ATOM      6  C   UNL     1      34.932 -17.911 -22.089  0.00  0.00    +0.113 C 
BRANCH   6   7
ATOM      7  C   UNL     1      34.515 -16.456 -22.134  0.00  0.00    +0.002 C 
ATOM      8  C   UNL     1      34.404 -15.823 -23.359  0.00  0.00    +0.001 C 
ATOM      9  C   UNL     1      34.255 -15.792 -20.948  0.00  0.00    +0.001 C 
ATOM     10  C   UNL     1      34.022 -14.482 -23.399  0.00  0.00    +0.036 C 
ATOM     11  C   UNL     1      33.872 -14.452 -20.988  0.00  0.00    +0.036 C 
ATOM     12  C   UNL     1      33.755 -13.796 -22.214  0.00  0.00    +0.134 C 
BRANCH  12  13
ATOM     13  O   UNL     1      33.381 -12.489 -22.255  0.00  0.00    -0.506 OA
ATOM     14  H   UNL     1      33.612 -11.912 -21.553  0.00  0.00    +0.292 HD
ENDBRANCH  12  13
ENDBRANCH   6   7
BRANCH   6  15
ATOM     15  O   UNL     1      36.218 -17.991 -22.708  0.00  0.00    -0.382 OA
ATOM     16  H   UNL     1      36.129 -18.388 -23.589  0.00  0.00    +0.211 HD
ENDBRANCH   6  15
ENDBRANCH   4   6
ENDBRANCH   1   4
BRANCH   1  17
ATOM     17  C   UNL     1      34.490 -20.735 -19.960  0.00  0.00    -0.077 C 
BRANCH  17  18
ATOM     18  C   UNL     1      33.471 -21.453 -19.075  0.00  0.00    +0.003 C 
BRANCH  18  19
ATOM     19  C   UNL     1      34.085 -21.895 -17.771  0.00  0.00    -0.028 C 
ATOM     20  C   UNL     1      33.306 -22.502 -16.797  0.00  0.00    -0.023 C 
ATOM     21  C   UNL     1      35.442 -21.681 -17.571  0.00  0.00    -0.006 C 
ATOM     22  C   UNL     1      36.030 -22.082 -16.371  0.00  0.00    +0.012 C 
ATOM     23  C   UNL     1      33.894 -22.903 -15.597  0.00  0.00    +0.032 C 
ATOM     24  C   UNL     1      35.257 -22.692 -15.385  0.00  0.00    +0.135 C 
ATOM     25  C   UNL     1      31.846 -22.738 -17.003  0.00  0.00    +0.031 C 
ATOM     26  C   UNL     1      37.490 -21.846 -16.160  0.00  0.00    +0.034 C 
BRANCH  24  27
ATOM     27  O   UNL     1      35.816 -23.090 -14.208  0.00  0.00    -0.464 OA
BRANCH  27  28
ATOM     28  C   UNL     1      35.595 -24.442 -13.810  0.00  0.00    +0.314 C 
BRANCH  28  30
ATOM     29  O   UNL     1      35.660 -26.214 -15.471  0.00  0.00    -0.246 OA
ATOM     30  C   UNL     1      36.239 -25.375 -14.798  0.00  0.00    +0.359 C 
BRANCH  30  31
ATOM     31  O   UNL     1      37.578 -25.156 -14.846  0.00  0.00    -0.478 OA
ATOM     32  H   UNL     1      38.105 -25.614 -15.471  0.00  0.00    +0.295 HD
ENDBRANCH  30  31
ENDBRANCH  28  30
ENDBRANCH  27  28
ENDBRANCH  24  27
ENDBRANCH  18  19
ENDBRANCH  17  18
ENDBRANCH   1  17
TORSDOF 12
ENDMDL
MODEL 4
REMARK VINA RESULT:     -10.7      4.673     11.268
REMARK  Name = 9820882
REMARK  12 active torsions:
REMARK  status: ('A' for Active; 'I' for Inactive)
REMARK    1  A    between atoms: N_1  and  C_4
REMARK    2  A    between atoms: N_1  and  C_17
REMARK    3  A    between atoms: C_4  and  C_6
REMARK    4  A    between atoms: C_6  and  C_7
REMARK    5  A    between atoms: C_6  and  O_15
REMARK    6  A    between atoms: C_12  and  O_13
REMARK    7  A    between atoms: C_17  and  C_18
REMARK    8  A    between atoms: C_18  and  C_19
REMARK    9  A    between atoms: C_24  and  O_27
REMARK   10  A    between atoms: O_27  and  C_28
REMARK   11  A    between atoms: C_28  and  C_30
REMARK   12  A    between atoms: C_30  and  O_31
REMARK                            x       y       z     vdW  Elec       q    Type
REMARK                         _______ _______ _______ _____ _____    ______ ____
ROOT
ATOM      1  N   UNL     1      35.198 -20.290 -19.428  0.00  0.00    +0.387 N 
ATOM      2  H   UNL     1      34.771 -19.678 -18.732  0.00  0.00    -0.084 HD
ATOM      3  H   UNL     1      36.210 -20.164 -19.434  0.00  0.00    -0.084 HD
ENDROOT
BRANCH   1   4
ATOM      4  C   UNL     1      34.671 -19.951 -20.757  0.00  0.00    -0.030 C 
ATOM      5  C   UNL     1      33.211 -19.521 -20.590  0.00  0.00    -0.021 C 
BRANCH   4   6
ATOM      6  C   UNL     1      35.545 -18.848 -21.394  0.00  0.00    +0.113 C 
BRANCH   6   7
ATOM      7  C   UNL     1      34.819 -18.021 -22.434  0.00  0.00    +0.002 C 
ATOM      8  C   UNL     1      34.125 -18.664 -23.443  0.00  0.00    +0.001 C 
ATOM      9  C   UNL     1      34.867 -16.641 -22.352  0.00  0.00    +0.001 C 
ATOM     10  C   UNL     1      33.457 -17.902 -24.403  0.00  0.00    +0.036 C 
ATOM     11  C   UNL     1      34.199 -15.879 -23.310  0.00  0.00    +0.036 C 
ATOM     12  C   UNL     1      33.494 -16.510 -24.336  0.00  0.00    +0.134 C 
BRANCH  12  13
ATOM     13  O   UNL     1      32.841 -15.768 -25.271  0.00  0.00    -0.506 OA
ATOM     14  H   UNL     1      33.232 -14.983 -25.604  0.00  0.00    +0.292 HD
ENDBRANCH  12  13
ENDBRANCH   6   7
BRANCH   6  15
ATOM     15  O   UNL     1      35.997 -17.938 -20.387  0.00  0.00    -0.382 OA
ATOM     16  H   UNL     1      36.966 -17.969 -20.335  0.00  0.00    +0.211 HD
ENDBRANCH   6  15
ENDBRANCH   4   6
ENDBRANCH   1   4
BRANCH   1  17
ATOM     17  C   UNL     1      34.898 -21.672 -19.099  0.00  0.00    -0.077 C 
BRANCH  17  18
ATOM     18  C   UNL     1      33.748 -21.759 -18.095  0.00  0.00    +0.003 C 
BRANCH  18  19
ATOM     19  C   UNL     1      34.200 -22.353 -16.785  0.00  0.00    -0.028 C 
ATOM     20  C   UNL     1      33.278 -22.906 -15.909  0.00  0.00    -0.023 C 
ATOM     21  C   UNL     1      35.554 -22.332 -16.480  0.00  0.00    -0.006 C 
ATOM     22  C   UNL     1      35.994 -22.876 -15.273  0.00  0.00    +0.012 C 
ATOM     23  C   UNL     1      33.717 -23.450 -14.701  0.00  0.00    +0.032 C 
ATOM     24  C   UNL     1      35.075 -23.434 -14.384  0.00  0.00    +0.135 C 
ATOM     25  C   UNL     1      31.819 -22.934 -16.228  0.00  0.00    +0.031 C 
ATOM     26  C   UNL     1      37.451 -22.849 -14.949  0.00  0.00    +0.034 C 
BRANCH  24  27
ATOM     27  O   UNL     1      35.489 -23.970 -13.201  0.00  0.00    -0.464 OA
BRANCH  27  28
ATOM     28  C   UNL     1      34.724 -23.646 -12.042  0.00  0.00    +0.314 C 
BRANCH  28  30
ATOM     29  O   UNL     1      35.155 -23.952  -9.670  0.00  0.00    -0.246 OA
ATOM     30  C   UNL     1      35.340 -24.289 -10.830  0.00  0.00    +0.359 C 
BRANCH  30  31
ATOM     31  O   UNL     1      36.144 -25.317 -11.202  0.00  0.00    -0.478 OA
ATOM     32  H   UNL     1      37.066 -25.271 -11.045  0.00  0.00    +0.295 HD
ENDBRANCH  30  31
ENDBRANCH  28  30
ENDBRANCH  27  28
ENDBRANCH  24  27
ENDBRANCH  18  19
ENDBRANCH  17  18
ENDBRANCH   1  17
TORSDOF 12
ENDMDL
MODEL 5
REMARK VINA RESULT:     -10.7      4.148     10.632
REMARK  Name = 9820882
REMARK  12 active torsions:
REMARK  status: ('A' for Active; 'I' for Inactive)
REMARK    1  A    between atoms: N_1  and  C_4
REMARK    2  A    between atoms: N_1  and  C_17
REMARK    3  A    between atoms: C_4  and  C_6
REMARK    4  A    between atoms: C_6  and  C_7
REMARK    5  A    between atoms: C_6  and  O_15
REMARK    6  A    between atoms: C_12  and  O_13
REMARK    7  A    between atoms: C_17  and  C_18
REMARK    8  A    between atoms: C_18  and  C_19
REMARK    9  A    between atoms: C_24  and  O_27
REMARK   10  A    between atoms: O_27  and  C_28
REMARK   11  A    between atoms: C_28  and  C_30
REMARK   12  A    between atoms: C_30  and  O_31
REMARK                            x       y       z     vdW  Elec       q    Type
REMARK                         _______ _______ _______ _____ _____    ______ ____
ROOT
ATOM      1  N   UNL     1      35.998 -19.604 -20.336  0.00  0.00    +0.387 N 
ATOM      2  H   UNL     1      36.396 -18.896 -19.718  0.00  0.00    -0.084 HD
ATOM      3  H   UNL     1      36.735 -20.046 -20.885  0.00  0.00    -0.084 HD
ENDROOT
BRANCH   1   4
ATOM      4  C   UNL     1      35.043 -18.964 -21.251  0.00  0.00    -0.030 C 
ATOM      5  C   UNL     1      33.631 -19.245 -20.733  0.00  0.00    -0.021 C 
BRANCH   4   6
ATOM      6  C   UNL     1      35.351 -17.453 -21.345  0.00  0.00    +0.113 C 
BRANCH   6   7
ATOM      7  C   UNL     1      34.689 -16.770 -22.523  0.00  0.00    +0.002 C 
ATOM      8  C   UNL     1      34.274 -17.532 -23.600  0.00  0.00    +0.001 C 
ATOM      9  C   UNL     1      34.513 -15.398 -22.495  0.00  0.00    +0.001 C 
ATOM     10  C   UNL     1      33.665 -16.902 -24.686  0.00  0.00    +0.036 C 
ATOM     11  C   UNL     1      33.904 -14.767 -23.580  0.00  0.00    +0.036 C 
ATOM     12  C   UNL     1      33.480 -15.520 -24.675  0.00  0.00    +0.134 C 
BRANCH  12  13
ATOM     13  O   UNL     1      32.884 -14.906 -25.734  0.00  0.00    -0.506 OA
ATOM     14  H   UNL     1      32.263 -15.373 -26.258  0.00  0.00    +0.292 HD
ENDBRANCH  12  13
ENDBRANCH   6   7
BRANCH   6  15
ATOM     15  O   UNL     1      34.890 -16.784 -20.168  0.00  0.00    -0.382 OA
ATOM     16  H   UNL     1      35.298 -15.905 -20.115  0.00  0.00    +0.211 HD
ENDBRANCH   6  15
ENDBRANCH   4   6
ENDBRANCH   1   4
BRANCH   1  17
ATOM     17  C   UNL     1      35.335 -20.618 -19.536  0.00  0.00    -0.077 C 
BRANCH  17  18
ATOM     18  C   UNL     1      36.172 -20.984 -18.310  0.00  0.00    +0.003 C 
BRANCH  18  19
ATOM     19  C   UNL     1      35.375 -21.789 -17.315  0.00  0.00    -0.028 C 
ATOM     20  C   UNL     1      35.984 -22.309 -16.182  0.00  0.00    -0.023 C 
ATOM     21  C   UNL     1      34.024 -21.995 -17.559  0.00  0.00    -0.006 C 
ATOM     22  C   UNL     1      33.268 -22.737 -16.651  0.00  0.00    +0.012 C 
ATOM     23  C   UNL     1      35.229 -23.050 -15.274  0.00  0.00    +0.032 C 
ATOM     24  C   UNL     1      33.871 -23.264 -15.509  0.00  0.00    +0.135 C 
ATOM     25  C   UNL     1      37.437 -22.091 -15.910  0.00  0.00    +0.031 C 
ATOM     26  C   UNL     1      31.816 -22.957 -16.920  0.00  0.00    +0.034 C 
BRANCH  24  27
ATOM     27  O   UNL     1      33.146 -23.990 -14.612  0.00  0.00    -0.464 OA
BRANCH  27  28
ATOM     28  C   UNL     1      32.673 -23.304 -13.455  0.00  0.00    +0.314 C 
BRANCH  28  30
ATOM     29  O   UNL     1      30.487 -23.163 -12.405  0.00  0.00    -0.246 OA
ATOM     30  C   UNL     1      31.270 -23.745 -13.140  0.00  0.00    +0.359 C 
BRANCH  30  31
ATOM     31  O   UNL     1      30.982 -24.897 -13.796  0.00  0.00    -0.478 OA
ATOM     32  H   UNL     1      30.172 -25.339 -13.632  0.00  0.00    +0.295 HD
ENDBRANCH  30  31
ENDBRANCH  28  30
ENDBRANCH  27  28
ENDBRANCH  24  27
ENDBRANCH  18  19
ENDBRANCH  17  18
ENDBRANCH   1  17
TORSDOF 12
ENDMDL
MODEL 6
REMARK VINA RESULT:     -10.6      3.576     10.684
REMARK  Name = 9820882
REMARK  12 active torsions:
REMARK  status: ('A' for Active; 'I' for Inactive)
REMARK    1  A    between atoms: N_1  and  C_4
REMARK    2  A    between atoms: N_1  and  C_17
REMARK    3  A    between atoms: C_4  and  C_6
REMARK    4  A    between atoms: C_6  and  C_7
REMARK    5  A    between atoms: C_6  and  O_15
REMARK    6  A    between atoms: C_12  and  O_13
REMARK    7  A    between atoms: C_17  and  C_18
REMARK    8  A    between atoms: C_18  and  C_19
REMARK    9  A    between atoms: C_24  and  O_27
REMARK   10  A    between atoms: O_27  and  C_28
REMARK   11  A    between atoms: C_28  and  C_30
REMARK   12  A    between atoms: C_30  and  O_31
REMARK                            x       y       z     vdW  Elec       q    Type
REMARK                         _______ _______ _______ _____ _____    ______ ____
ROOT
ATOM      1  N   UNL     1      36.274 -18.910 -21.210  0.00  0.00    +0.387 N 
ATOM      2  H   UNL     1      37.025 -18.226 -21.111  0.00  0.00    -0.084 HD
ATOM      3  H   UNL     1      36.588 -19.696 -21.779  0.00  0.00    -0.084 HD
ENDROOT
BRANCH   1   4
ATOM      4  C   UNL     1      35.127 -18.274 -21.871  0.00  0.00    -0.030 C 
ATOM      5  C   UNL     1      33.850 -18.899 -21.303  0.00  0.00    -0.021 C 
BRANCH   4   6
ATOM      6  C   UNL     1      35.187 -16.746 -21.654  0.00  0.00    +0.113 C 
BRANCH   6   7
ATOM      7  C   UNL     1      34.443 -15.953 -22.707  0.00  0.00    +0.002 C 
ATOM      8  C   UNL     1      34.174 -16.540 -23.930  0.00  0.00    +0.001 C 
ATOM      9  C   UNL     1      34.047 -14.658 -22.421  0.00  0.00    +0.001 C 
ATOM     10  C   UNL     1      33.489 -15.808 -24.901  0.00  0.00    +0.036 C 
ATOM     11  C   UNL     1      33.362 -13.926 -23.391  0.00  0.00    +0.036 C 
ATOM     12  C   UNL     1      33.083 -14.501 -24.631  0.00  0.00    +0.134 C 
BRANCH  12  13
ATOM     13  O   UNL     1      32.413 -13.789 -25.578  0.00  0.00    -0.506 OA
ATOM     14  H   UNL     1      32.769 -12.982 -25.897  0.00  0.00    +0.292 HD
ENDBRANCH  12  13
ENDBRANCH   6   7
BRANCH   6  15
ATOM     15  O   UNL     1      34.605 -16.406 -20.393  0.00  0.00    -0.382 OA
ATOM     16  H   UNL     1      34.018 -17.123 -20.104  0.00  0.00    +0.211 HD
ENDBRANCH   6  15
ENDBRANCH   4   6
ENDBRANCH   1   4
BRANCH   1  17
ATOM     17  C   UNL     1      35.899 -19.401 -19.896  0.00  0.00    -0.077 C 
BRANCH  17  18
ATOM     18  C   UNL     1      35.664 -20.911 -19.921  0.00  0.00    +0.003 C 
BRANCH  18  19
ATOM     19  C   UNL     1      35.365 -21.448 -18.545  0.00  0.00    -0.028 C 
ATOM     20  C   UNL     1      34.091 -21.893 -18.225  0.00  0.00    -0.023 C 
ATOM     21  C   UNL     1      36.392 -21.487 -17.610  0.00  0.00    -0.006 C 
ATOM     22  C   UNL     1      36.136 -21.979 -16.331  0.00  0.00    +0.012 C 
ATOM     23  C   UNL     1      33.835 -22.386 -16.945  0.00  0.00    +0.032 C 
ATOM     24  C   UNL     1      34.859 -22.429 -15.998  0.00  0.00    +0.135 C 
ATOM     25  C   UNL     1      32.980 -21.857 -19.223  0.00  0.00    +0.031 C 
ATOM     26  C   UNL     1      37.244 -22.016 -15.329  0.00  0.00    +0.034 C 
BRANCH  24  27
ATOM     27  O   UNL     1      34.593 -22.914 -14.753  0.00  0.00    -0.464 OA
BRANCH  27  28
ATOM     28  C   UNL     1      34.168 -24.272 -14.664  0.00  0.00    +0.314 C 
BRANCH  28  30
ATOM     29  O   UNL     1      35.597 -26.083 -15.428  0.00  0.00    -0.246 OA
ATOM     30  C   UNL     1      35.367 -25.180 -14.638  0.00  0.00    +0.359 C 
BRANCH  30  31
ATOM     31  O   UNL     1      36.178 -24.856 -13.599  0.00  0.00    -0.478 OA
ATOM     32  H   UNL     1      36.508 -23.983 -13.518  0.00  0.00    +0.295 HD
ENDBRANCH  30  31
ENDBRANCH  28  30
ENDBRANCH  27  28
ENDBRANCH  24  27
ENDBRANCH  18  19
ENDBRANCH  17  18
ENDBRANCH   1  17
TORSDOF 12
ENDMDL
MODEL 7
REMARK VINA RESULT:     -10.5      5.546      9.530
REMARK  Name = 9820882
REMARK  12 active torsions:
REMARK  status: ('A' for Active; 'I' for Inactive)
REMARK    1  A    between atoms: N_1  and  C_4
REMARK    2  A    between atoms: N_1  and  C_17
REMARK    3  A    between atoms: C_4  and  C_6
REMARK    4  A    between atoms: C_6  and  C_7
REMARK    5  A    between atoms: C_6  and  O_15
REMARK    6  A    between atoms: C_12  and  O_13
REMARK    7  A    between atoms: C_17  and  C_18
REMARK    8  A    between atoms: C_18  and  C_19
REMARK    9  A    between atoms: C_24  and  O_27
REMARK   10  A    between atoms: O_27  and  C_28
REMARK   11  A    between atoms: C_28  and  C_30
REMARK   12  A    between atoms: C_30  and  O_31
REMARK                            x       y       z     vdW  Elec       q    Type
REMARK                         _______ _______ _______ _____ _____    ______ ____
ROOT
ATOM      1  N   UNL     1      32.571 -22.564 -14.558  0.00  0.00    +0.387 N 
ATOM      2  H   UNL     1      33.462 -22.238 -14.184  0.00  0.00    -0.084 HD
ATOM      3  H   UNL     1      31.868 -21.829 -14.483  0.00  0.00    -0.084 HD
ENDROOT
BRANCH   1   4
ATOM      4  C   UNL     1      32.122 -23.731 -13.788  0.00  0.00    -0.030 C 
ATOM      5  C   UNL     1      33.125 -23.964 -12.656  0.00  0.00    -0.021 C 
BRANCH   4   6
ATOM      6  C   UNL     1      30.687 -23.488 -13.270  0.00  0.00    +0.113 C 
BRANCH   6   7
ATOM      7  C   UNL     1      29.653 -23.388 -14.371  0.00  0.00    +0.002 C 
ATOM      8  C   UNL     1      29.249 -24.538 -15.025  0.00  0.00    +0.001 C 
ATOM      9  C   UNL     1      29.134 -22.147 -14.697  0.00  0.00    +0.001 C 
ATOM     10  C   UNL     1      28.296 -24.444 -16.041  0.00  0.00    +0.036 C 
ATOM     11  C   UNL     1      28.181 -22.054 -15.712  0.00  0.00    +0.036 C 
ATOM     12  C   UNL     1      27.762 -23.203 -16.383  0.00  0.00    +0.134 C 
BRANCH  12  13
ATOM     13  O   UNL     1      26.832 -23.113 -17.372  0.00  0.00    -0.506 OA
ATOM     14  H   UNL     1      27.093 -22.877 -18.242  0.00  0.00    +0.292 HD
ENDBRANCH  12  13
ENDBRANCH   6   7
BRANCH   6  15
ATOM     15  O   UNL     1      30.283 -24.566 -12.422  0.00  0.00    -0.382 OA
ATOM     16  H   UNL     1      30.220 -24.250 -11.506  0.00  0.00    +0.211 HD
ENDBRANCH   6  15
ENDBRANCH   4   6
ENDBRANCH   1   4
BRANCH   1  17
ATOM     17  C   UNL     1      32.740 -22.911 -15.958  0.00  0.00    -0.077 C 
BRANCH  17  18
ATOM     18  C   UNL     1      34.202 -22.781 -16.384  0.00  0.00    +0.003 C 
BRANCH  18  19
ATOM     19  C   UNL     1      34.346 -21.928 -17.618  0.00  0.00    -0.028 C 
ATOM     20  C   UNL     1      35.586 -21.423 -17.984  0.00  0.00    -0.023 C 
ATOM     21  C   UNL     1      33.214 -21.661 -18.376  0.00  0.00    -0.006 C 
ATOM     22  C   UNL     1      33.325 -20.873 -19.521  0.00  0.00    +0.012 C 
ATOM     23  C   UNL     1      35.697 -20.635 -19.129  0.00  0.00    +0.032 C 
ATOM     24  C   UNL     1      34.566 -20.361 -19.898  0.00  0.00    +0.135 C 
ATOM     25  C   UNL     1      36.810 -21.706 -17.177  0.00  0.00    +0.031 C 
ATOM     26  C   UNL     1      32.102 -20.587 -20.331  0.00  0.00    +0.034 C 
BRANCH  24  27
ATOM     27  O   UNL     1      34.691 -19.590 -21.015  0.00  0.00    -0.464 OA
BRANCH  27  28
ATOM     28  C   UNL     1      35.760 -18.647 -21.034  0.00  0.00    +0.314 C 
BRANCH  28  30
ATOM     29  O   UNL     1      34.721 -16.506 -20.544  0.00  0.00    -0.246 OA
ATOM     30  C   UNL     1      35.226 -17.276 -21.347  0.00  0.00    +0.359 C 
BRANCH  30  31
ATOM     31  O   UNL     1      35.383 -17.002 -22.666  0.00  0.00    -0.478 OA
ATOM     32  H   UNL     1      36.052 -17.436 -23.158  0.00  0.00    +0.295 HD
ENDBRANCH  30  31
ENDBRANCH  28  30
ENDBRANCH  27  28
ENDBRANCH  24  27
ENDBRANCH  18  19
ENDBRANCH  17  18
ENDBRANCH   1  17
TORSDOF 12
ENDMDL
MODEL 8
REMARK VINA RESULT:     -10.5      5.587      7.923
REMARK  Name = 9820882
REMARK  12 active torsions:
REMARK  status: ('A' for Active; 'I' for Inactive)
REMARK    1  A    between atoms: N_1  and  C_4
REMARK    2  A    between atoms: N_1  and  C_17
REMARK    3  A    between atoms: C_4  and  C_6
REMARK    4  A    between atoms: C_6  and  C_7
REMARK    5  A    between atoms: C_6  and  O_15
REMARK    6  A    between atoms: C_12  and  O_13
REMARK    7  A    between atoms: C_17  and  C_18
REMARK    8  A    between atoms: C_18  and  C_19
REMARK    9  A    between atoms: C_24  and  O_27
REMARK   10  A    between atoms: O_27  and  C_28
REMARK   11  A    between atoms: C_28  and  C_30
REMARK   12  A    between atoms: C_30  and  O_31
REMARK                            x       y       z     vdW  Elec       q    Type
REMARK                         _______ _______ _______ _____ _____    ______ ____
ROOT
ATOM      1  N   UNL     1      36.024 -21.175 -16.089  0.00  0.00    +0.387 N 
ATOM      2  H   UNL     1      36.667 -20.627 -15.518  0.00  0.00    -0.084 HD
ATOM      3  H   UNL     1      35.075 -20.814 -15.994  0.00  0.00    -0.084 HD
ENDROOT
BRANCH   1   4
ATOM      4  C   UNL     1      36.048 -22.573 -15.639  0.00  0.00    -0.030 C 
ATOM      5  C   UNL     1      37.509 -22.975 -15.425  0.00  0.00    -0.021 C 
BRANCH   4   6
ATOM      6  C   UNL     1      35.199 -22.717 -14.357  0.00  0.00    +0.113 C 
BRANCH   6   7
ATOM      7  C   UNL     1      33.734 -22.990 -14.625  0.00  0.00    +0.002 C 
ATOM      8  C   UNL     1      32.940 -23.477 -13.603  0.00  0.00    +0.001 C 
ATOM      9  C   UNL     1      33.223 -22.745 -15.887  0.00  0.00    +0.001 C 
ATOM     10  C   UNL     1      31.590 -23.730 -13.851  0.00  0.00    +0.036 C 
ATOM     11  C   UNL     1      31.874 -22.998 -16.136  0.00  0.00    +0.036 C 
ATOM     12  C   UNL     1      31.058 -23.490 -15.117  0.00  0.00    +0.134 C 
BRANCH  12  13
ATOM     13  O   UNL     1      29.741 -23.735 -15.358  0.00  0.00    -0.506 OA
ATOM     14  H   UNL     1      29.294 -24.406 -14.880  0.00  0.00    +0.292 HD
ENDBRANCH  12  13
ENDBRANCH   6   7
BRANCH   6  15
ATOM     15  O   UNL     1      35.684 -23.807 -13.568  0.00  0.00    -0.382 OA
ATOM     16  H   UNL     1      36.637 -23.699 -13.418  0.00  0.00    +0.211 HD
ENDBRANCH   6  15
ENDBRANCH   4   6
ENDBRANCH   1   4
BRANCH   1  17
ATOM     17  C   UNL     1      36.425 -21.081 -17.482  0.00  0.00    -0.077 C 
BRANCH  17  18
ATOM     18  C   UNL     1      35.325 -21.603 -18.406  0.00  0.00    +0.003 C 
BRANCH  18  19
ATOM     19  C   UNL     1      34.998 -20.610 -19.493  0.00  0.00    -0.028 C 
ATOM     20  C   UNL     1      33.685 -20.419 -19.899  0.00  0.00    -0.023 C 
ATOM     21  C   UNL     1      36.037 -19.897 -20.074  0.00  0.00    -0.006 C 
ATOM     22  C   UNL     1      35.757 -18.974 -21.082  0.00  0.00    +0.012 C 
ATOM     23  C   UNL     1      33.404 -19.496 -20.907  0.00  0.00    +0.032 C 
ATOM     24  C   UNL     1      34.441 -18.774 -21.498  0.00  0.00    +0.135 C 
ATOM     25  C   UNL     1      32.559 -21.180 -19.279  0.00  0.00    +0.031 C 
ATOM     26  C   UNL     1      36.880 -18.212 -21.705  0.00  0.00    +0.034 C 
BRANCH  24  27
ATOM     27  O   UNL     1      34.150 -17.876 -22.481  0.00  0.00    -0.464 OA
BRANCH  27  28
ATOM     28  C   UNL     1      33.806 -18.405 -23.760  0.00  0.00    +0.314 C 
BRANCH  28  30
ATOM     29  O   UNL     1      34.038 -16.297 -24.946  0.00  0.00    -0.246 OA
ATOM     30  C   UNL     1      33.379 -17.290 -24.674  0.00  0.00    +0.359 C 
BRANCH  30  31
ATOM     31  O   UNL     1      32.141 -17.537 -25.169  0.00  0.00    -0.478 OA
ATOM     32  H   UNL     1      32.023 -17.674 -26.089  0.00  0.00    +0.295 HD
ENDBRANCH  30  31
ENDBRANCH  28  30
ENDBRANCH  27  28
ENDBRANCH  24  27
ENDBRANCH  18  19
ENDBRANCH  17  18
ENDBRANCH   1  17
TORSDOF 12
ENDMDL
MODEL 9
REMARK VINA RESULT:     -10.4      5.384      9.024
REMARK  Name = 9820882
REMARK  12 active torsions:
REMARK  status: ('A' for Active; 'I' for Inactive)
REMARK    1  A    between atoms: N_1  and  C_4
REMARK    2  A    between atoms: N_1  and  C_17
REMARK    3  A    between atoms: C_4  and  C_6
REMARK    4  A    between atoms: C_6  and  C_7
REMARK    5  A    between atoms: C_6  and  O_15
REMARK    6  A    between atoms: C_12  and  O_13
REMARK    7  A    between atoms: C_17  and  C_18
REMARK    8  A    between atoms: C_18  and  C_19
REMARK    9  A    between atoms: C_24  and  O_27
REMARK   10  A    between atoms: O_27  and  C_28
REMARK   11  A    between atoms: C_28  and  C_30
REMARK   12  A    between atoms: C_30  and  O_31
REMARK                            x       y       z     vdW  Elec       q    Type
REMARK                         _______ _______ _______ _____ _____    ______ ____
ROOT
ATOM      1  N   UNL     1      32.081 -23.721 -15.495  0.00  0.00    +0.387 N 
ATOM      2  H   UNL     1      31.078 -23.891 -15.433  0.00  0.00    -0.084 HD
ATOM      3  H   UNL     1      32.590 -24.605 -15.470  0.00  0.00    -0.084 HD
ENDROOT
BRANCH   1   4
ATOM      4  C   UNL     1      32.503 -22.898 -14.353  0.00  0.00    -0.030 C 
ATOM      5  C   UNL     1      31.245 -22.368 -13.663  0.00  0.00    -0.021 C 
BRANCH   4   6
ATOM      6  C   UNL     1      33.389 -23.741 -13.409  0.00  0.00    +0.113 C 
BRANCH   6   7
ATOM      7  C   UNL     1      34.842 -23.801 -13.830  0.00  0.00    +0.002 C 
ATOM      8  C   UNL     1      35.324 -24.951 -14.430  0.00  0.00    +0.001 C 
ATOM      9  C   UNL     1      35.655 -22.704 -13.606  0.00  0.00    +0.001 C 
ATOM     10  C   UNL     1      36.663 -25.007 -14.817  0.00  0.00    +0.036 C 
ATOM     11  C   UNL     1      36.994 -22.759 -13.994  0.00  0.00    +0.036 C 
ATOM     12  C   UNL     1      37.498 -23.911 -14.599  0.00  0.00    +0.134 C 
BRANCH  12  13
ATOM     13  O   UNL     1      38.804 -23.965 -14.978  0.00  0.00    -0.506 OA
ATOM     14  H   UNL     1      39.092 -24.630 -15.573  0.00  0.00    +0.292 HD
ENDBRANCH  12  13
ENDBRANCH   6   7
BRANCH   6  15
ATOM     15  O   UNL     1      33.365 -23.187 -12.091  0.00  0.00    -0.382 OA
ATOM     16  H   UNL     1      34.271 -22.977 -11.812  0.00  0.00    +0.211 HD
ENDBRANCH   6  15
ENDBRANCH   4   6
ENDBRANCH   1   4
BRANCH   1  17
ATOM     17  C   UNL     1      32.375 -23.045 -16.746  0.00  0.00    -0.077 C 
BRANCH  17  18
ATOM     18  C   UNL     1      33.818 -22.543 -16.773  0.00  0.00    +0.003 C 
BRANCH  18  19
ATOM     19  C   UNL     1      34.089 -21.698 -17.992  0.00  0.00    -0.028 C 
ATOM     20  C   UNL     1      35.384 -21.318 -18.312  0.00  0.00    -0.023 C 
ATOM     21  C   UNL     1      33.015 -21.313 -18.783  0.00  0.00    -0.006 C 
ATOM     22  C   UNL     1      33.242 -20.531 -19.916  0.00  0.00    +0.012 C 
ATOM     23  C   UNL     1      35.612 -20.537 -19.444  0.00  0.00    +0.032 C 
ATOM     24  C   UNL     1      34.541 -20.144 -20.246  0.00  0.00    +0.135 C 
ATOM     25  C   UNL     1      36.546 -21.729 -17.468  0.00  0.00    +0.031 C 
ATOM     26  C   UNL     1      32.083 -20.118 -20.762  0.00  0.00    +0.034 C 
BRANCH  24  27
ATOM     27  O   UNL     1      34.780 -19.381 -21.349  0.00  0.00    -0.464 OA
BRANCH  27  28
ATOM     28  C   UNL     1      35.749 -18.342 -21.221  0.00  0.00    +0.314 C 
BRANCH  28  30
ATOM     29  O   UNL     1      34.598 -16.323 -20.511  0.00  0.00    -0.246 OA
ATOM     30  C   UNL     1      35.087 -17.004 -21.400  0.00  0.00    +0.359 C 
BRANCH  30  31
ATOM     31  O   UNL     1      35.107 -16.642 -22.708  0.00  0.00    -0.478 OA
ATOM     32  H   UNL     1      35.590 -15.886 -22.977  0.00  0.00    +0.295 HD
ENDBRANCH  30  31
ENDBRANCH  28  30
ENDBRANCH  27  28
ENDBRANCH  24  27
ENDBRANCH  18  19
ENDBRANCH  17  18
ENDBRANCH   1  17
TORSDOF 12
ENDMDL
