MODEL 1
REMARK VINA RESULT:     -12.1      0.000      0.000
REMARK  Name = 71242808
REMARK  7 active torsions:
REMARK  status: ('A' for Active; 'I' for Inactive)
REMARK    1  A    between atoms: N_1  and  C_6
REMARK    2  A    between atoms: C_2  and  N_17
REMARK    3  A    between atoms: C_11  and  C_12
REMARK    4  A    between atoms: C_12  and  C_14
REMARK    5  A    between atoms: C_14  and  O_15
REMARK    6  A    between atoms: N_17  and  C_20
REMARK    7  A    between atoms: C_20  and  C_22
REMARK                            x       y       z     vdW  Elec       q    Type
REMARK                         _______ _______ _______ _____ _____    ______ ____
ROOT
ATOM      1  N   UNL     1      33.266 -13.367 -23.358  0.00  0.00    -0.310 N 
ATOM      2  C   UNL     1      32.331 -11.217 -23.181  0.00  0.00    -0.040 C 
ATOM      3  C   UNL     1      32.695 -11.478 -24.639  0.00  0.00    +0.002 C 
ATOM      4  C   UNL     1      33.195 -12.237 -22.432  0.00  0.00    +0.070 C 
ATOM      5  C   UNL     1      32.792 -13.002 -24.692  0.00  0.00    +0.089 C 
ENDROOT
BRANCH   1   6
ATOM      6  C   UNL     1      33.727 -14.621 -23.016  0.00  0.00    +0.048 C 
ATOM      7  C   UNL     1      33.867 -15.604 -23.997  0.00  0.00    +0.014 C 
ATOM      8  C   UNL     1      34.053 -14.907 -21.691  0.00  0.00    +0.014 C 
ATOM      9  C   UNL     1      34.333 -16.872 -23.652  0.00  0.00    -0.002 C 
ATOM     10  C   UNL     1      34.519 -16.175 -21.346  0.00  0.00    -0.002 C 
ATOM     11  C   UNL     1      34.659 -17.158 -22.326  0.00  0.00    -0.011 C 
BRANCH  11  12
ATOM     12  C   UNL     1      35.157 -18.514 -21.956  0.00  0.00    +0.136 C 
BRANCH  12  14
ATOM     13  O   UNL     1      36.528 -18.746 -19.957  0.00  0.00    -0.250 OA
ATOM     14  C   UNL     1      36.440 -18.487 -21.149  0.00  0.00    +0.318 C 
BRANCH  14  15
ATOM     15  O   UNL     1      37.511 -18.133 -21.909  0.00  0.00    -0.480 OA
ATOM     16  H   UNL     1      37.958 -18.782 -22.417  0.00  0.00    +0.295 HD
ENDBRANCH  14  15
ENDBRANCH  12  14
ENDBRANCH  11  12
ENDBRANCH   1   6
BRANCH   2  17
ATOM     17  N   UNL     1      32.574  -9.848 -22.761  0.00  0.00    +0.390 N 
ATOM     18  H   UNL     1      32.368  -9.217 -23.535  0.00  0.00    -0.084 HD
ATOM     19  H   UNL     1      33.551  -9.754 -22.484  0.00  0.00    -0.084 HD
BRANCH  17  20
ATOM     20  C   UNL     1      31.717  -9.505 -21.613  0.00  0.00    -0.038 C 
ATOM     21  C   UNL     1      30.319 -10.107 -21.835  0.00  0.00    -0.019 C 
BRANCH  20  22
ATOM     22  C   UNL     1      31.670  -8.030 -21.364  0.00  0.00    -0.042 C 
ATOM     23  C   UNL     1      31.329  -7.115 -22.374  0.00  0.00    -0.006 C 
ATOM     24  C   UNL     1      31.980  -7.587 -20.079  0.00  0.00    -0.006 C 
ATOM     25  C   UNL     1      31.303  -5.732 -22.075  0.00  0.00    -0.000 C 
ATOM     26  C   UNL     1      31.013  -7.543 -23.673  0.00  0.00    -0.000 C 
ATOM     27  C   UNL     1      31.954  -6.227 -19.784  0.00  0.00    -0.000 C 
ATOM     28  C   UNL     1      31.619  -5.304 -20.775  0.00  0.00    -0.000 C 
ATOM     29  C   UNL     1      30.962  -4.817 -23.084  0.00  0.00    -0.000 C 
ATOM     30  C   UNL     1      30.677  -6.620 -24.665  0.00  0.00    -0.000 C 
ATOM     31  C   UNL     1      30.651  -5.260 -24.370  0.00  0.00    -0.000 C 
ENDBRANCH  20  22
ENDBRANCH  17  20
ENDBRANCH   2  17
TORSDOF 7
ENDMDL
MODEL 2
REMARK VINA RESULT:     -12.1      0.524      2.217
REMARK  Name = 71242808
REMARK  7 active torsions:
REMARK  status: ('A' for Active; 'I' for Inactive)
REMARK    1  A    between atoms: N_1  and  C_6
REMARK    2  A    between atoms: C_2  and  N_17
REMARK    3  A    between atoms: C_11  and  C_12
REMARK    4  A    between atoms: C_12  and  C_14
REMARK    5  A    between atoms: C_14  and  O_15
REMARK    6  A    between atoms: N_17  and  C_20
REMARK    7  A    between atoms: C_20  and  C_22
REMARK                            x       y       z     vdW  Elec       q    Type
REMARK                         _______ _______ _______ _____ _____    ______ ____
ROOT
ATOM      1  N   UNL     1      33.324 -13.587 -23.541  0.00  0.00    -0.310 N 
ATOM      2  C   UNL     1      32.521 -11.379 -23.482  0.00  0.00    -0.040 C 
ATOM      3  C   UNL     1      32.668 -11.810 -24.936  0.00  0.00    +0.002 C 
ATOM      4  C   UNL     1      33.432 -12.365 -22.744  0.00  0.00    +0.070 C 
ATOM      5  C   UNL     1      32.687 -13.334 -24.833  0.00  0.00    +0.089 C 
ENDROOT
BRANCH   1   6
ATOM      6  C   UNL     1      33.770 -14.825 -23.127  0.00  0.00    +0.048 C 
ATOM      7  C   UNL     1      34.124 -15.027 -21.793  0.00  0.00    +0.014 C 
ATOM      8  C   UNL     1      33.866 -15.874 -24.041  0.00  0.00    +0.014 C 
ATOM      9  C   UNL     1      34.574 -16.279 -21.373  0.00  0.00    -0.002 C 
ATOM     10  C   UNL     1      34.317 -17.125 -23.622  0.00  0.00    -0.002 C 
ATOM     11  C   UNL     1      34.671 -17.327 -22.288  0.00  0.00    -0.011 C 
BRANCH  11  12
ATOM     12  C   UNL     1      35.153 -18.666 -21.841  0.00  0.00    +0.136 C 
BRANCH  12  14
ATOM     13  O   UNL     1      36.533 -18.929 -19.852  0.00  0.00    -0.250 OA
ATOM     14  C   UNL     1      36.432 -18.607 -21.028  0.00  0.00    +0.318 C 
BRANCH  14  15
ATOM     15  O   UNL     1      37.479 -18.144 -21.761  0.00  0.00    -0.480 OA
ATOM     16  H   UNL     1      38.185 -17.696 -21.338  0.00  0.00    +0.295 HD
ENDBRANCH  14  15
ENDBRANCH  12  14
ENDBRANCH  11  12
ENDBRANCH   1   6
BRANCH   2  17
ATOM     17  N   UNL     1      32.881  -9.990 -23.251  0.00  0.00    +0.390 N 
ATOM     18  H   UNL     1      32.838  -9.481 -24.133  0.00  0.00    -0.084 HD
ATOM     19  H   UNL     1      33.826  -9.952 -22.869  0.00  0.00    -0.084 HD
BRANCH  17  20
ATOM     20  C   UNL     1      31.953  -9.373 -22.288  0.00  0.00    -0.038 C 
ATOM     21  C   UNL     1      30.776 -10.333 -22.044  0.00  0.00    -0.019 C 
BRANCH  20  22
ATOM     22  C   UNL     1      31.499  -8.017 -22.730  0.00  0.00    -0.042 C 
ATOM     23  C   UNL     1      31.550  -6.900 -21.880  0.00  0.00    -0.006 C 
ATOM     24  C   UNL     1      31.016  -7.897 -24.033  0.00  0.00    -0.006 C 
ATOM     25  C   UNL     1      31.105  -5.645 -22.358  0.00  0.00    -0.000 C 
ATOM     26  C   UNL     1      32.034  -7.003 -20.565  0.00  0.00    -0.000 C 
ATOM     27  C   UNL     1      30.579  -6.662 -24.503  0.00  0.00    -0.000 C 
ATOM     28  C   UNL     1      30.622  -5.543 -23.672  0.00  0.00    -0.000 C 
ATOM     29  C   UNL     1      31.157  -4.529 -21.507  0.00  0.00    -0.000 C 
ATOM     30  C   UNL     1      32.078  -5.883 -19.734  0.00  0.00    -0.000 C 
ATOM     31  C   UNL     1      31.640  -4.648 -20.204  0.00  0.00    -0.000 C 
ENDBRANCH  20  22
ENDBRANCH  17  20
ENDBRANCH   2  17
TORSDOF 7
ENDMDL
MODEL 3
REMARK VINA RESULT:     -12.1      1.130      1.950
REMARK  Name = 71242808
REMARK  7 active torsions:
REMARK  status: ('A' for Active; 'I' for Inactive)
REMARK    1  A    between atoms: N_1  and  C_6
REMARK    2  A    between atoms: C_2  and  N_17
REMARK    3  A    between atoms: C_11  and  C_12
REMARK    4  A    between atoms: C_12  and  C_14
REMARK    5  A    between atoms: C_14  and  O_15
REMARK    6  A    between atoms: N_17  and  C_20
REMARK    7  A    between atoms: C_20  and  C_22
REMARK                            x       y       z     vdW  Elec       q    Type
REMARK                         _______ _______ _______ _____ _____    ______ ____
ROOT
ATOM      1  N   UNL     1      32.764 -12.748 -22.042  0.00  0.00    -0.310 N 
ATOM      2  C   UNL     1      32.255 -10.476 -22.368  0.00  0.00    -0.040 C 
ATOM      3  C   UNL     1      31.320 -11.043 -21.306  0.00  0.00    +0.002 C 
ATOM      4  C   UNL     1      32.738 -11.733 -23.097  0.00  0.00    +0.070 C 
ATOM      5  C   UNL     1      32.061 -12.296 -20.843  0.00  0.00    +0.089 C 
ENDROOT
BRANCH   1   6
ATOM      6  C   UNL     1      33.374 -13.978 -22.165  0.00  0.00    +0.048 C 
ATOM      7  C   UNL     1      33.786 -14.669 -21.026  0.00  0.00    +0.014 C 
ATOM      8  C   UNL     1      33.578 -14.532 -23.429  0.00  0.00    +0.014 C 
ATOM      9  C   UNL     1      34.402 -15.914 -21.150  0.00  0.00    -0.002 C 
ATOM     10  C   UNL     1      34.195 -15.776 -23.553  0.00  0.00    -0.002 C 
ATOM     11  C   UNL     1      34.607 -16.468 -22.414  0.00  0.00    -0.011 C 
BRANCH  11  12
ATOM     12  C   UNL     1      35.267 -17.798 -22.548  0.00  0.00    +0.136 C 
BRANCH  12  14
ATOM     13  O   UNL     1      36.146 -18.305 -20.335  0.00  0.00    -0.250 OA
ATOM     14  C   UNL     1      36.346 -18.045 -21.513  0.00  0.00    +0.318 C 
BRANCH  14  15
ATOM     15  O   UNL     1      37.593 -17.941 -22.045  0.00  0.00    -0.480 OA
ATOM     16  H   UNL     1      38.346 -18.064 -21.500  0.00  0.00    +0.295 HD
ENDBRANCH  14  15
ENDBRANCH  12  14
ENDBRANCH  11  12
ENDBRANCH   1   6
BRANCH   2  17
ATOM     17  N   UNL     1      31.614  -9.517 -23.252  0.00  0.00    +0.390 N 
ATOM     18  H   UNL     1      30.702  -9.267 -22.870  0.00  0.00    -0.084 HD
ATOM     19  H   UNL     1      31.504  -9.939 -24.174  0.00  0.00    -0.084 HD
BRANCH  17  20
ATOM     20  C   UNL     1      32.439  -8.304 -23.377  0.00  0.00    -0.038 C 
ATOM     21  C   UNL     1      33.923  -8.696 -23.283  0.00  0.00    -0.019 C 
BRANCH  20  22
ATOM     22  C   UNL     1      32.062  -7.258 -22.374  0.00  0.00    -0.042 C 
ATOM     23  C   UNL     1      31.606  -5.987 -22.759  0.00  0.00    -0.006 C 
ATOM     24  C   UNL     1      32.180  -7.593 -21.025  0.00  0.00    -0.006 C 
ATOM     25  C   UNL     1      31.266  -5.042 -21.762  0.00  0.00    -0.000 C 
ATOM     26  C   UNL     1      31.480  -5.633 -24.112  0.00  0.00    -0.000 C 
ATOM     27  C   UNL     1      31.846  -6.664 -20.045  0.00  0.00    -0.000 C 
ATOM     28  C   UNL     1      31.392  -5.396 -20.409  0.00  0.00    -0.000 C 
ATOM     29  C   UNL     1      30.810  -3.771 -22.147  0.00  0.00    -0.000 C 
ATOM     30  C   UNL     1      31.025  -4.365 -24.477  0.00  0.00    -0.000 C 
ATOM     31  C   UNL     1      30.691  -3.436 -23.496  0.00  0.00    -0.000 C 
ENDBRANCH  20  22
ENDBRANCH  17  20
ENDBRANCH   2  17
TORSDOF 7
ENDMDL
MODEL 4
REMARK VINA RESULT:     -12.0      5.836      9.012
REMARK  Name = 71242808
REMARK  7 active torsions:
REMARK  status: ('A' for Active; 'I' for Inactive)
REMARK    1  A    between atoms: N_1  and  C_6
REMARK    2  A    between atoms: C_2  and  N_17
REMARK    3  A    between atoms: C_11  and  C_12
REMARK    4  A    between atoms: C_12  and  C_14
REMARK    5  A    between atoms: C_14  and  O_15
REMARK    6  A    between atoms: N_17  and  C_20
REMARK    7  A    between atoms: C_20  and  C_22
REMARK                            x       y       z     vdW  Elec       q    Type
REMARK                         _______ _______ _______ _____ _____    ______ ____
ROOT
ATOM      1  N   UNL     1      34.123 -20.713 -19.201  0.00  0.00    -0.310 N 
ATOM      2  C   UNL     1      33.929 -19.243 -21.025  0.00  0.00    -0.040 C 
ATOM      3  C   UNL     1      32.621 -20.011 -20.869  0.00  0.00    +0.002 C 
ATOM      4  C   UNL     1      34.929 -20.126 -20.272  0.00  0.00    +0.070 C 
ATOM      5  C   UNL     1      32.694 -20.507 -19.426  0.00  0.00    +0.089 C 
ENDROOT
BRANCH   1   6
ATOM      6  C   UNL     1      34.648 -21.381 -18.114  0.00  0.00    +0.048 C 
ATOM      7  C   UNL     1      35.994 -21.228 -17.785  0.00  0.00    +0.014 C 
ATOM      8  C   UNL     1      33.831 -22.210 -17.345  0.00  0.00    +0.014 C 
ATOM      9  C   UNL     1      36.525 -21.903 -16.686  0.00  0.00    -0.002 C 
ATOM     10  C   UNL     1      34.362 -22.886 -16.246  0.00  0.00    -0.002 C 
ATOM     11  C   UNL     1      35.708 -22.732 -15.917  0.00  0.00    -0.011 C 
BRANCH  11  12
ATOM     12  C   UNL     1      36.275 -23.455 -14.742  0.00  0.00    +0.136 C 
BRANCH  12  14
ATOM     13  O   UNL     1      35.943 -25.799 -15.313  0.00  0.00    -0.250 OA
ATOM     14  C   UNL     1      35.719 -24.855 -14.568  0.00  0.00    +0.318 C 
BRANCH  14  15
ATOM     15  O   UNL     1      34.923 -24.952 -13.470  0.00  0.00    -0.480 OA
ATOM     16  H   UNL     1      35.155 -25.536 -12.775  0.00  0.00    +0.295 HD
ENDBRANCH  14  15
ENDBRANCH  12  14
ENDBRANCH  11  12
ENDBRANCH   1   6
BRANCH   2  17
ATOM     17  N   UNL     1      34.303 -19.014 -22.410  0.00  0.00    +0.390 N 
ATOM     18  H   UNL     1      33.467 -18.803 -22.954  0.00  0.00    -0.084 HD
ATOM     19  H   UNL     1      34.756 -19.852 -22.774  0.00  0.00    -0.084 HD
BRANCH  17  20
ATOM     20  C   UNL     1      35.242 -17.883 -22.506  0.00  0.00    -0.038 C 
ATOM     21  C   UNL     1      36.509 -18.216 -21.699  0.00  0.00    -0.019 C 
BRANCH  20  22
ATOM     22  C   UNL     1      34.617 -16.592 -22.078  0.00  0.00    -0.042 C 
ATOM     23  C   UNL     1      34.070 -15.686 -23.002  0.00  0.00    -0.006 C 
ATOM     24  C   UNL     1      34.595 -16.313 -20.712  0.00  0.00    -0.006 C 
ATOM     25  C   UNL     1      33.495 -14.482 -22.534  0.00  0.00    -0.000 C 
ATOM     26  C   UNL     1      34.083 -15.951 -24.381  0.00  0.00    -0.000 C 
ATOM     27  C   UNL     1      34.029 -15.128 -20.251  0.00  0.00    -0.000 C 
ATOM     28  C   UNL     1      33.482 -14.217 -21.155  0.00  0.00    -0.000 C 
ATOM     29  C   UNL     1      32.948 -13.577 -23.458  0.00  0.00    -0.000 C 
ATOM     30  C   UNL     1      33.535 -15.040 -25.286  0.00  0.00    -0.000 C 
ATOM     31  C   UNL     1      32.969 -13.855 -24.825  0.00  0.00    -0.000 C 
ENDBRANCH  20  22
ENDBRANCH  17  20
ENDBRANCH   2  17
TORSDOF 7
ENDMDL
MODEL 5
REMARK VINA RESULT:     -12.0      1.390      2.132
REMARK  Name = 71242808
REMARK  7 active torsions:
REMARK  status: ('A' for Active; 'I' for Inactive)
REMARK    1  A    between atoms: N_1  and  C_6
REMARK    2  A    between atoms: C_2  and  N_17
REMARK    3  A    between atoms: C_11  and  C_12
REMARK    4  A    between atoms: C_12  and  C_14
REMARK    5  A    between atoms: C_14  and  O_15
REMARK    6  A    between atoms: N_17  and  C_20
REMARK    7  A    between atoms: C_20  and  C_22
REMARK                            x       y       z     vdW  Elec       q    Type
REMARK                         _______ _______ _______ _____ _____    ______ ____
ROOT
ATOM      1  N   UNL     1      33.022 -12.919 -22.648  0.00  0.00    -0.310 N 
ATOM      2  C   UNL     1      31.506 -11.127 -22.511  0.00  0.00    -0.040 C 
ATOM      3  C   UNL     1      32.812 -10.622 -23.113  0.00  0.00    +0.002 C 
ATOM      4  C   UNL     1      31.937 -12.416 -21.804  0.00  0.00    +0.070 C 
ATOM      5  C   UNL     1      33.474 -11.909 -23.604  0.00  0.00    +0.089 C 
ENDROOT
BRANCH   1   6
ATOM      6  C   UNL     1      33.553 -14.187 -22.552  0.00  0.00    +0.048 C 
ATOM      7  C   UNL     1      33.741 -14.954 -23.703  0.00  0.00    +0.014 C 
ATOM      8  C   UNL     1      33.905 -14.704 -21.305  0.00  0.00    +0.014 C 
ATOM      9  C   UNL     1      34.279 -16.236 -23.606  0.00  0.00    -0.002 C 
ATOM     10  C   UNL     1      34.442 -15.987 -21.208  0.00  0.00    -0.002 C 
ATOM     11  C   UNL     1      34.630 -16.753 -22.359  0.00  0.00    -0.011 C 
BRANCH  11  12
ATOM     12  C   UNL     1      35.205 -18.125 -22.254  0.00  0.00    +0.136 C 
BRANCH  12  14
ATOM     13  O   UNL     1      36.418 -18.450 -20.169  0.00  0.00    -0.250 OA
ATOM     14  C   UNL     1      36.431 -18.201 -21.366  0.00  0.00    +0.318 C 
BRANCH  14  15
ATOM     15  O   UNL     1      37.575 -17.953 -22.058  0.00  0.00    -0.480 OA
ATOM     16  H   UNL     1      37.537 -17.782 -22.978  0.00  0.00    +0.295 HD
ENDBRANCH  14  15
ENDBRANCH  12  14
ENDBRANCH  11  12
ENDBRANCH   1   6
BRANCH   2  17
ATOM     17  N   UNL     1      30.874 -10.172 -21.617  0.00  0.00    +0.390 N 
ATOM     18  H   UNL     1      30.767 -10.595 -20.696  0.00  0.00    -0.084 HD
ATOM     19  H   UNL     1      29.961  -9.919 -21.995  0.00  0.00    -0.084 HD
BRANCH  17  20
ATOM     20  C   UNL     1      31.696  -8.956 -21.501  0.00  0.00    -0.038 C 
ATOM     21  C   UNL     1      31.569  -8.400 -20.073  0.00  0.00    -0.019 C 
BRANCH  20  22
ATOM     22  C   UNL     1      31.349  -7.937 -22.542  0.00  0.00    -0.042 C 
ATOM     23  C   UNL     1      32.288  -7.008 -23.018  0.00  0.00    -0.006 C 
ATOM     24  C   UNL     1      30.043  -7.942 -23.031  0.00  0.00    -0.006 C 
ATOM     25  C   UNL     1      31.896  -6.070 -24.002  0.00  0.00    -0.000 C 
ATOM     26  C   UNL     1      33.608  -6.990 -22.538  0.00  0.00    -0.000 C 
ATOM     27  C   UNL     1      29.657  -7.019 -23.999  0.00  0.00    -0.000 C 
ATOM     28  C   UNL     1      30.577  -6.088 -24.482  0.00  0.00    -0.000 C 
ATOM     29  C   UNL     1      32.836  -5.140 -24.477  0.00  0.00    -0.000 C 
ATOM     30  C   UNL     1      34.528  -6.059 -23.021  0.00  0.00    -0.000 C 
ATOM     31  C   UNL     1      34.143  -5.136 -23.989  0.00  0.00    -0.000 C 
ENDBRANCH  20  22
ENDBRANCH  17  20
ENDBRANCH   2  17
TORSDOF 7
ENDMDL
MODEL 6
REMARK VINA RESULT:     -11.9      4.499      7.556
REMARK  Name = 71242808
REMARK  7 active torsions:
REMARK  status: ('A' for Active; 'I' for Inactive)
REMARK    1  A    between atoms: N_1  and  C_6
REMARK    2  A    between atoms: C_2  and  N_17
REMARK    3  A    between atoms: C_11  and  C_12
REMARK    4  A    between atoms: C_12  and  C_14
REMARK    5  A    between atoms: C_14  and  O_15
REMARK    6  A    between atoms: N_17  and  C_20
REMARK    7  A    between atoms: C_20  and  C_22
REMARK                            x       y       z     vdW  Elec       q    Type
REMARK                         _______ _______ _______ _____ _____    ______ ____
ROOT
ATOM      1  N   UNL     1      35.035 -19.321 -20.745  0.00  0.00    -0.310 N 
ATOM      2  C   UNL     1      35.340 -17.799 -22.511  0.00  0.00    -0.040 C 
ATOM      3  C   UNL     1      36.646 -17.921 -21.735  0.00  0.00    +0.002 C 
ATOM      4  C   UNL     1      34.302 -18.307 -21.505  0.00  0.00    +0.070 C 
ATOM      5  C   UNL     1      36.473 -19.247 -20.996  0.00  0.00    +0.089 C 
ENDROOT
BRANCH   1   6
ATOM      6  C   UNL     1      34.442 -20.231 -19.895  0.00  0.00    +0.048 C 
ATOM      7  C   UNL     1      35.231 -21.012 -19.051  0.00  0.00    +0.014 C 
ATOM      8  C   UNL     1      33.055 -20.369 -19.879  0.00  0.00    +0.014 C 
ATOM      9  C   UNL     1      34.633 -21.932 -18.191  0.00  0.00    -0.002 C 
ATOM     10  C   UNL     1      32.456 -21.290 -19.020  0.00  0.00    -0.002 C 
ATOM     11  C   UNL     1      33.245 -22.071 -18.175  0.00  0.00    -0.011 C 
BRANCH  11  12
ATOM     12  C   UNL     1      32.603 -23.055 -17.257  0.00  0.00    +0.136 C 
BRANCH  12  14
ATOM     13  O   UNL     1      30.375 -22.137 -16.911  0.00  0.00    -0.250 OA
ATOM     14  C   UNL     1      31.457 -22.474 -16.452  0.00  0.00    +0.318 C 
BRANCH  14  15
ATOM     15  O   UNL     1      31.769 -22.361 -15.133  0.00  0.00    -0.480 OA
ATOM     16  H   UNL     1      32.597 -22.670 -14.821  0.00  0.00    +0.295 HD
ENDBRANCH  14  15
ENDBRANCH  12  14
ENDBRANCH  11  12
ENDBRANCH   1   6
BRANCH   2  17
ATOM     17  N   UNL     1      35.067 -16.450 -22.976  0.00  0.00    +0.390 N 
ATOM     18  H   UNL     1      35.737 -16.204 -23.704  0.00  0.00    -0.084 HD
ATOM     19  H   UNL     1      35.151 -15.805 -22.190  0.00  0.00    -0.084 HD
BRANCH  17  20
ATOM     20  C   UNL     1      33.702 -16.362 -23.521  0.00  0.00    -0.038 C 
ATOM     21  C   UNL     1      33.572 -17.339 -24.702  0.00  0.00    -0.019 C 
BRANCH  20  22
ATOM     22  C   UNL     1      33.333 -14.960 -23.899  0.00  0.00    -0.042 C 
ATOM     23  C   UNL     1      33.066 -13.975 -22.934  0.00  0.00    -0.006 C 
ATOM     24  C   UNL     1      33.264 -14.661 -25.259  0.00  0.00    -0.006 C 
ATOM     25  C   UNL     1      32.722 -12.669 -23.356  0.00  0.00    -0.000 C 
ATOM     26  C   UNL     1      33.132 -14.259 -21.560  0.00  0.00    -0.000 C 
ATOM     27  C   UNL     1      32.925 -13.376 -25.674  0.00  0.00    -0.000 C 
ATOM     28  C   UNL     1      32.655 -12.386 -24.729  0.00  0.00    -0.000 C 
ATOM     29  C   UNL     1      32.454 -11.684 -22.391  0.00  0.00    -0.000 C 
ATOM     30  C   UNL     1      32.862 -13.268 -20.615  0.00  0.00    -0.000 C 
ATOM     31  C   UNL     1      32.524 -11.983 -21.030  0.00  0.00    -0.000 C 
ENDBRANCH  20  22
ENDBRANCH  17  20
ENDBRANCH   2  17
TORSDOF 7
ENDMDL
MODEL 7
REMARK VINA RESULT:     -11.9      5.173     12.014
REMARK  Name = 71242808
REMARK  7 active torsions:
REMARK  status: ('A' for Active; 'I' for Inactive)
REMARK    1  A    between atoms: N_1  and  C_6
REMARK    2  A    between atoms: C_2  and  N_17
REMARK    3  A    between atoms: C_11  and  C_12
REMARK    4  A    between atoms: C_12  and  C_14
REMARK    5  A    between atoms: C_14  and  O_15
REMARK    6  A    between atoms: N_17  and  C_20
REMARK    7  A    between atoms: C_20  and  C_22
REMARK                            x       y       z     vdW  Elec       q    Type
REMARK                         _______ _______ _______ _____ _____    ______ ____
ROOT
ATOM      1  N   UNL     1      34.912 -17.771 -21.698  0.00  0.00    -0.310 N 
ATOM      2  C   UNL     1      34.949 -19.767 -20.455  0.00  0.00    -0.040 C 
ATOM      3  C   UNL     1      36.378 -19.397 -20.836  0.00  0.00    +0.002 C 
ATOM      4  C   UNL     1      34.116 -18.978 -21.470  0.00  0.00    +0.070 C 
ATOM      5  C   UNL     1      36.264 -17.908 -21.158  0.00  0.00    +0.089 C 
ENDROOT
BRANCH   1   6
ATOM      6  C   UNL     1      34.446 -16.646 -22.345  0.00  0.00    +0.048 C 
ATOM      7  C   UNL     1      34.168 -16.692 -23.710  0.00  0.00    +0.014 C 
ATOM      8  C   UNL     1      34.252 -15.463 -21.633  0.00  0.00    +0.014 C 
ATOM      9  C   UNL     1      33.696 -15.555 -24.365  0.00  0.00    -0.002 C 
ATOM     10  C   UNL     1      33.781 -14.325 -22.287  0.00  0.00    -0.002 C 
ATOM     11  C   UNL     1      33.503 -14.371 -23.653  0.00  0.00    -0.011 C 
BRANCH  11  12
ATOM     12  C   UNL     1      33.000 -13.153 -24.352  0.00  0.00    +0.136 C 
BRANCH  12  14
ATOM     13  O   UNL     1      31.968 -11.764 -22.639  0.00  0.00    -0.250 OA
ATOM     14  C   UNL     1      32.870 -11.946 -23.445  0.00  0.00    +0.318 C 
BRANCH  14  15
ATOM     15  O   UNL     1      33.888 -11.062 -23.628  0.00  0.00    -0.480 OA
ATOM     16  H   UNL     1      34.588 -11.020 -23.007  0.00  0.00    +0.295 HD
ENDBRANCH  14  15
ENDBRANCH  12  14
ENDBRANCH  11  12
ENDBRANCH   1   6
BRANCH   2  17
ATOM     17  N   UNL     1      34.691 -21.196 -20.495  0.00  0.00    +0.390 N 
ATOM     18  H   UNL     1      35.567 -21.699 -20.361  0.00  0.00    -0.084 HD
ATOM     19  H   UNL     1      34.285 -21.434 -21.400  0.00  0.00    -0.084 HD
BRANCH  17  20
ATOM     20  C   UNL     1      33.745 -21.576 -19.432  0.00  0.00    -0.038 C 
ATOM     21  C   UNL     1      32.633 -20.516 -19.350  0.00  0.00    -0.019 C 
BRANCH  20  22
ATOM     22  C   UNL     1      34.429 -21.787 -18.117  0.00  0.00    -0.042 C 
ATOM     23  C   UNL     1      33.751 -22.302 -16.999  0.00  0.00    -0.006 C 
ATOM     24  C   UNL     1      35.780 -21.451 -18.036  0.00  0.00    -0.006 C 
ATOM     25  C   UNL     1      34.453 -22.477 -15.784  0.00  0.00    -0.000 C 
ATOM     26  C   UNL     1      32.391 -22.646 -17.063  0.00  0.00    -0.000 C 
ATOM     27  C   UNL     1      36.471 -21.623 -16.841  0.00  0.00    -0.000 C 
ATOM     28  C   UNL     1      35.813 -22.132 -15.721  0.00  0.00    -0.000 C 
ATOM     29  C   UNL     1      33.776 -22.992 -14.667  0.00  0.00    -0.000 C 
ATOM     30  C   UNL     1      31.733 -23.156 -15.943  0.00  0.00    -0.000 C 
ATOM     31  C   UNL     1      32.424 -23.328 -14.747  0.00  0.00    -0.000 C 
ENDBRANCH  20  22
ENDBRANCH  17  20
ENDBRANCH   2  17
TORSDOF 7
ENDMDL
MODEL 8
REMARK VINA RESULT:     -11.8      1.738      2.200
REMARK  Name = 71242808
REMARK  7 active torsions:
REMARK  status: ('A' for Active; 'I' for Inactive)
REMARK    1  A    between atoms: N_1  and  C_6
REMARK    2  A    between atoms: C_2  and  N_17
REMARK    3  A    between atoms: C_11  and  C_12
REMARK    4  A    between atoms: C_12  and  C_14
REMARK    5  A    between atoms: C_14  and  O_15
REMARK    6  A    between atoms: N_17  and  C_20
REMARK    7  A    between atoms: C_20  and  C_22
REMARK                            x       y       z     vdW  Elec       q    Type
REMARK                         _______ _______ _______ _____ _____    ______ ____
ROOT
ATOM      1  N   UNL     1      32.699 -12.454 -22.262  0.00  0.00    -0.310 N 
ATOM      2  C   UNL     1      31.137 -10.705 -22.097  0.00  0.00    -0.040 C 
ATOM      3  C   UNL     1      32.196 -10.324 -23.124  0.00  0.00    +0.002 C 
ATOM      4  C   UNL     1      31.837 -11.796 -21.280  0.00  0.00    +0.070 C 
ATOM      5  C   UNL     1      32.805 -11.675 -23.495  0.00  0.00    +0.089 C 
ENDROOT
BRANCH   1   6
ATOM      6  C   UNL     1      33.335 -13.660 -22.051  0.00  0.00    +0.048 C 
ATOM      7  C   UNL     1      33.464 -14.162 -20.756  0.00  0.00    +0.014 C 
ATOM      8  C   UNL     1      33.848 -14.376 -23.131  0.00  0.00    +0.014 C 
ATOM      9  C   UNL     1      34.106 -15.381 -20.542  0.00  0.00    -0.002 C 
ATOM     10  C   UNL     1      34.491 -15.595 -22.917  0.00  0.00    -0.002 C 
ATOM     11  C   UNL     1      34.620 -16.097 -21.622  0.00  0.00    -0.011 C 
BRANCH  11  12
ATOM     12  C   UNL     1      35.308 -17.401 -21.394  0.00  0.00    +0.136 C 
BRANCH  12  14
ATOM     13  O   UNL     1      33.925 -19.146 -20.411  0.00  0.00    -0.250 OA
ATOM     14  C   UNL     1      34.368 -18.591 -21.405  0.00  0.00    +0.318 C 
BRANCH  14  15
ATOM     15  O   UNL     1      34.065 -18.986 -22.671  0.00  0.00    -0.480 OA
ATOM     16  H   UNL     1      33.395 -19.626 -22.813  0.00  0.00    +0.295 HD
ENDBRANCH  14  15
ENDBRANCH  12  14
ENDBRANCH  11  12
ENDBRANCH   1   6
BRANCH   2  17
ATOM     17  N   UNL     1      30.689  -9.586 -21.285  0.00  0.00    +0.390 N 
ATOM     18  H   UNL     1      30.078  -9.931 -20.546  0.00  0.00    -0.084 HD
ATOM     19  H   UNL     1      30.183  -8.928 -21.878  0.00  0.00    -0.084 HD
BRANCH  17  20
ATOM     20  C   UNL     1      31.841  -8.897 -20.681  0.00  0.00    -0.038 C 
ATOM     21  C   UNL     1      31.866  -9.191 -19.172  0.00  0.00    -0.019 C 
BRANCH  20  22
ATOM     22  C   UNL     1      31.839  -7.429 -20.976  0.00  0.00    -0.042 C 
ATOM     23  C   UNL     1      32.554  -6.884 -22.055  0.00  0.00    -0.006 C 
ATOM     24  C   UNL     1      31.094  -6.608 -20.130  0.00  0.00    -0.006 C 
ATOM     25  C   UNL     1      32.512  -5.488 -22.279  0.00  0.00    -0.000 C 
ATOM     26  C   UNL     1      33.309  -7.696 -22.917  0.00  0.00    -0.000 C 
ATOM     27  C   UNL     1      31.053  -5.234 -20.350  0.00  0.00    -0.000 C 
ATOM     28  C   UNL     1      31.757  -4.676 -21.417  0.00  0.00    -0.000 C 
ATOM     29  C   UNL     1      33.227  -4.944 -23.359  0.00  0.00    -0.000 C 
ATOM     30  C   UNL     1      34.013  -7.139 -23.985  0.00  0.00    -0.000 C 
ATOM     31  C   UNL     1      33.972  -5.765 -24.205  0.00  0.00    -0.000 C 
ENDBRANCH  20  22
ENDBRANCH  17  20
ENDBRANCH   2  17
TORSDOF 7
ENDMDL
MODEL 9
REMARK VINA RESULT:     -11.6      6.355     13.089
REMARK  Name = 71242808
REMARK  7 active torsions:
REMARK  status: ('A' for Active; 'I' for Inactive)
REMARK    1  A    between atoms: N_1  and  C_6
REMARK    2  A    between atoms: C_2  and  N_17
REMARK    3  A    between atoms: C_11  and  C_12
REMARK    4  A    between atoms: C_12  and  C_14
REMARK    5  A    between atoms: C_14  and  O_15
REMARK    6  A    between atoms: N_17  and  C_20
REMARK    7  A    between atoms: C_20  and  C_22
REMARK                            x       y       z     vdW  Elec       q    Type
REMARK                         _______ _______ _______ _____ _____    ______ ____
ROOT
ATOM      1  N   UNL     1      34.575 -19.714 -20.569  0.00  0.00    -0.310 N 
ATOM      2  C   UNL     1      35.372 -21.539 -19.321  0.00  0.00    -0.040 C 
ATOM      3  C   UNL     1      34.020 -21.113 -18.762  0.00  0.00    +0.002 C 
ATOM      4  C   UNL     1      35.829 -20.292 -20.084  0.00  0.00    +0.070 C 
ATOM      5  C   UNL     1      33.414 -20.319 -19.918  0.00  0.00    +0.089 C 
ENDROOT
BRANCH   1   6
ATOM      6  C   UNL     1      34.498 -18.719 -21.521  0.00  0.00    +0.048 C 
ATOM      7  C   UNL     1      34.962 -17.436 -21.228  0.00  0.00    +0.014 C 
ATOM      8  C   UNL     1      33.956 -18.995 -22.776  0.00  0.00    +0.014 C 
ATOM      9  C   UNL     1      34.885 -16.430 -22.190  0.00  0.00    -0.002 C 
ATOM     10  C   UNL     1      33.878 -17.988 -23.738  0.00  0.00    -0.002 C 
ATOM     11  C   UNL     1      34.342 -16.706 -23.445  0.00  0.00    -0.011 C 
BRANCH  11  12
ATOM     12  C   UNL     1      34.258 -15.630 -24.475  0.00  0.00    +0.136 C 
BRANCH  12  14
ATOM     13  O   UNL     1      32.999 -14.095 -23.065  0.00  0.00    -0.250 OA
ATOM     14  C   UNL     1      33.208 -14.581 -24.168  0.00  0.00    +0.318 C 
BRANCH  14  15
ATOM     15  O   UNL     1      32.502 -14.229 -25.276  0.00  0.00    -0.480 OA
ATOM     16  H   UNL     1      32.806 -13.529 -25.821  0.00  0.00    +0.295 HD
ENDBRANCH  14  15
ENDBRANCH  12  14
ENDBRANCH  11  12
ENDBRANCH   1   6
BRANCH   2  17
ATOM     17  N   UNL     1      36.316 -21.957 -18.298  0.00  0.00    +0.390 N 
ATOM     18  H   UNL     1      37.257 -21.684 -18.578  0.00  0.00    -0.084 HD
ATOM     19  H   UNL     1      36.261 -22.970 -18.190  0.00  0.00    -0.084 HD
BRANCH  17  20
ATOM     20  C   UNL     1      35.989 -21.322 -17.010  0.00  0.00    -0.038 C 
ATOM     21  C   UNL     1      36.948 -20.142 -16.776  0.00  0.00    -0.019 C 
BRANCH  20  22
ATOM     22  C   UNL     1      36.004 -22.301 -15.877  0.00  0.00    -0.042 C 
ATOM     23  C   UNL     1      34.821 -22.804 -15.311  0.00  0.00    -0.006 C 
ATOM     24  C   UNL     1      37.249 -22.704 -15.396  0.00  0.00    -0.006 C 
ATOM     25  C   UNL     1      34.903 -23.727 -14.242  0.00  0.00    -0.000 C 
ATOM     26  C   UNL     1      33.558 -22.411 -15.784  0.00  0.00    -0.000 C 
ATOM     27  C   UNL     1      37.330 -23.611 -14.344  0.00  0.00    -0.000 C 
ATOM     28  C   UNL     1      36.165 -24.120 -13.769  0.00  0.00    -0.000 C 
ATOM     29  C   UNL     1      33.720 -24.229 -13.676  0.00  0.00    -0.000 C 
ATOM     30  C   UNL     1      32.393 -22.920 -15.210  0.00  0.00    -0.000 C 
ATOM     31  C   UNL     1      32.473 -23.828 -14.158  0.00  0.00    -0.000 C 
ENDBRANCH  20  22
ENDBRANCH  17  20
ENDBRANCH   2  17
TORSDOF 7
ENDMDL
