MODEL 1
REMARK VINA RESULT:     -13.2      0.000      0.000
REMARK  Name = 23635314
REMARK  9 active torsions:
REMARK  status: ('A' for Active; 'I' for Inactive)
REMARK    1  A    between atoms: C_2  and  C_8
REMARK    2  A    between atoms: C_3  and  C_23
REMARK    3  A    between atoms: C_7  and  O_13
REMARK    4  A    between atoms: O_13  and  C_14
REMARK    5  A    between atoms: C_14  and  C_15
REMARK    6  A    between atoms: C_15  and  N_17
REMARK    7  A    between atoms: C_23  and  C_26
REMARK    8  A    between atoms: N_25  and  C_28
REMARK    9  A    between atoms: C_28  and  C_29
REMARK                            x       y       z     vdW  Elec       q    Type
REMARK                         _______ _______ _______ _____ _____    ______ ____
ROOT
ATOM      1  N   UNL     1      34.552 -16.185 -20.466  0.00  0.00    -0.248 NA
ATOM      2  C   UNL     1      33.721 -14.448 -21.926  0.00  0.00    +0.019 C 
ATOM      3  C   UNL     1      34.950 -16.855 -21.570  0.00  0.00    +0.068 C 
ATOM      4  C   UNL     1      34.143 -15.167 -23.037  0.00  0.00    +0.003 C 
ATOM      5  C   UNL     1      33.946 -14.994 -20.673  0.00  0.00    +0.098 C 
ATOM      6  C   UNL     1      34.771 -16.395 -22.865  0.00  0.00    +0.015 C 
ENDROOT
BRANCH   2   8
ATOM      7  C   UNL     1      31.803 -10.705 -22.352  0.00  0.00    +0.138 C 
ATOM      8  C   UNL     1      33.065 -13.168 -22.072  0.00  0.00    +0.002 C 
ATOM      9  C   UNL     1      32.758 -11.100 -23.283  0.00  0.00    +0.037 C 
ATOM     10  C   UNL     1      31.474 -11.530 -21.281  0.00  0.00    +0.037 C 
ATOM     11  C   UNL     1      33.390 -12.335 -23.143  0.00  0.00    +0.003 C 
ATOM     12  C   UNL     1      32.107 -12.764 -21.141  0.00  0.00    +0.003 C 
BRANCH   7  13
ATOM     13  O   UNL     1      31.182  -9.492 -22.490  0.00  0.00    -0.478 OA
BRANCH  13  14
ATOM     14  C   UNL     1      31.479  -8.505 -21.510  0.00  0.00    +0.183 C 
BRANCH  14  15
ATOM     15  C   UNL     1      32.458  -7.506 -22.104  0.00  0.00    -0.029 C 
BRANCH  15  17
ATOM     16  O   UNL     1      29.642  -4.396 -22.231  0.00  0.00    -0.358 OA
ATOM     17  N   UNL     1      31.866  -6.171 -22.154  0.00  0.00    +0.393 N 
ATOM     18  C   UNL     1      31.058  -6.003 -23.370  0.00  0.00    -0.044 C 
ATOM     19  C   UNL     1      31.043  -5.919 -20.964  0.00  0.00    -0.044 C 
ATOM     20  C   UNL     1      30.443  -4.608 -23.395  0.00  0.00    +0.119 C 
ATOM     21  C   UNL     1      30.427  -4.525 -21.045  0.00  0.00    +0.119 C 
ATOM     22  H   UNL     1      32.628  -5.492 -22.174  0.00  0.00    -0.079 HD
ENDBRANCH  15  17
ENDBRANCH  14  15
ENDBRANCH  13  14
ENDBRANCH   7  13
ENDBRANCH   2   8
BRANCH   3  23
ATOM     23  C   UNL     1      35.620 -18.171 -21.348  0.00  0.00    +0.131 C 
BRANCH  23  26
ATOM     24  O   UNL     1      33.558 -19.436 -21.468  0.00  0.00    -0.275 OA
ATOM     25  N   UNL     1      35.191 -20.092 -19.953  0.00  0.00    -0.300 N 
ATOM     26  C   UNL     1      34.664 -19.287 -20.953  0.00  0.00    +0.229 C 
ATOM     27  H   UNL     1      36.090 -19.888 -19.606  0.00  0.00    +0.150 HD
BRANCH  25  28
ATOM     28  C   UNL     1      34.474 -21.219 -19.402  0.00  0.00    +0.116 C 
BRANCH  28  29
ATOM     29  C   UNL     1      34.992 -21.605 -18.047  0.00  0.00    -0.003 C 
ATOM     30  C   UNL     1      34.174 -22.314 -17.175  0.00  0.00    -0.003 C 
ATOM     31  C   UNL     1      36.285 -21.251 -17.678  0.00  0.00    -0.003 C 
ATOM     32  C   UNL     1      34.655 -22.673 -15.916  0.00  0.00    -0.000 C 
ATOM     33  C   UNL     1      36.766 -21.610 -16.419  0.00  0.00    -0.000 C 
ATOM     34  C   UNL     1      35.950 -22.321 -15.537  0.00  0.00    -0.000 C 
ENDBRANCH  28  29
ENDBRANCH  25  28
ENDBRANCH  23  26
ENDBRANCH   3  23
TORSDOF 9
ENDMDL
MODEL 2
REMARK VINA RESULT:     -12.9      3.719     12.481
REMARK  Name = 23635314
REMARK  9 active torsions:
REMARK  status: ('A' for Active; 'I' for Inactive)
REMARK    1  A    between atoms: C_2  and  C_8
REMARK    2  A    between atoms: C_3  and  C_23
REMARK    3  A    between atoms: C_7  and  O_13
REMARK    4  A    between atoms: O_13  and  C_14
REMARK    5  A    between atoms: C_14  and  C_15
REMARK    6  A    between atoms: C_15  and  N_17
REMARK    7  A    between atoms: C_23  and  C_26
REMARK    8  A    between atoms: N_25  and  C_28
REMARK    9  A    between atoms: C_28  and  C_29
REMARK                            x       y       z     vdW  Elec       q    Type
REMARK                         _______ _______ _______ _____ _____    ______ ____
ROOT
ATOM      1  N   UNL     1      34.944 -16.571 -21.840  0.00  0.00    -0.248 NA
ATOM      2  C   UNL     1      34.228 -18.830 -21.371  0.00  0.00    +0.019 C 
ATOM      3  C   UNL     1      34.580 -16.774 -23.126  0.00  0.00    +0.068 C 
ATOM      4  C   UNL     1      33.867 -19.002 -22.702  0.00  0.00    +0.003 C 
ATOM      5  C   UNL     1      34.758 -17.608 -20.993  0.00  0.00    +0.098 C 
ATOM      6  C   UNL     1      34.043 -17.959 -23.603  0.00  0.00    +0.015 C 
ENDROOT
BRANCH   2   8
ATOM      7  C   UNL     1      33.730 -21.947 -18.559  0.00  0.00    +0.138 C 
ATOM      8  C   UNL     1      34.058 -19.897 -20.409  0.00  0.00    +0.002 C 
ATOM      9  C   UNL     1      32.613 -21.293 -19.068  0.00  0.00    +0.037 C 
ATOM     10  C   UNL     1      35.010 -21.584 -18.966  0.00  0.00    +0.037 C 
ATOM     11  C   UNL     1      32.777 -20.266 -19.996  0.00  0.00    +0.003 C 
ATOM     12  C   UNL     1      35.173 -20.556 -19.894  0.00  0.00    +0.003 C 
BRANCH   7  13
ATOM     13  O   UNL     1      33.569 -22.956 -17.647  0.00  0.00    -0.478 OA
BRANCH  13  14
ATOM     14  C   UNL     1      32.589 -22.756 -16.636  0.00  0.00    +0.183 C 
BRANCH  14  15
ATOM     15  C   UNL     1      33.251 -22.910 -15.277  0.00  0.00    -0.029 C 
BRANCH  15  17
ATOM     16  O   UNL     1      37.268 -23.763 -14.411  0.00  0.00    -0.358 OA
ATOM     17  N   UNL     1      34.646 -23.319 -15.425  0.00  0.00    +0.393 N 
ATOM     18  C   UNL     1      35.553 -22.203 -15.122  0.00  0.00    -0.044 C 
ATOM     19  C   UNL     1      34.950 -24.464 -14.556  0.00  0.00    -0.044 C 
ATOM     20  C   UNL     1      37.001 -22.657 -15.273  0.00  0.00    +0.119 C 
ATOM     21  C   UNL     1      36.413 -24.865 -14.719  0.00  0.00    +0.119 C 
ATOM     22  H   UNL     1      34.788 -23.599 -16.395  0.00  0.00    -0.079 HD
ENDBRANCH  15  17
ENDBRANCH  14  15
ENDBRANCH  13  14
ENDBRANCH   7  13
ENDBRANCH   2   8
BRANCH   3  23
ATOM     23  C   UNL     1      34.784 -15.633 -24.067  0.00  0.00    +0.131 C 
BRANCH  23  26
ATOM     24  O   UNL     1      32.731 -15.213 -25.282  0.00  0.00    -0.275 OA
ATOM     25  N   UNL     1      33.341 -13.762 -23.576  0.00  0.00    -0.300 N 
ATOM     26  C   UNL     1      33.507 -14.871 -24.393  0.00  0.00    +0.229 C 
ATOM     27  H   UNL     1      34.023 -13.573 -22.891  0.00  0.00    +0.150 HD
BRANCH  25  28
ATOM     28  C   UNL     1      32.208 -12.873 -23.691  0.00  0.00    +0.116 C 
BRANCH  28  29
ATOM     29  C   UNL     1      31.942 -12.135 -22.410  0.00  0.00    -0.003 C 
ATOM     30  C   UNL     1      31.508 -10.816 -22.455  0.00  0.00    -0.003 C 
ATOM     31  C   UNL     1      32.132 -12.779 -21.193  0.00  0.00    -0.003 C 
ATOM     32  C   UNL     1      31.261 -10.130 -21.266  0.00  0.00    -0.000 C 
ATOM     33  C   UNL     1      31.885 -12.094 -20.004  0.00  0.00    -0.000 C 
ATOM     34  C   UNL     1      31.450 -10.768 -20.041  0.00  0.00    -0.000 C 
ENDBRANCH  28  29
ENDBRANCH  25  28
ENDBRANCH  23  26
ENDBRANCH   3  23
TORSDOF 9
ENDMDL
MODEL 3
REMARK VINA RESULT:     -12.8      4.531      8.861
REMARK  Name = 23635314
REMARK  9 active torsions:
REMARK  status: ('A' for Active; 'I' for Inactive)
REMARK    1  A    between atoms: C_2  and  C_8
REMARK    2  A    between atoms: C_3  and  C_23
REMARK    3  A    between atoms: C_7  and  O_13
REMARK    4  A    between atoms: O_13  and  C_14
REMARK    5  A    between atoms: C_14  and  C_15
REMARK    6  A    between atoms: C_15  and  N_17
REMARK    7  A    between atoms: C_23  and  C_26
REMARK    8  A    between atoms: N_25  and  C_28
REMARK    9  A    between atoms: C_28  and  C_29
REMARK                            x       y       z     vdW  Elec       q    Type
REMARK                         _______ _______ _______ _____ _____    ______ ____
ROOT
ATOM      1  N   UNL     1      33.784 -23.345 -16.067  0.00  0.00    -0.248 NA
ATOM      2  C   UNL     1      34.771 -21.797 -17.637  0.00  0.00    +0.019 C 
ATOM      3  C   UNL     1      34.930 -23.277 -15.354  0.00  0.00    +0.068 C 
ATOM      4  C   UNL     1      35.934 -21.753 -16.878  0.00  0.00    +0.003 C 
ATOM      5  C   UNL     1      33.733 -22.599 -17.194  0.00  0.00    +0.098 C 
ATOM      6  C   UNL     1      36.023 -22.506 -15.713  0.00  0.00    +0.015 C 
ENDROOT
BRANCH   2   8
ATOM      7  C   UNL     1      34.408 -19.543 -21.194  0.00  0.00    +0.138 C 
ATOM      8  C   UNL     1      34.647 -21.025 -18.854  0.00  0.00    +0.002 C 
ATOM      9  C   UNL     1      35.667 -19.781 -20.656  0.00  0.00    +0.037 C 
ATOM     10  C   UNL     1      33.266 -20.038 -20.573  0.00  0.00    +0.037 C 
ATOM     11  C   UNL     1      35.787 -20.525 -19.483  0.00  0.00    +0.003 C 
ATOM     12  C   UNL     1      33.387 -20.781 -19.400  0.00  0.00    +0.003 C 
BRANCH   7  13
ATOM     13  O   UNL     1      34.290 -18.811 -22.347  0.00  0.00    -0.478 OA
BRANCH  13  14
ATOM     14  C   UNL     1      35.256 -17.790 -22.560  0.00  0.00    +0.183 C 
BRANCH  14  15
ATOM     15  C   UNL     1      34.815 -16.538 -21.819  0.00  0.00    -0.029 C 
BRANCH  15  17
ATOM     16  O   UNL     1      32.794 -13.688 -24.145  0.00  0.00    -0.358 OA
ATOM     17  N   UNL     1      34.546 -15.450 -22.757  0.00  0.00    +0.393 N 
ATOM     18  C   UNL     1      33.713 -15.917 -23.873  0.00  0.00    -0.044 C 
ATOM     19  C   UNL     1      33.892 -14.324 -22.077  0.00  0.00    -0.044 C 
ATOM     20  C   UNL     1      33.437 -14.763 -24.832  0.00  0.00    +0.119 C 
ATOM     21  C   UNL     1      33.612 -13.207 -23.078  0.00  0.00    +0.119 C 
ATOM     22  H   UNL     1      35.441 -15.132 -23.130  0.00  0.00    -0.079 HD
ENDBRANCH  15  17
ENDBRANCH  14  15
ENDBRANCH  13  14
ENDBRANCH   7  13
ENDBRANCH   2   8
BRANCH   3  23
ATOM     23  C   UNL     1      34.992 -24.099 -14.108  0.00  0.00    +0.131 C 
BRANCH  23  26
ATOM     24  O   UNL     1      33.736 -23.328 -12.186  0.00  0.00    -0.275 OA
ATOM     25  N   UNL     1      32.676 -24.677 -13.750  0.00  0.00    -0.300 N 
ATOM     26  C   UNL     1      33.755 -23.975 -13.230  0.00  0.00    +0.229 C 
ATOM     27  H   UNL     1      32.794 -25.165 -14.598  0.00  0.00    +0.150 HD
BRANCH  25  28
ATOM     28  C   UNL     1      31.388 -24.719 -13.099  0.00  0.00    +0.116 C 
BRANCH  28  29
ATOM     29  C   UNL     1      30.310 -24.111 -13.949  0.00  0.00    -0.003 C 
ATOM     30  C   UNL     1      29.342 -24.929 -14.520  0.00  0.00    -0.003 C 
ATOM     31  C   UNL     1      30.290 -22.737 -14.157  0.00  0.00    -0.003 C 
ATOM     32  C   UNL     1      28.340 -24.365 -15.310  0.00  0.00    -0.000 C 
ATOM     33  C   UNL     1      29.288 -22.173 -14.947  0.00  0.00    -0.000 C 
ATOM     34  C   UNL     1      28.313 -22.988 -15.524  0.00  0.00    -0.000 C 
ENDBRANCH  28  29
ENDBRANCH  25  28
ENDBRANCH  23  26
ENDBRANCH   3  23
TORSDOF 9
ENDMDL
MODEL 4
REMARK VINA RESULT:     -12.8      3.527      6.480
REMARK  Name = 23635314
REMARK  9 active torsions:
REMARK  status: ('A' for Active; 'I' for Inactive)
REMARK    1  A    between atoms: C_2  and  C_8
REMARK    2  A    between atoms: C_3  and  C_23
REMARK    3  A    between atoms: C_7  and  O_13
REMARK    4  A    between atoms: O_13  and  C_14
REMARK    5  A    between atoms: C_14  and  C_15
REMARK    6  A    between atoms: C_15  and  N_17
REMARK    7  A    between atoms: C_23  and  C_26
REMARK    8  A    between atoms: N_25  and  C_28
REMARK    9  A    between atoms: C_28  and  C_29
REMARK                            x       y       z     vdW  Elec       q    Type
REMARK                         _______ _______ _______ _____ _____    ______ ____
ROOT
ATOM      1  N   UNL     1      35.114 -21.585 -18.744  0.00  0.00    -0.248 NA
ATOM      2  C   UNL     1      34.050 -20.025 -20.251  0.00  0.00    +0.019 C 
ATOM      3  C   UNL     1      33.881 -21.938 -18.316  0.00  0.00    +0.068 C 
ATOM      4  C   UNL     1      32.800 -20.412 -19.786  0.00  0.00    +0.003 C 
ATOM      5  C   UNL     1      35.167 -20.635 -19.704  0.00  0.00    +0.098 C 
ATOM      6  C   UNL     1      32.705 -21.387 -18.799  0.00  0.00    +0.015 C 
ENDROOT
BRANCH   2   8
ATOM      7  C   UNL     1      34.437 -17.069 -23.248  0.00  0.00    +0.138 C 
ATOM      8  C   UNL     1      34.182 -19.014 -21.277  0.00  0.00    +0.002 C 
ATOM      9  C   UNL     1      33.766 -18.253 -23.531  0.00  0.00    +0.037 C 
ATOM     10  C   UNL     1      34.984 -16.849 -21.988  0.00  0.00    +0.037 C 
ATOM     11  C   UNL     1      33.637 -19.228 -22.543  0.00  0.00    +0.003 C 
ATOM     12  C   UNL     1      34.856 -17.824 -21.000  0.00  0.00    +0.003 C 
BRANCH   7  13
ATOM     13  O   UNL     1      34.564 -16.111 -24.220  0.00  0.00    -0.478 OA
BRANCH  13  14
ATOM     14  C   UNL     1      33.501 -15.174 -24.338  0.00  0.00    +0.183 C 
BRANCH  14  15
ATOM     15  C   UNL     1      33.884 -13.905 -23.596  0.00  0.00    -0.029 C 
BRANCH  15  17
ATOM     16  O   UNL     1      31.822 -12.010 -20.470  0.00  0.00    -0.358 OA
ATOM     17  N   UNL     1      32.821 -13.502 -22.679  0.00  0.00    +0.393 N 
ATOM     18  C   UNL     1      33.162 -13.857 -21.294  0.00  0.00    -0.044 C 
ATOM     19  C   UNL     1      32.563 -12.058 -22.779  0.00  0.00    -0.044 C 
ATOM     20  C   UNL     1      32.043 -13.416 -20.356  0.00  0.00    +0.119 C 
ATOM     21  C   UNL     1      31.458 -11.660 -21.806  0.00  0.00    +0.119 C 
ATOM     22  H   UNL     1      31.973 -14.003 -22.944  0.00  0.00    -0.079 HD
ENDBRANCH  15  17
ENDBRANCH  14  15
ENDBRANCH  13  14
ENDBRANCH   7  13
ENDBRANCH   2   8
BRANCH   3  23
ATOM     23  C   UNL     1      33.816 -22.986 -17.256  0.00  0.00    +0.131 C 
BRANCH  23  26
ATOM     24  O   UNL     1      33.811 -22.337 -14.922  0.00  0.00    -0.275 OA
ATOM     25  N   UNL     1      35.840 -22.482 -16.042  0.00  0.00    -0.300 N 
ATOM     26  C   UNL     1      34.458 -22.569 -15.941  0.00  0.00    +0.229 C 
ATOM     27  H   UNL     1      36.264 -22.689 -16.906  0.00  0.00    +0.150 HD
BRANCH  25  28
ATOM     28  C   UNL     1      36.679 -22.100 -14.931  0.00  0.00    +0.116 C 
BRANCH  28  29
ATOM     29  C   UNL     1      36.972 -23.261 -14.024  0.00  0.00    -0.003 C 
ATOM     30  C   UNL     1      37.506 -24.429 -14.554  0.00  0.00    -0.003 C 
ATOM     31  C   UNL     1      36.706 -23.154 -12.664  0.00  0.00    -0.003 C 
ATOM     32  C   UNL     1      37.778 -25.508 -13.712  0.00  0.00    -0.000 C 
ATOM     33  C   UNL     1      36.978 -24.233 -11.822  0.00  0.00    -0.000 C 
ATOM     34  C   UNL     1      37.513 -25.410 -12.347  0.00  0.00    -0.000 C 
ENDBRANCH  28  29
ENDBRANCH  25  28
ENDBRANCH  23  26
ENDBRANCH   3  23
TORSDOF 9
ENDMDL
MODEL 5
REMARK VINA RESULT:     -12.7      3.929     12.458
REMARK  Name = 23635314
REMARK  9 active torsions:
REMARK  status: ('A' for Active; 'I' for Inactive)
REMARK    1  A    between atoms: C_2  and  C_8
REMARK    2  A    between atoms: C_3  and  C_23
REMARK    3  A    between atoms: C_7  and  O_13
REMARK    4  A    between atoms: O_13  and  C_14
REMARK    5  A    between atoms: C_14  and  C_15
REMARK    6  A    between atoms: C_15  and  N_17
REMARK    7  A    between atoms: C_23  and  C_26
REMARK    8  A    between atoms: N_25  and  C_28
REMARK    9  A    between atoms: C_28  and  C_29
REMARK                            x       y       z     vdW  Elec       q    Type
REMARK                         _______ _______ _______ _____ _____    ______ ____
ROOT
ATOM      1  N   UNL     1      33.986 -18.066 -23.601  0.00  0.00    -0.248 NA
ATOM      2  C   UNL     1      34.288 -18.830 -21.329  0.00  0.00    +0.019 C 
ATOM      3  C   UNL     1      34.567 -16.901 -23.235  0.00  0.00    +0.068 C 
ATOM      4  C   UNL     1      34.880 -17.619 -20.990  0.00  0.00    +0.003 C 
ATOM      5  C   UNL     1      33.862 -19.004 -22.635  0.00  0.00    +0.098 C 
ATOM      6  C   UNL     1      35.025 -16.631 -21.956  0.00  0.00    +0.015 C 
ENDROOT
BRANCH   2   8
ATOM      7  C   UNL     1      33.804 -21.895 -18.458  0.00  0.00    +0.138 C 
ATOM      8  C   UNL     1      34.122 -19.879 -20.347  0.00  0.00    +0.002 C 
ATOM      9  C   UNL     1      32.683 -21.295 -19.020  0.00  0.00    +0.037 C 
ATOM     10  C   UNL     1      35.084 -21.496 -18.831  0.00  0.00    +0.037 C 
ATOM     11  C   UNL     1      32.843 -20.284 -19.968  0.00  0.00    +0.003 C 
ATOM     12  C   UNL     1      35.242 -20.485 -19.778  0.00  0.00    +0.003 C 
BRANCH   7  13
ATOM     13  O   UNL     1      33.648 -22.888 -17.527  0.00  0.00    -0.478 OA
BRANCH  13  14
ATOM     14  C   UNL     1      32.389 -22.956 -16.868  0.00  0.00    +0.183 C 
BRANCH  14  15
ATOM     15  C   UNL     1      32.623 -22.962 -15.367  0.00  0.00    -0.029 C 
BRANCH  15  17
ATOM     16  O   UNL     1      29.231 -24.957 -13.908  0.00  0.00    -0.358 OA
ATOM     17  N   UNL     1      31.381 -23.246 -14.652  0.00  0.00    +0.393 N 
ATOM     18  C   UNL     1      30.301 -23.577 -15.592  0.00  0.00    -0.044 C 
ATOM     19  C   UNL     1      31.569 -24.346 -13.695  0.00  0.00    -0.044 C 
ATOM     20  C   UNL     1      29.019 -23.880 -14.822  0.00  0.00    +0.119 C 
ATOM     21  C   UNL     1      30.258 -24.632 -12.970  0.00  0.00    +0.119 C 
ATOM     22  H   UNL     1      31.118 -22.406 -14.136  0.00  0.00    -0.079 HD
ENDBRANCH  15  17
ENDBRANCH  14  15
ENDBRANCH  13  14
ENDBRANCH   7  13
ENDBRANCH   2   8
BRANCH   3  23
ATOM     23  C   UNL     1      34.706 -15.861 -24.297  0.00  0.00    +0.131 C 
BRANCH  23  26
ATOM     24  O   UNL     1      32.501 -15.416 -25.194  0.00  0.00    -0.275 OA
ATOM     25  N   UNL     1      33.513 -13.810 -23.857  0.00  0.00    -0.300 N 
ATOM     26  C   UNL     1      33.448 -15.032 -24.512  0.00  0.00    +0.229 C 
ATOM     27  H   UNL     1      34.320 -13.597 -23.334  0.00  0.00    +0.150 HD
BRANCH  25  28
ATOM     28  C   UNL     1      32.444 -12.841 -23.910  0.00  0.00    +0.116 C 
BRANCH  28  29
ATOM     29  C   UNL     1      32.131 -12.276 -22.554  0.00  0.00    -0.003 C 
ATOM     30  C   UNL     1      31.627 -10.985 -22.448  0.00  0.00    -0.003 C 
ATOM     31  C   UNL     1      32.348 -13.050 -21.420  0.00  0.00    -0.003 C 
ATOM     32  C   UNL     1      31.336 -10.460 -21.188  0.00  0.00    -0.000 C 
ATOM     33  C   UNL     1      32.057 -12.525 -20.161  0.00  0.00    -0.000 C 
ATOM     34  C   UNL     1      31.551 -11.229 -20.045  0.00  0.00    -0.000 C 
ENDBRANCH  28  29
ENDBRANCH  25  28
ENDBRANCH  23  26
ENDBRANCH   3  23
TORSDOF 9
ENDMDL
MODEL 6
REMARK VINA RESULT:     -12.6      1.935     12.888
REMARK  Name = 23635314
REMARK  9 active torsions:
REMARK  status: ('A' for Active; 'I' for Inactive)
REMARK    1  A    between atoms: C_2  and  C_8
REMARK    2  A    between atoms: C_3  and  C_23
REMARK    3  A    between atoms: C_7  and  O_13
REMARK    4  A    between atoms: O_13  and  C_14
REMARK    5  A    between atoms: C_14  and  C_15
REMARK    6  A    between atoms: C_15  and  N_17
REMARK    7  A    between atoms: C_23  and  C_26
REMARK    8  A    between atoms: N_25  and  C_28
REMARK    9  A    between atoms: C_28  and  C_29
REMARK                            x       y       z     vdW  Elec       q    Type
REMARK                         _______ _______ _______ _____ _____    ______ ____
ROOT
ATOM      1  N   UNL     1      32.318 -10.711 -23.022  0.00  0.00    -0.248 NA
ATOM      2  C   UNL     1      32.812 -12.868 -22.051  0.00  0.00    +0.019 C 
ATOM      3  C   UNL     1      31.547 -10.455 -21.941  0.00  0.00    +0.068 C 
ATOM      4  C   UNL     1      32.011 -12.569 -20.956  0.00  0.00    +0.003 C 
ATOM      5  C   UNL     1      32.933 -11.915 -23.049  0.00  0.00    +0.098 C 
ATOM      6  C   UNL     1      31.363 -11.341 -20.892  0.00  0.00    +0.015 C 
ENDROOT
BRANCH   2   8
ATOM      7  C   UNL     1      34.822 -16.576 -22.333  0.00  0.00    +0.138 C 
ATOM      8  C   UNL     1      33.499 -14.136 -22.147  0.00  0.00    +0.002 C 
ATOM      9  C   UNL     1      34.472 -16.075 -21.084  0.00  0.00    +0.037 C 
ATOM     10  C   UNL     1      34.518 -15.867 -23.491  0.00  0.00    +0.037 C 
ATOM     11  C   UNL     1      33.808 -14.852 -20.991  0.00  0.00    +0.003 C 
ATOM     12  C   UNL     1      33.855 -14.644 -23.397  0.00  0.00    +0.003 C 
BRANCH   7  13
ATOM     13  O   UNL     1      35.474 -17.777 -22.424  0.00  0.00    -0.478 OA
BRANCH  13  14
ATOM     14  C   UNL     1      34.771 -18.925 -21.965  0.00  0.00    +0.183 C 
BRANCH  14  15
ATOM     15  C   UNL     1      35.510 -19.506 -20.772  0.00  0.00    -0.029 C 
BRANCH  15  17
ATOM     16  O   UNL     1      32.633 -21.972 -18.967  0.00  0.00    -0.358 OA
ATOM     17  N   UNL     1      34.569 -20.059 -19.800  0.00  0.00    +0.393 N 
ATOM     18  C   UNL     1      33.201 -20.051 -20.336  0.00  0.00    -0.044 C 
ATOM     19  C   UNL     1      34.953 -21.426 -19.420  0.00  0.00    -0.044 C 
ATOM     20  C   UNL     1      32.239 -20.642 -19.309  0.00  0.00    +0.119 C 
ATOM     21  C   UNL     1      33.950 -21.985 -18.416  0.00  0.00    +0.119 C 
ATOM     22  H   UNL     1      34.596 -19.469 -18.968  0.00  0.00    -0.079 HD
ENDBRANCH  15  17
ENDBRANCH  14  15
ENDBRANCH  13  14
ENDBRANCH   7  13
ENDBRANCH   2   8
BRANCH   3  23
ATOM     23  C   UNL     1      30.866  -9.128 -21.906  0.00  0.00    +0.131 C 
BRANCH  23  26
ATOM     24  O   UNL     1      31.730  -7.400 -20.444  0.00  0.00    -0.275 OA
ATOM     25  N   UNL     1      32.672  -7.663 -22.550  0.00  0.00    -0.300 N 
ATOM     26  C   UNL     1      31.786  -7.975 -21.528  0.00  0.00    +0.229 C 
ATOM     27  H   UNL     1      32.636  -8.186 -23.383  0.00  0.00    +0.150 HD
BRANCH  25  28
ATOM     28  C   UNL     1      33.646  -6.603 -22.437  0.00  0.00    +0.116 C 
BRANCH  28  29
ATOM     29  C   UNL     1      33.278  -5.412 -23.274  0.00  0.00    -0.003 C 
ATOM     30  C   UNL     1      34.038  -5.097 -24.394  0.00  0.00    -0.003 C 
ATOM     31  C   UNL     1      32.180  -4.635 -22.919  0.00  0.00    -0.003 C 
ATOM     32  C   UNL     1      33.696  -3.990 -25.172  0.00  0.00    -0.000 C 
ATOM     33  C   UNL     1      31.838  -3.529 -23.696  0.00  0.00    -0.000 C 
ATOM     34  C   UNL     1      32.597  -3.206 -24.823  0.00  0.00    -0.000 C 
ENDBRANCH  28  29
ENDBRANCH  25  28
ENDBRANCH  23  26
ENDBRANCH   3  23
TORSDOF 9
ENDMDL
MODEL 7
REMARK VINA RESULT:     -12.3      4.236      8.141
REMARK  Name = 23635314
REMARK  9 active torsions:
REMARK  status: ('A' for Active; 'I' for Inactive)
REMARK    1  A    between atoms: C_2  and  C_8
REMARK    2  A    between atoms: C_3  and  C_23
REMARK    3  A    between atoms: C_7  and  O_13
REMARK    4  A    between atoms: O_13  and  C_14
REMARK    5  A    between atoms: C_14  and  C_15
REMARK    6  A    between atoms: C_15  and  N_17
REMARK    7  A    between atoms: C_23  and  C_26
REMARK    8  A    between atoms: N_25  and  C_28
REMARK    9  A    between atoms: C_28  and  C_29
REMARK                            x       y       z     vdW  Elec       q    Type
REMARK                         _______ _______ _______ _____ _____    ______ ____
ROOT
ATOM      1  N   UNL     1      34.604 -22.765 -16.668  0.00  0.00    -0.248 NA
ATOM      2  C   UNL     1      35.200 -21.121 -18.334  0.00  0.00    +0.019 C 
ATOM      3  C   UNL     1      35.784 -22.507 -16.061  0.00  0.00    +0.068 C 
ATOM      4  C   UNL     1      36.404 -20.883 -17.684  0.00  0.00    +0.003 C 
ATOM      5  C   UNL     1      34.341 -22.063 -17.792  0.00  0.00    +0.098 C 
ATOM      6  C   UNL     1      36.710 -21.586 -16.524  0.00  0.00    +0.015 C 
ENDROOT
BRANCH   2   8
ATOM      7  C   UNL     1      34.185 -19.032 -21.866  0.00  0.00    +0.138 C 
ATOM      8  C   UNL     1      34.852 -20.406 -19.543  0.00  0.00    +0.002 C 
ATOM      9  C   UNL     1      33.188 -19.654 -21.124  0.00  0.00    +0.037 C 
ATOM     10  C   UNL     1      35.514 -19.090 -21.458  0.00  0.00    +0.037 C 
ATOM     11  C   UNL     1      33.522 -20.343 -19.959  0.00  0.00    +0.003 C 
ATOM     12  C   UNL     1      35.847 -19.780 -20.293  0.00  0.00    +0.003 C 
BRANCH   7  13
ATOM     13  O   UNL     1      33.857 -18.355 -23.012  0.00  0.00    -0.478 OA
BRANCH  13  14
ATOM     14  C   UNL     1      34.551 -17.139 -23.259  0.00  0.00    +0.183 C 
BRANCH  14  15
ATOM     15  C   UNL     1      33.784 -16.341 -24.300  0.00  0.00    -0.029 C 
BRANCH  15  17
ATOM     16  O   UNL     1      33.612 -12.319 -23.114  0.00  0.00    -0.358 OA
ATOM     17  N   UNL     1      33.308 -15.080 -23.737  0.00  0.00    +0.393 N 
ATOM     18  C   UNL     1      34.187 -14.629 -22.648  0.00  0.00    -0.044 C 
ATOM     19  C   UNL     1      33.222 -14.043 -24.775  0.00  0.00    -0.044 C 
ATOM     20  C   UNL     1      33.676 -13.307 -22.084  0.00  0.00    +0.119 C 
ATOM     21  C   UNL     1      32.735 -12.734 -24.162  0.00  0.00    +0.119 C 
ATOM     22  H   UNL     1      32.375 -15.239 -23.358  0.00  0.00    -0.079 HD
ENDBRANCH  15  17
ENDBRANCH  14  15
ENDBRANCH  13  14
ENDBRANCH   7  13
ENDBRANCH   2   8
BRANCH   3  23
ATOM     23  C   UNL     1      36.081 -23.280 -14.819  0.00  0.00    +0.131 C 
BRANCH  23  26
ATOM     24  O   UNL     1      35.028 -25.450 -14.594  0.00  0.00    -0.275 OA
ATOM     25  N   UNL     1      33.900 -23.571 -13.827  0.00  0.00    -0.300 N 
ATOM     26  C   UNL     1      34.969 -24.236 -14.412  0.00  0.00    +0.229 C 
ATOM     27  H   UNL     1      33.951 -22.593 -13.727  0.00  0.00    +0.150 HD
BRANCH  25  28
ATOM     28  C   UNL     1      32.719 -24.257 -13.358  0.00  0.00    +0.116 C 
BRANCH  28  29
ATOM     29  C   UNL     1      31.510 -23.921 -14.183  0.00  0.00    -0.003 C 
ATOM     30  C   UNL     1      31.558 -22.849 -15.067  0.00  0.00    -0.003 C 
ATOM     31  C   UNL     1      30.356 -24.685 -14.056  0.00  0.00    -0.003 C 
ATOM     32  C   UNL     1      30.435 -22.536 -15.833  0.00  0.00    -0.000 C 
ATOM     33  C   UNL     1      29.234 -24.373 -14.822  0.00  0.00    -0.000 C 
ATOM     34  C   UNL     1      29.273 -23.297 -15.711  0.00  0.00    -0.000 C 
ENDBRANCH  28  29
ENDBRANCH  25  28
ENDBRANCH  23  26
ENDBRANCH   3  23
TORSDOF 9
ENDMDL
MODEL 8
REMARK VINA RESULT:     -12.2      1.354      1.919
REMARK  Name = 23635314
REMARK  9 active torsions:
REMARK  status: ('A' for Active; 'I' for Inactive)
REMARK    1  A    between atoms: C_2  and  C_8
REMARK    2  A    between atoms: C_3  and  C_23
REMARK    3  A    between atoms: C_7  and  O_13
REMARK    4  A    between atoms: O_13  and  C_14
REMARK    5  A    between atoms: C_14  and  C_15
REMARK    6  A    between atoms: C_15  and  N_17
REMARK    7  A    between atoms: C_23  and  C_26
REMARK    8  A    between atoms: N_25  and  C_28
REMARK    9  A    between atoms: C_28  and  C_29
REMARK                            x       y       z     vdW  Elec       q    Type
REMARK                         _______ _______ _______ _____ _____    ______ ____
ROOT
ATOM      1  N   UNL     1      34.176 -16.044 -23.795  0.00  0.00    -0.248 NA
ATOM      2  C   UNL     1      33.465 -14.223 -22.376  0.00  0.00    +0.019 C 
ATOM      3  C   UNL     1      34.644 -16.661 -22.687  0.00  0.00    +0.068 C 
ATOM      4  C   UNL     1      33.957 -14.887 -21.260  0.00  0.00    +0.003 C 
ATOM      5  C   UNL     1      33.596 -14.837 -23.611  0.00  0.00    +0.098 C 
ATOM      6  C   UNL     1      34.560 -16.131 -21.410  0.00  0.00    +0.015 C 
ENDROOT
BRANCH   2   8
ATOM      7  C   UNL     1      31.616 -10.439 -22.016  0.00  0.00    +0.138 C 
ATOM      8  C   UNL     1      32.832 -12.928 -22.253  0.00  0.00    +0.002 C 
ATOM      9  C   UNL     1      32.429 -10.706 -23.111  0.00  0.00    +0.037 C 
ATOM     10  C   UNL     1      31.405 -11.404 -21.037  0.00  0.00    +0.037 C 
ATOM     11  C   UNL     1      33.039 -11.954 -23.230  0.00  0.00    +0.003 C 
ATOM     12  C   UNL     1      32.015 -12.653 -21.157  0.00  0.00    +0.003 C 
BRANCH   7  13
ATOM     13  O   UNL     1      31.017  -9.212 -21.898  0.00  0.00    -0.478 OA
BRANCH  13  14
ATOM     14  C   UNL     1      31.844  -8.073 -22.103  0.00  0.00    +0.183 C 
BRANCH  14  15
ATOM     15  C   UNL     1      31.360  -6.949 -21.201  0.00  0.00    -0.029 C 
BRANCH  15  17
ATOM     16  O   UNL     1      29.910  -3.698 -23.424  0.00  0.00    -0.358 OA
ATOM     17  N   UNL     1      31.299  -5.688 -21.936  0.00  0.00    +0.393 N 
ATOM     18  C   UNL     1      30.892  -5.914 -23.330  0.00  0.00    -0.044 C 
ATOM     19  C   UNL     1      30.371  -4.750 -21.287  0.00  0.00    -0.044 C 
ATOM     20  C   UNL     1      30.825  -4.583 -24.072  0.00  0.00    +0.119 C 
ATOM     21  C   UNL     1      30.315  -3.446 -22.078  0.00  0.00    +0.119 C 
ATOM     22  H   UNL     1      32.233  -5.278 -21.932  0.00  0.00    -0.079 HD
ENDBRANCH  15  17
ENDBRANCH  14  15
ENDBRANCH  13  14
ENDBRANCH   7  13
ENDBRANCH   2   8
BRANCH   3  23
ATOM     23  C   UNL     1      35.286 -17.994 -22.885  0.00  0.00    +0.131 C 
BRANCH  23  26
ATOM     24  O   UNL     1      37.090 -18.096 -21.272  0.00  0.00    -0.275 OA
ATOM     25  N   UNL     1      35.278 -19.525 -21.020  0.00  0.00    -0.300 N 
ATOM     26  C   UNL     1      36.000 -18.520 -21.649  0.00  0.00    +0.229 C 
ATOM     27  H   UNL     1      34.411 -19.794 -21.402  0.00  0.00    +0.150 HD
BRANCH  25  28
ATOM     28  C   UNL     1      35.746 -20.189 -19.826  0.00  0.00    +0.116 C 
BRANCH  28  29
ATOM     29  C   UNL     1      34.635 -20.899 -19.107  0.00  0.00    -0.003 C 
ATOM     30  C   UNL     1      33.322 -20.723 -19.526  0.00  0.00    -0.003 C 
ATOM     31  C   UNL     1      34.932 -21.727 -18.030  0.00  0.00    -0.003 C 
ATOM     32  C   UNL     1      32.290 -21.383 -18.858  0.00  0.00    -0.000 C 
ATOM     33  C   UNL     1      33.900 -22.387 -17.363  0.00  0.00    -0.000 C 
ATOM     34  C   UNL     1      32.579 -22.214 -17.777  0.00  0.00    -0.000 C 
ENDBRANCH  28  29
ENDBRANCH  25  28
ENDBRANCH  23  26
ENDBRANCH   3  23
TORSDOF 9
ENDMDL
MODEL 9
REMARK VINA RESULT:     -12.1      2.260      4.362
REMARK  Name = 23635314
REMARK  9 active torsions:
REMARK  status: ('A' for Active; 'I' for Inactive)
REMARK    1  A    between atoms: C_2  and  C_8
REMARK    2  A    between atoms: C_3  and  C_23
REMARK    3  A    between atoms: C_7  and  O_13
REMARK    4  A    between atoms: O_13  and  C_14
REMARK    5  A    between atoms: C_14  and  C_15
REMARK    6  A    between atoms: C_15  and  N_17
REMARK    7  A    between atoms: C_23  and  C_26
REMARK    8  A    between atoms: N_25  and  C_28
REMARK    9  A    between atoms: C_28  and  C_29
REMARK                            x       y       z     vdW  Elec       q    Type
REMARK                         _______ _______ _______ _____ _____    ______ ____
ROOT
ATOM      1  N   UNL     1      36.489 -19.351 -20.197  0.00  0.00    -0.248 NA
ATOM      2  C   UNL     1      34.804 -18.031 -21.316  0.00  0.00    +0.019 C 
ATOM      3  C   UNL     1      35.518 -20.239 -19.885  0.00  0.00    +0.068 C 
ATOM      4  C   UNL     1      33.832 -18.965 -20.976  0.00  0.00    +0.003 C 
ATOM      5  C   UNL     1      36.106 -18.267 -20.907  0.00  0.00    +0.098 C 
ATOM      6  C   UNL     1      34.189 -20.093 -20.247  0.00  0.00    +0.015 C 
ENDROOT
BRANCH   2   8
ATOM      7  C   UNL     1      33.815 -14.569 -23.531  0.00  0.00    +0.138 C 
ATOM      8  C   UNL     1      34.465 -16.847 -22.074  0.00  0.00    +0.002 C 
ATOM      9  C   UNL     1      34.002 -15.779 -24.191  0.00  0.00    +0.037 C 
ATOM     10  C   UNL     1      33.951 -14.487 -22.149  0.00  0.00    +0.037 C 
ATOM     11  C   UNL     1      34.327 -16.921 -23.460  0.00  0.00    +0.003 C 
ATOM     12  C   UNL     1      34.277 -15.630 -21.419  0.00  0.00    +0.003 C 
BRANCH   7  13
ATOM     13  O   UNL     1      33.495 -13.447 -24.249  0.00  0.00    -0.478 OA
BRANCH  13  14
ATOM     14  C   UNL     1      32.447 -12.635 -23.736  0.00  0.00    +0.183 C 
BRANCH  14  15
ATOM     15  C   UNL     1      32.980 -11.229 -23.518  0.00  0.00    -0.029 C 
BRANCH  15  17
ATOM     16  O   UNL     1      31.014  -8.661 -20.842  0.00  0.00    -0.358 OA
ATOM     17  N   UNL     1      31.962 -10.379 -22.905  0.00  0.00    +0.393 N 
ATOM     18  C   UNL     1      31.568 -10.902 -21.589  0.00  0.00    -0.044 C 
ATOM     19  C   UNL     1      32.444  -8.997 -22.773  0.00  0.00    -0.044 C 
ATOM     20  C   UNL     1      30.513  -9.993 -20.965  0.00  0.00    +0.119 C 
ATOM     21  C   UNL     1      31.369  -8.133 -22.121  0.00  0.00    +0.119 C 
ATOM     22  H   UNL     1      31.144 -10.382 -23.514  0.00  0.00    -0.079 HD
ENDBRANCH  15  17
ENDBRANCH  14  15
ENDBRANCH  13  14
ENDBRANCH   7  13
ENDBRANCH   2   8
BRANCH   3  23
ATOM     23  C   UNL     1      35.935 -21.438 -19.100  0.00  0.00    +0.131 C 
BRANCH  23  26
ATOM     24  O   UNL     1      36.801 -20.219 -17.195  0.00  0.00    -0.275 OA
ATOM     25  N   UNL     1      35.486 -22.096 -16.822  0.00  0.00    -0.300 N 
ATOM     26  C   UNL     1      36.136 -21.161 -17.617  0.00  0.00    +0.229 C 
ATOM     27  H   UNL     1      34.976 -22.816 -17.260  0.00  0.00    +0.150 HD
BRANCH  25  28
ATOM     28  C   UNL     1      35.527 -22.053 -15.379  0.00  0.00    +0.116 C 
BRANCH  28  29
ATOM     29  C   UNL     1      36.320 -23.193 -14.807  0.00  0.00    -0.003 C 
ATOM     30  C   UNL     1      37.692 -23.250 -15.018  0.00  0.00    -0.003 C 
ATOM     31  C   UNL     1      35.673 -24.179 -14.071  0.00  0.00    -0.003 C 
ATOM     32  C   UNL     1      38.429 -24.309 -14.486  0.00  0.00    -0.000 C 
ATOM     33  C   UNL     1      36.409 -25.238 -13.539  0.00  0.00    -0.000 C 
ATOM     34  C   UNL     1      37.788 -25.303 -13.747  0.00  0.00    -0.000 C 
ENDBRANCH  28  29
ENDBRANCH  25  28
ENDBRANCH  23  26
ENDBRANCH   3  23
TORSDOF 9
ENDMDL
