MODEL 1
REMARK VINA RESULT:     -10.9      0.000      0.000
REMARK  Name = 11610599
REMARK  7 active torsions:
REMARK  status: ('A' for Active; 'I' for Inactive)
REMARK    1  A    between atoms: N_1  and  C_11
REMARK    2  A    between atoms: C_12  and  O_15
REMARK    3  A    between atoms: C_13  and  O_17
REMARK    4  A    between atoms: C_14  and  C_19
REMARK    5  A    between atoms: C_19  and  O_20
REMARK    6  A    between atoms: O_20  and  N_23
REMARK    7  A    between atoms: N_24  and  C_26
REMARK                            x       y       z     vdW  Elec       q    Type
REMARK                         _______ _______ _______ _____ _____    ______ ____
ROOT
ATOM      1  N   UNL     1      36.032 -22.264 -15.689  0.00  0.00    -0.247 N 
ATOM      2  N   UNL     1      36.934 -20.817 -17.128  0.00  0.00    -0.242 NA
ATOM      3  N   UNL     1      34.012 -22.852 -16.903  0.00  0.00    -0.228 NA
ATOM      4  N   UNL     1      33.878 -21.667 -19.032  0.00  0.00    -0.228 NA
ATOM      5  C   UNL     1      35.170 -22.192 -16.747  0.00  0.00    +0.152 C 
ATOM      6  C   UNL     1      35.746 -21.291 -17.627  0.00  0.00    +0.140 C 
ATOM      7  C   UNL     1      35.056 -21.035 -18.808  0.00  0.00    +0.146 C 
ATOM      8  C   UNL     1      37.075 -21.419 -15.966  0.00  0.00    +0.223 C 
ATOM      9  C   UNL     1      33.436 -22.523 -18.080  0.00  0.00    +0.253 C 
ATOM     10  N   UNL     1      35.569 -20.136 -19.759  0.00  0.00    -0.319 N 
ATOM     11  H   UNL     1      36.426 -19.692 -19.570  0.00  0.00    +0.148 HD
ENDROOT
BRANCH   1  13
ATOM     12  O   UNL     1      36.889 -22.717 -13.523  0.00  0.00    -0.331 OA
ATOM     13  C   UNL     1      35.881 -23.080 -14.487  0.00  0.00    +0.225 C 
ATOM     14  C   UNL     1      36.044 -24.574 -14.728  0.00  0.00    +0.187 C 
ATOM     15  C   UNL     1      36.472 -25.055 -13.356  0.00  0.00    +0.172 C 
ATOM     16  C   UNL     1      37.371 -23.919 -12.877  0.00  0.00    +0.193 C 
BRANCH  14  17
ATOM     17  O   UNL     1      34.844 -25.169 -15.174  0.00  0.00    -0.378 OA
ATOM     18  H   UNL     1      34.539 -24.722 -15.978  0.00  0.00    +0.211 HD
ENDBRANCH  14  17
BRANCH  15  19
ATOM     19  O   UNL     1      35.332 -25.131 -12.500  0.00  0.00    -0.379 OA
ATOM     20  H   UNL     1      34.535 -24.895 -13.002  0.00  0.00    +0.211 HD
ENDBRANCH  15  19
BRANCH  16  21
ATOM     21  C   UNL     1      38.830 -24.116 -13.258  0.00  0.00    +0.275 C 
BRANCH  21  22
ATOM     22  O   UNL     1      39.127 -25.500 -13.215  0.00  0.00    -0.333 OA
BRANCH  22  25
ATOM     23  O   UNL     1      40.994 -26.593 -13.707  0.00  0.00    -0.090 OA
ATOM     24  O   UNL     1      39.903 -25.554 -15.351  0.00  0.00    -0.090 OA
ATOM     25  N   UNL     1      40.086 -25.912 -14.185  0.00  0.00    +0.218 N 
ENDBRANCH  22  25
ENDBRANCH  21  22
ENDBRANCH  16  21
ENDBRANCH   1  13
BRANCH  10  26
ATOM     26  C   UNL     1      34.894 -19.832 -21.003  0.00  0.00    +0.070 C 
ATOM     27  C   UNL     1      35.886 -19.347 -22.050  0.00  0.00    +0.020 C 
ATOM     28  C   UNL     1      33.968 -18.633 -20.835  0.00  0.00    +0.020 C 
ATOM     29  C   UNL     1      36.113 -17.872 -21.724  0.00  0.00    +0.002 C 
ATOM     30  C   UNL     1      34.883 -17.415 -20.938  0.00  0.00    +0.002 C 
ENDBRANCH  10  26
TORSDOF 7
ENDMDL
MODEL 2
REMARK VINA RESULT:     -10.8      3.765      6.206
REMARK  Name = 11610599
REMARK  7 active torsions:
REMARK  status: ('A' for Active; 'I' for Inactive)
REMARK    1  A    between atoms: N_1  and  C_11
REMARK    2  A    between atoms: C_12  and  O_15
REMARK    3  A    between atoms: C_13  and  O_17
REMARK    4  A    between atoms: C_14  and  C_19
REMARK    5  A    between atoms: C_19  and  O_20
REMARK    6  A    between atoms: O_20  and  N_23
REMARK    7  A    between atoms: N_24  and  C_26
REMARK                            x       y       z     vdW  Elec       q    Type
REMARK                         _______ _______ _______ _____ _____    ______ ____
ROOT
ATOM      1  N   UNL     1      32.674 -22.236 -17.381  0.00  0.00    -0.247 N 
ATOM      2  N   UNL     1      32.169 -20.988 -19.161  0.00  0.00    -0.242 NA
ATOM      3  N   UNL     1      35.098 -22.078 -17.437  0.00  0.00    -0.228 NA
ATOM      4  N   UNL     1      35.855 -20.703 -19.306  0.00  0.00    -0.228 NA
ATOM      5  C   UNL     1      33.866 -21.809 -17.896  0.00  0.00    +0.152 C 
ATOM      6  C   UNL     1      33.531 -21.037 -18.997  0.00  0.00    +0.140 C 
ATOM      7  C   UNL     1      34.583 -20.474 -19.713  0.00  0.00    +0.146 C 
ATOM      8  C   UNL     1      31.686 -21.717 -18.176  0.00  0.00    +0.223 C 
ATOM      9  C   UNL     1      36.030 -21.479 -18.210  0.00  0.00    +0.253 C 
ATOM     10  N   UNL     1      34.335 -19.675 -20.843  0.00  0.00    -0.319 N 
ATOM     11  H   UNL     1      33.401 -19.524 -21.116  0.00  0.00    +0.148 HD
ENDROOT
BRANCH   1  13
ATOM     12  O   UNL     1      31.137 -23.612 -16.208  0.00  0.00    -0.331 OA
ATOM     13  C   UNL     1      32.478 -23.084 -16.208  0.00  0.00    +0.225 C 
ATOM     14  C   UNL     1      32.648 -22.357 -14.882  0.00  0.00    +0.187 C 
ATOM     15  C   UNL     1      31.809 -23.217 -13.958  0.00  0.00    +0.172 C 
ATOM     16  C   UNL     1      30.635 -23.606 -14.851  0.00  0.00    +0.193 C 
BRANCH  14  17
ATOM     17  O   UNL     1      34.003 -22.284 -14.491  0.00  0.00    -0.378 OA
ATOM     18  H   UNL     1      34.392 -23.173 -14.500  0.00  0.00    +0.211 HD
ENDBRANCH  14  17
BRANCH  15  19
ATOM     19  O   UNL     1      32.536 -24.397 -13.614  0.00  0.00    -0.379 OA
ATOM     20  H   UNL     1      31.980 -24.970 -13.062  0.00  0.00    +0.211 HD
ENDBRANCH  15  19
BRANCH  16  21
ATOM     21  C   UNL     1      29.478 -22.622 -14.772  0.00  0.00    +0.275 C 
BRANCH  21  22
ATOM     22  O   UNL     1      28.292 -23.281 -15.180  0.00  0.00    -0.333 OA
BRANCH  22  25
ATOM     23  O   UNL     1      28.071 -21.695 -16.714  0.00  0.00    -0.090 OA
ATOM     24  O   UNL     1      27.239 -23.718 -17.147  0.00  0.00    -0.090 OA
ATOM     25  N   UNL     1      27.821 -22.874 -16.461  0.00  0.00    +0.218 N 
ENDBRANCH  22  25
ENDBRANCH  21  22
ENDBRANCH  16  21
ENDBRANCH   1  13
BRANCH  10  26
ATOM     26  C   UNL     1      35.389 -19.064 -21.625  0.00  0.00    +0.070 C 
ATOM     27  C   UNL     1      35.642 -17.634 -21.165  0.00  0.00    +0.020 C 
ATOM     28  C   UNL     1      34.949 -18.878 -23.072  0.00  0.00    +0.020 C 
ATOM     29  C   UNL     1      34.553 -16.804 -21.843  0.00  0.00    +0.002 C 
ATOM     30  C   UNL     1      34.104 -17.607 -23.064  0.00  0.00    +0.002 C 
ENDBRANCH  10  26
TORSDOF 7
ENDMDL
MODEL 3
REMARK VINA RESULT:      -9.8      8.241     12.201
REMARK  Name = 11610599
REMARK  7 active torsions:
REMARK  status: ('A' for Active; 'I' for Inactive)
REMARK    1  A    between atoms: N_1  and  C_11
REMARK    2  A    between atoms: C_12  and  O_15
REMARK    3  A    between atoms: C_13  and  O_17
REMARK    4  A    between atoms: C_14  and  C_19
REMARK    5  A    between atoms: C_19  and  O_20
REMARK    6  A    between atoms: O_20  and  N_23
REMARK    7  A    between atoms: N_24  and  C_26
REMARK                            x       y       z     vdW  Elec       q    Type
REMARK                         _______ _______ _______ _____ _____    ______ ____
ROOT
ATOM      1  N   UNL     1      34.168 -15.223 -22.234  0.00  0.00    -0.247 N 
ATOM      2  N   UNL     1      34.426 -16.359 -20.331  0.00  0.00    -0.242 NA
ATOM      3  N   UNL     1      34.206 -17.061 -23.822  0.00  0.00    -0.228 NA
ATOM      4  N   UNL     1      34.492 -19.205 -22.693  0.00  0.00    -0.228 NA
ATOM      5  C   UNL     1      34.259 -16.541 -22.587  0.00  0.00    +0.152 C 
ATOM      6  C   UNL     1      34.418 -17.227 -21.394  0.00  0.00    +0.140 C 
ATOM      7  C   UNL     1      34.537 -18.611 -21.476  0.00  0.00    +0.146 C 
ATOM      8  C   UNL     1      34.275 -15.167 -20.869  0.00  0.00    +0.223 C 
ATOM      9  C   UNL     1      34.331 -18.405 -23.774  0.00  0.00    +0.253 C 
ATOM     10  N   UNL     1      34.699 -19.387 -20.315  0.00  0.00    -0.319 N 
ATOM     11  H   UNL     1      34.728 -18.930 -19.444  0.00  0.00    +0.148 HD
ENDROOT
BRANCH   1  13
ATOM     12  O   UNL     1      33.984 -12.861 -22.370  0.00  0.00    -0.331 OA
ATOM     13  C   UNL     1      33.992 -14.084 -23.132  0.00  0.00    +0.225 C 
ATOM     14  C   UNL     1      32.685 -14.106 -23.911  0.00  0.00    +0.187 C 
ATOM     15  C   UNL     1      32.485 -12.632 -24.205  0.00  0.00    +0.172 C 
ATOM     16  C   UNL     1      32.985 -11.973 -22.923  0.00  0.00    +0.193 C 
BRANCH  14  17
ATOM     17  O   UNL     1      32.781 -14.896 -25.078  0.00  0.00    -0.378 OA
ATOM     18  H   UNL     1      32.967 -15.815 -24.833  0.00  0.00    +0.211 HD
ENDBRANCH  14  17
BRANCH  15  19
ATOM     19  O   UNL     1      33.336 -12.243 -25.284  0.00  0.00    -0.379 OA
ATOM     20  H   UNL     1      33.029 -12.662 -26.105  0.00  0.00    +0.211 HD
ENDBRANCH  15  19
BRANCH  16  21
ATOM     21  C   UNL     1      31.887 -11.781 -21.888  0.00  0.00    +0.275 C 
BRANCH  21  22
ATOM     22  O   UNL     1      31.264 -10.529 -22.115  0.00  0.00    -0.333 OA
BRANCH  22  25
ATOM     23  O   UNL     1      31.200 -10.356 -19.905  0.00  0.00    -0.090 OA
ATOM     24  O   UNL     1      31.112  -8.490 -21.121  0.00  0.00    -0.090 OA
ATOM     25  N   UNL     1      31.184  -9.709 -20.953  0.00  0.00    +0.218 N 
ENDBRANCH  22  25
ENDBRANCH  21  22
ENDBRANCH  16  21
ENDBRANCH   1  13
BRANCH  10  26
ATOM     26  C   UNL     1      34.828 -20.829 -20.341  0.00  0.00    +0.070 C 
ATOM     27  C   UNL     1      33.695 -21.485 -19.563  0.00  0.00    +0.020 C 
ATOM     28  C   UNL     1      36.066 -21.274 -19.572  0.00  0.00    +0.020 C 
ATOM     29  C   UNL     1      34.120 -21.397 -18.099  0.00  0.00    +0.002 C 
ATOM     30  C   UNL     1      35.642 -21.255 -18.105  0.00  0.00    +0.002 C 
ENDBRANCH  10  26
TORSDOF 7
ENDMDL
MODEL 4
REMARK VINA RESULT:      -9.7     10.230     14.135
REMARK  Name = 11610599
REMARK  7 active torsions:
REMARK  status: ('A' for Active; 'I' for Inactive)
REMARK    1  A    between atoms: N_1  and  C_11
REMARK    2  A    between atoms: C_12  and  O_15
REMARK    3  A    between atoms: C_13  and  O_17
REMARK    4  A    between atoms: C_14  and  C_19
REMARK    5  A    between atoms: C_19  and  O_20
REMARK    6  A    between atoms: O_20  and  N_23
REMARK    7  A    between atoms: N_24  and  C_26
REMARK                            x       y       z     vdW  Elec       q    Type
REMARK                         _______ _______ _______ _____ _____    ______ ____
ROOT
ATOM      1  N   UNL     1      32.677 -12.579 -22.047  0.00  0.00    -0.247 N 
ATOM      2  N   UNL     1      33.834 -14.004 -20.778  0.00  0.00    -0.242 NA
ATOM      3  N   UNL     1      32.763 -13.753 -24.172  0.00  0.00    -0.228 NA
ATOM      4  N   UNL     1      34.005 -15.845 -23.982  0.00  0.00    -0.228 NA
ATOM      5  C   UNL     1      33.039 -13.611 -22.867  0.00  0.00    +0.152 C 
ATOM      6  C   UNL     1      33.755 -14.483 -22.062  0.00  0.00    +0.140 C 
ATOM      7  C   UNL     1      34.246 -15.636 -22.665  0.00  0.00    +0.146 C 
ATOM      8  C   UNL     1      33.179 -12.862 -20.803  0.00  0.00    +0.223 C 
ATOM      9  C   UNL     1      33.289 -14.905 -24.643  0.00  0.00    +0.253 C 
ATOM     10  N   UNL     1      34.981 -16.577 -21.922  0.00  0.00    -0.319 N 
ATOM     11  H   UNL     1      35.141 -16.400 -20.967  0.00  0.00    +0.148 HD
ENDROOT
BRANCH   1  13
ATOM     12  O   UNL     1      32.498 -10.765 -23.565  0.00  0.00    -0.331 OA
ATOM     13  C   UNL     1      31.903 -11.396 -22.414  0.00  0.00    +0.225 C 
ATOM     14  C   UNL     1      31.847 -10.331 -21.329  0.00  0.00    +0.187 C 
ATOM     15  C   UNL     1      31.592  -9.081 -22.147  0.00  0.00    +0.172 C 
ATOM     16  C   UNL     1      32.435  -9.330 -23.394  0.00  0.00    +0.193 C 
BRANCH  14  17
ATOM     17  O   UNL     1      30.828 -10.593 -20.386  0.00  0.00    -0.378 OA
ATOM     18  H   UNL     1      30.078 -10.000 -20.546  0.00  0.00    +0.211 HD
ENDBRANCH  14  17
BRANCH  15  19
ATOM     19  O   UNL     1      30.216  -9.031 -22.524  0.00  0.00    -0.379 OA
ATOM     20  H   UNL     1      29.909  -8.110 -22.506  0.00  0.00    +0.211 HD
ENDBRANCH  15  19
BRANCH  16  21
ATOM     21  C   UNL     1      33.855  -8.799 -23.267  0.00  0.00    +0.275 C 
BRANCH  21  22
ATOM     22  O   UNL     1      33.797  -7.435 -22.888  0.00  0.00    -0.333 OA
BRANCH  22  25
ATOM     23  O   UNL     1      32.547  -5.822 -23.757  0.00  0.00    -0.090 OA
ATOM     24  O   UNL     1      34.252  -6.611 -24.958  0.00  0.00    -0.090 OA
ATOM     25  N   UNL     1      33.517  -6.551 -23.969  0.00  0.00    +0.218 N 
ENDBRANCH  22  25
ENDBRANCH  21  22
ENDBRANCH  16  21
ENDBRANCH   1  13
BRANCH  10  26
ATOM     26  C   UNL     1      35.516 -17.793 -22.497  0.00  0.00    +0.070 C 
ATOM     27  C   UNL     1      34.553 -18.955 -22.291  0.00  0.00    +0.020 C 
ATOM     28  C   UNL     1      36.758 -18.247 -21.740  0.00  0.00    +0.020 C 
ATOM     29  C   UNL     1      34.808 -19.428 -20.861  0.00  0.00    +0.002 C 
ATOM     30  C   UNL     1      36.221 -18.968 -20.505  0.00  0.00    +0.002 C 
ENDBRANCH  10  26
TORSDOF 7
ENDMDL
MODEL 5
REMARK VINA RESULT:      -9.3      2.212      4.173
REMARK  Name = 11610599
REMARK  7 active torsions:
REMARK  status: ('A' for Active; 'I' for Inactive)
REMARK    1  A    between atoms: N_1  and  C_11
REMARK    2  A    between atoms: C_12  and  O_15
REMARK    3  A    between atoms: C_13  and  O_17
REMARK    4  A    between atoms: C_14  and  C_19
REMARK    5  A    between atoms: C_19  and  O_20
REMARK    6  A    between atoms: O_20  and  N_23
REMARK    7  A    between atoms: N_24  and  C_26
REMARK                            x       y       z     vdW  Elec       q    Type
REMARK                         _______ _______ _______ _____ _____    ______ ____
ROOT
ATOM      1  N   UNL     1      35.696 -22.453 -16.137  0.00  0.00    -0.247 N 
ATOM      2  N   UNL     1      36.603 -20.874 -17.426  0.00  0.00    -0.242 NA
ATOM      3  N   UNL     1      33.681 -22.922 -17.410  0.00  0.00    -0.228 NA
ATOM      4  N   UNL     1      33.556 -21.538 -19.416  0.00  0.00    -0.228 NA
ATOM      5  C   UNL     1      34.838 -22.280 -17.187  0.00  0.00    +0.152 C 
ATOM      6  C   UNL     1      35.418 -21.299 -17.974  0.00  0.00    +0.140 C 
ATOM      7  C   UNL     1      34.732 -20.930 -19.127  0.00  0.00    +0.146 C 
ATOM      8  C   UNL     1      36.740 -21.585 -16.326  0.00  0.00    +0.223 C 
ATOM      9  C   UNL     1      33.111 -22.482 -18.553  0.00  0.00    +0.253 C 
ATOM     10  N   UNL     1      35.248 -19.944 -19.985  0.00  0.00    -0.319 N 
ATOM     11  H   UNL     1      36.105 -19.519 -19.751  0.00  0.00    +0.148 HD
ENDROOT
BRANCH   1  13
ATOM     12  O   UNL     1      34.237 -23.992 -15.072  0.00  0.00    -0.331 OA
ATOM     13  C   UNL     1      35.541 -23.381 -15.019  0.00  0.00    +0.225 C 
ATOM     14  C   UNL     1      35.647 -22.726 -13.650  0.00  0.00    +0.187 C 
ATOM     15  C   UNL     1      34.853 -23.691 -12.792  0.00  0.00    +0.172 C 
ATOM     16  C   UNL     1      33.717 -24.099 -13.726  0.00  0.00    +0.193 C 
BRANCH  14  17
ATOM     17  O   UNL     1      36.990 -22.590 -13.233  0.00  0.00    -0.378 OA
ATOM     18  H   UNL     1      37.076 -21.810 -12.665  0.00  0.00    +0.211 HD
ENDBRANCH  14  17
BRANCH  15  19
ATOM     19  O   UNL     1      35.650 -24.841 -12.507  0.00  0.00    -0.379 OA
ATOM     20  H   UNL     1      35.251 -25.336 -11.774  0.00  0.00    +0.211 HD
ENDBRANCH  15  19
BRANCH  16  21
ATOM     21  C   UNL     1      32.499 -23.196 -13.608  0.00  0.00    +0.275 C 
BRANCH  21  22
ATOM     22  O   UNL     1      31.460 -23.729 -14.411  0.00  0.00    -0.333 OA
BRANCH  22  25
ATOM     23  O   UNL     1      30.413 -24.200 -12.513  0.00  0.00    -0.090 OA
ATOM     24  O   UNL     1      29.988 -25.458 -14.304  0.00  0.00    -0.090 OA
ATOM     25  N   UNL     1      30.538 -24.541 -13.690  0.00  0.00    +0.218 N 
ENDBRANCH  22  25
ENDBRANCH  21  22
ENDBRANCH  16  21
ENDBRANCH   1  13
BRANCH  10  26
ATOM     26  C   UNL     1      34.578 -19.522 -21.197  0.00  0.00    +0.070 C 
ATOM     27  C   UNL     1      35.588 -19.256 -22.306  0.00  0.00    +0.020 C 
ATOM     28  C   UNL     1      33.923 -18.160 -21.005  0.00  0.00    +0.020 C 
ATOM     29  C   UNL     1      36.123 -17.854 -22.023  0.00  0.00    +0.002 C 
ATOM     30  C   UNL     1      35.057 -17.152 -21.182  0.00  0.00    +0.002 C 
ENDBRANCH  10  26
TORSDOF 7
ENDMDL
MODEL 6
REMARK VINA RESULT:      -9.1      1.845      2.927
REMARK  Name = 11610599
REMARK  7 active torsions:
REMARK  status: ('A' for Active; 'I' for Inactive)
REMARK    1  A    between atoms: N_1  and  C_11
REMARK    2  A    between atoms: C_12  and  O_15
REMARK    3  A    between atoms: C_13  and  O_17
REMARK    4  A    between atoms: C_14  and  C_19
REMARK    5  A    between atoms: C_19  and  O_20
REMARK    6  A    between atoms: O_20  and  N_23
REMARK    7  A    between atoms: N_24  and  C_26
REMARK                            x       y       z     vdW  Elec       q    Type
REMARK                         _______ _______ _______ _____ _____    ______ ____
ROOT
ATOM      1  N   UNL     1      35.651 -22.802 -16.297  0.00  0.00    -0.247 N 
ATOM      2  N   UNL     1      36.453 -21.022 -17.378  0.00  0.00    -0.242 NA
ATOM      3  N   UNL     1      33.603 -23.162 -17.554  0.00  0.00    -0.228 NA
ATOM      4  N   UNL     1      33.353 -21.514 -19.336  0.00  0.00    -0.228 NA
ATOM      5  C   UNL     1      34.746 -22.515 -17.281  0.00  0.00    +0.152 C 
ATOM      6  C   UNL     1      35.262 -21.410 -17.939  0.00  0.00    +0.140 C 
ATOM      7  C   UNL     1      34.519 -20.909 -19.004  0.00  0.00    +0.146 C 
ATOM      8  C   UNL     1      36.657 -21.876 -16.397  0.00  0.00    +0.223 C 
ATOM      9  C   UNL     1      32.974 -22.587 -18.601  0.00  0.00    +0.253 C 
ATOM     10  N   UNL     1      34.968 -19.792 -19.729  0.00  0.00    -0.319 N 
ATOM     11  H   UNL     1      35.819 -19.373 -19.467  0.00  0.00    +0.148 HD
ENDROOT
BRANCH   1  13
ATOM     12  O   UNL     1      34.545 -23.589 -14.351  0.00  0.00    -0.331 OA
ATOM     13  C   UNL     1      35.570 -23.884 -15.319  0.00  0.00    +0.225 C 
ATOM     14  C   UNL     1      36.852 -24.100 -14.527  0.00  0.00    +0.187 C 
ATOM     15  C   UNL     1      36.319 -24.746 -13.263  0.00  0.00    +0.172 C 
ATOM     16  C   UNL     1      35.008 -23.998 -13.042  0.00  0.00    +0.193 C 
BRANCH  14  17
ATOM     17  O   UNL     1      37.770 -24.918 -15.222  0.00  0.00    -0.378 OA
ATOM     18  H   UNL     1      38.487 -25.180 -14.625  0.00  0.00    +0.211 HD
ENDBRANCH  14  17
BRANCH  15  19
ATOM     19  O   UNL     1      36.028 -26.120 -13.518  0.00  0.00    -0.379 OA
ATOM     20  H   UNL     1      35.235 -26.185 -14.075  0.00  0.00    +0.211 HD
ENDBRANCH  15  19
BRANCH  16  21
ATOM     21  C   UNL     1      35.172 -22.754 -12.181  0.00  0.00    +0.275 C 
BRANCH  21  22
ATOM     22  O   UNL     1      34.576 -22.995 -10.919  0.00  0.00    -0.333 OA
BRANCH  22  25
ATOM     23  O   UNL     1      36.423 -23.376  -9.751  0.00  0.00    -0.090 OA
ATOM     24  O   UNL     1      34.842 -24.949  -9.788  0.00  0.00    -0.090 OA
ATOM     25  N   UNL     1      35.338 -23.858 -10.080  0.00  0.00    +0.218 N 
ENDBRANCH  22  25
ENDBRANCH  21  22
ENDBRANCH  16  21
ENDBRANCH   1  13
BRANCH  10  26
ATOM     26  C   UNL     1      34.237 -19.229 -20.844  0.00  0.00    +0.070 C 
ATOM     27  C   UNL     1      34.945 -19.527 -22.159  0.00  0.00    +0.020 C 
ATOM     28  C   UNL     1      34.258 -17.706 -20.789  0.00  0.00    +0.020 C 
ATOM     29  C   UNL     1      36.053 -18.479 -22.256  0.00  0.00    +0.002 C 
ATOM     30  C   UNL     1      35.614 -17.312 -21.371  0.00  0.00    +0.002 C 
ENDBRANCH  10  26
TORSDOF 7
ENDMDL
MODEL 7
REMARK VINA RESULT:      -8.8      4.666      8.681
REMARK  Name = 11610599
REMARK  7 active torsions:
REMARK  status: ('A' for Active; 'I' for Inactive)
REMARK    1  A    between atoms: N_1  and  C_11
REMARK    2  A    between atoms: C_12  and  O_15
REMARK    3  A    between atoms: C_13  and  O_17
REMARK    4  A    between atoms: C_14  and  C_19
REMARK    5  A    between atoms: C_19  and  O_20
REMARK    6  A    between atoms: O_20  and  N_23
REMARK    7  A    between atoms: N_24  and  C_26
REMARK                            x       y       z     vdW  Elec       q    Type
REMARK                         _______ _______ _______ _____ _____    ______ ____
ROOT
ATOM      1  N   UNL     1      35.032 -21.156 -18.727  0.00  0.00    -0.247 N 
ATOM      2  N   UNL     1      36.491 -21.397 -17.056  0.00  0.00    -0.242 NA
ATOM      3  N   UNL     1      33.141 -22.371 -17.806  0.00  0.00    -0.228 NA
ATOM      4  N   UNL     1      33.651 -23.260 -15.591  0.00  0.00    -0.228 NA
ATOM      5  C   UNL     1      34.392 -21.888 -17.767  0.00  0.00    +0.152 C 
ATOM      6  C   UNL     1      35.312 -22.025 -16.740  0.00  0.00    +0.140 C 
ATOM      7  C   UNL     1      34.903 -22.743 -15.620  0.00  0.00    +0.146 C 
ATOM      8  C   UNL     1      36.290 -20.886 -18.253  0.00  0.00    +0.223 C 
ATOM      9  C   UNL     1      32.860 -23.045 -16.670  0.00  0.00    +0.253 C 
ATOM     10  N   UNL     1      35.771 -22.930 -14.531  0.00  0.00    -0.319 N 
ATOM     11  H   UNL     1      36.675 -22.543 -14.579  0.00  0.00    +0.148 HD
ENDROOT
BRANCH   1  13
ATOM     12  O   UNL     1      35.535 -20.142 -20.813  0.00  0.00    -0.331 OA
ATOM     13  C   UNL     1      34.491 -20.736 -20.018  0.00  0.00    +0.225 C 
ATOM     14  C   UNL     1      33.389 -19.691 -19.916  0.00  0.00    +0.187 C 
ATOM     15  C   UNL     1      33.486 -19.019 -21.271  0.00  0.00    +0.172 C 
ATOM     16  C   UNL     1      34.991 -19.002 -21.520  0.00  0.00    +0.193 C 
BRANCH  14  17
ATOM     17  O   UNL     1      32.126 -20.279 -19.679  0.00  0.00    -0.378 OA
ATOM     18  H   UNL     1      31.883 -20.840 -20.431  0.00  0.00    +0.211 HD
ENDBRANCH  14  17
BRANCH  15  19
ATOM     19  O   UNL     1      32.866 -19.844 -22.258  0.00  0.00    -0.379 OA
ATOM     20  H   UNL     1      31.972 -19.514 -22.440  0.00  0.00    +0.211 HD
ENDBRANCH  15  19
BRANCH  16  21
ATOM     21  C   UNL     1      35.665 -17.744 -20.993  0.00  0.00    +0.275 C 
BRANCH  21  22
ATOM     22  O   UNL     1      34.667 -16.862 -20.511  0.00  0.00    -0.333 OA
BRANCH  22  25
ATOM     23  O   UNL     1      34.185 -14.702 -20.651  0.00  0.00    -0.090 OA
ATOM     24  O   UNL     1      34.686 -15.804 -22.524  0.00  0.00    -0.090 OA
ATOM     25  N   UNL     1      34.500 -15.694 -21.310  0.00  0.00    +0.218 N 
ENDBRANCH  22  25
ENDBRANCH  21  22
ENDBRANCH  16  21
ENDBRANCH   1  13
BRANCH  10  26
ATOM     26  C   UNL     1      35.399 -23.667 -13.342  0.00  0.00    +0.070 C 
ATOM     27  C   UNL     1      35.822 -22.915 -12.087  0.00  0.00    +0.020 C 
ATOM     28  C   UNL     1      36.192 -24.964 -13.240  0.00  0.00    +0.020 C 
ATOM     29  C   UNL     1      37.305 -23.238 -11.916  0.00  0.00    +0.002 C 
ATOM     30  C   UNL     1      37.544 -24.551 -12.662  0.00  0.00    +0.002 C 
ENDBRANCH  10  26
TORSDOF 7
ENDMDL
MODEL 8
REMARK VINA RESULT:      -8.8      3.483      5.777
REMARK  Name = 11610599
REMARK  7 active torsions:
REMARK  status: ('A' for Active; 'I' for Inactive)
REMARK    1  A    between atoms: N_1  and  C_11
REMARK    2  A    between atoms: C_12  and  O_15
REMARK    3  A    between atoms: C_13  and  O_17
REMARK    4  A    between atoms: C_14  and  C_19
REMARK    5  A    between atoms: C_19  and  O_20
REMARK    6  A    between atoms: O_20  and  N_23
REMARK    7  A    between atoms: N_24  and  C_26
REMARK                            x       y       z     vdW  Elec       q    Type
REMARK                         _______ _______ _______ _____ _____    ______ ____
ROOT
ATOM      1  N   UNL     1      33.806 -22.639 -16.636  0.00  0.00    -0.247 N 
ATOM      2  N   UNL     1      35.376 -21.704 -17.916  0.00  0.00    -0.242 NA
ATOM      3  N   UNL     1      31.817 -21.947 -17.846  0.00  0.00    -0.228 NA
ATOM      4  N   UNL     1      32.390 -20.615 -19.810  0.00  0.00    -0.228 NA
ATOM      5  C   UNL     1      33.143 -22.005 -17.649  0.00  0.00    +0.152 C 
ATOM      6  C   UNL     1      34.133 -21.432 -18.431  0.00  0.00    +0.140 C 
ATOM      7  C   UNL     1      33.716 -20.715 -19.548  0.00  0.00    +0.146 C 
ATOM      8  C   UNL     1      35.145 -22.428 -16.841  0.00  0.00    +0.223 C 
ATOM      9  C   UNL     1      31.536 -21.228 -18.955  0.00  0.00    +0.253 C 
ATOM     10  N   UNL     1      34.653 -20.103 -20.398  0.00  0.00    -0.319 N 
ATOM     11  H   UNL     1      35.610 -20.192 -20.185  0.00  0.00    +0.148 HD
ENDROOT
BRANCH   1  13
ATOM     12  O   UNL     1      31.878 -23.808 -15.896  0.00  0.00    -0.331 OA
ATOM     13  C   UNL     1      33.213 -23.399 -15.538  0.00  0.00    +0.225 C 
ATOM     14  C   UNL     1      33.082 -22.614 -14.241  0.00  0.00    +0.187 C 
ATOM     15  C   UNL     1      31.941 -23.343 -13.561  0.00  0.00    +0.172 C 
ATOM     16  C   UNL     1      31.025 -23.680 -14.734  0.00  0.00    +0.193 C 
BRANCH  14  17
ATOM     17  O   UNL     1      34.278 -22.635 -13.490  0.00  0.00    -0.378 OA
ATOM     18  H   UNL     1      34.859 -21.917 -13.785  0.00  0.00    +0.211 HD
ENDBRANCH  14  17
BRANCH  15  19
ATOM     19  O   UNL     1      32.425 -24.559 -12.992  0.00  0.00    -0.379 OA
ATOM     20  H   UNL     1      32.358 -24.512 -12.024  0.00  0.00    +0.211 HD
ENDBRANCH  15  19
BRANCH  16  21
ATOM     21  C   UNL     1      29.994 -22.596 -15.012  0.00  0.00    +0.275 C 
BRANCH  21  22
ATOM     22  O   UNL     1      28.729 -23.209 -15.189  0.00  0.00    -0.333 OA
BRANCH  22  25
ATOM     23  O   UNL     1      28.281 -21.683 -16.736  0.00  0.00    -0.090 OA
ATOM     24  O   UNL     1      27.433 -23.730 -16.983  0.00  0.00    -0.090 OA
ATOM     25  N   UNL     1      28.086 -22.855 -16.410  0.00  0.00    +0.218 N 
ENDBRANCH  22  25
ENDBRANCH  21  22
ENDBRANCH  16  21
ENDBRANCH   1  13
BRANCH  10  26
ATOM     26  C   UNL     1      34.276 -19.346 -21.573  0.00  0.00    +0.070 C 
ATOM     27  C   UNL     1      35.416 -19.316 -22.584  0.00  0.00    +0.020 C 
ATOM     28  C   UNL     1      34.093 -17.872 -21.230  0.00  0.00    +0.020 C 
ATOM     29  C   UNL     1      36.356 -18.220 -22.084  0.00  0.00    +0.002 C 
ATOM     30  C   UNL     1      35.507 -17.297 -21.210  0.00  0.00    +0.002 C 
ENDBRANCH  10  26
TORSDOF 7
ENDMDL
MODEL 9
REMARK VINA RESULT:      -8.7      3.696      6.034
REMARK  Name = 11610599
REMARK  7 active torsions:
REMARK  status: ('A' for Active; 'I' for Inactive)
REMARK    1  A    between atoms: N_1  and  C_11
REMARK    2  A    between atoms: C_12  and  O_15
REMARK    3  A    between atoms: C_13  and  O_17
REMARK    4  A    between atoms: C_14  and  C_19
REMARK    5  A    between atoms: C_19  and  O_20
REMARK    6  A    between atoms: O_20  and  N_23
REMARK    7  A    between atoms: N_24  and  C_26
REMARK                            x       y       z     vdW  Elec       q    Type
REMARK                         _______ _______ _______ _____ _____    ______ ____
ROOT
ATOM      1  N   UNL     1      33.641 -21.221 -19.214  0.00  0.00    -0.247 N 
ATOM      2  N   UNL     1      32.606 -19.878 -20.664  0.00  0.00    -0.242 NA
ATOM      3  N   UNL     1      35.910 -20.377 -19.414  0.00  0.00    -0.228 NA
ATOM      4  N   UNL     1      36.037 -18.541 -21.017  0.00  0.00    -0.228 NA
ATOM      5  C   UNL     1      34.604 -20.392 -19.718  0.00  0.00    +0.152 C 
ATOM      6  C   UNL     1      33.942 -19.568 -20.614  0.00  0.00    +0.140 C 
ATOM      7  C   UNL     1      34.709 -18.614 -21.276  0.00  0.00    +0.146 C 
ATOM      8  C   UNL     1      32.459 -20.873 -19.814  0.00  0.00    +0.223 C 
ATOM      9  C   UNL     1      36.547 -19.414 -20.116  0.00  0.00    +0.253 C 
ATOM     10  N   UNL     1      34.119 -17.735 -22.201  0.00  0.00    -0.319 N 
ATOM     11  H   UNL     1      33.152 -17.809 -22.369  0.00  0.00    +0.148 HD
ENDROOT
BRANCH   1  13
ATOM     12  O   UNL     1      32.593 -23.007 -18.056  0.00  0.00    -0.331 OA
ATOM     13  C   UNL     1      33.825 -22.281 -18.225  0.00  0.00    +0.225 C 
ATOM     14  C   UNL     1      34.213 -21.777 -16.842  0.00  0.00    +0.187 C 
ATOM     15  C   UNL     1      33.720 -22.907 -15.961  0.00  0.00    +0.172 C 
ATOM     16  C   UNL     1      32.423 -23.317 -16.653  0.00  0.00    +0.193 C 
BRANCH  14  17
ATOM     17  O   UNL     1      35.604 -21.557 -16.733  0.00  0.00    -0.378 OA
ATOM     18  H   UNL     1      36.082 -22.268 -17.189  0.00  0.00    +0.211 HD
ENDBRANCH  14  17
BRANCH  15  19
ATOM     19  O   UNL     1      34.640 -23.997 -16.024  0.00  0.00    -0.379 OA
ATOM     20  H   UNL     1      35.501 -23.675 -16.333  0.00  0.00    +0.211 HD
ENDBRANCH  15  19
BRANCH  16  21
ATOM     21  C   UNL     1      31.210 -22.559 -16.137  0.00  0.00    +0.275 C 
BRANCH  21  22
ATOM     22  O   UNL     1      30.431 -23.436 -15.342  0.00  0.00    -0.333 OA
BRANCH  22  25
ATOM     23  O   UNL     1      28.969 -21.985 -14.518  0.00  0.00    -0.090 OA
ATOM     24  O   UNL     1      30.233 -23.148 -13.096  0.00  0.00    -0.090 OA
ATOM     25  N   UNL     1      29.833 -22.808 -14.212  0.00  0.00    +0.218 N 
ENDBRANCH  22  25
ENDBRANCH  21  22
ENDBRANCH  16  21
ENDBRANCH   1  13
BRANCH  10  26
ATOM     26  C   UNL     1      34.868 -16.724 -22.918  0.00  0.00    +0.070 C 
ATOM     27  C   UNL     1      34.601 -15.342 -22.337  0.00  0.00    +0.020 C 
ATOM     28  C   UNL     1      34.360 -16.591 -24.349  0.00  0.00    +0.020 C 
ATOM     29  C   UNL     1      33.273 -14.906 -22.954  0.00  0.00    +0.002 C 
ATOM     30  C   UNL     1      33.116 -15.713 -24.242  0.00  0.00    +0.002 C 
ENDBRANCH  10  26
TORSDOF 7
ENDMDL
