MODEL 1
REMARK VINA RESULT:     -13.0      0.000      0.000
REMARK  Name = 24779676
REMARK  4 active torsions:
REMARK  status: ('A' for Active; 'I' for Inactive)
REMARK    1  A    between atoms: N_2  and  C_22
REMARK    2  A    between atoms: N_3  and  C_14
REMARK    3  A    between atoms: C_10  and  C_21
REMARK    4  A    between atoms: C_22  and  C_24
REMARK                            x       y       z     vdW  Elec       q    Type
REMARK                         _______ _______ _______ _____ _____    ______ ____
ROOT
ATOM      1  N   UNL     1      32.363 -23.567 -14.138  0.00  0.00    -0.123 N 
ATOM      2  N   UNL     1      33.824 -22.443 -17.691  0.00  0.00    -0.254 N 
ATOM      3  N   UNL     1      34.453 -24.411 -13.436  0.00  0.00    -0.274 N 
ATOM      4  N   UNL     1      34.144 -23.427 -15.569  0.00  0.00    -0.295 NA
ATOM      5  N   UNL     1      32.014 -22.583 -16.246  0.00  0.00    -0.314 NA
ATOM      6  N   UNL     1      31.767 -23.901 -12.980  0.00  0.00    -0.170 NA
ATOM      7  C   UNL     1      33.702 -23.803 -14.405  0.00  0.00    +0.279 C 
ATOM      8  C   UNL     1      31.535 -22.968 -15.043  0.00  0.00    +0.219 C 
ATOM      9  C   UNL     1      33.286 -22.816 -16.482  0.00  0.00    +0.203 C 
ATOM     10  C   UNL     1      30.304 -22.907 -14.429  0.00  0.00    +0.203 C 
ATOM     11  C   UNL     1      30.507 -23.495 -13.164  0.00  0.00    +0.116 C 
ATOM     12  H   UNL     1      34.777 -22.619 -17.865  0.00  0.00    +0.161 HD
ATOM     13  H   UNL     1      33.989 -24.644 -12.599  0.00  0.00    +0.156 HD
ENDROOT
BRANCH   3  14
ATOM     14  C   UNL     1      35.809 -24.738 -13.507  0.00  0.00    +0.051 C 
ATOM     15  C   UNL     1      36.745 -23.990 -12.793  0.00  0.00    +0.015 C 
ATOM     16  C   UNL     1      36.226 -25.813 -14.292  0.00  0.00    +0.015 C 
ATOM     17  C   UNL     1      38.099 -24.318 -12.864  0.00  0.00    +0.001 C 
ATOM     18  C   UNL     1      37.581 -26.141 -14.362  0.00  0.00    +0.001 C 
ATOM     19  C   UNL     1      38.517 -25.393 -13.648  0.00  0.00    +0.000 C 
ENDBRANCH   3  14
BRANCH  10  21
ATOM     20  N   UNL     1      28.132 -21.923 -15.417  0.00  0.00    -0.195 NA
ATOM     21  C   UNL     1      29.109 -22.366 -14.973  0.00  0.00    +0.087 C 
ENDBRANCH  10  21
BRANCH   2  22
ATOM     22  C   UNL     1      33.043 -21.808 -18.706  0.00  0.00    +0.125 C 
BRANCH  22  24
ATOM     23 CL   UNL     1      36.439 -18.024 -21.919  0.00  0.00    -0.082 Cl
ATOM     24  C   UNL     1      33.892 -20.863 -19.510  0.00  0.00    -0.002 C 
ATOM     25  C   UNL     1      33.292 -19.963 -20.392  0.00  0.00    -0.002 C 
ATOM     26  C   UNL     1      35.280 -20.884 -19.373  0.00  0.00    -0.002 C 
ATOM     27  C   UNL     1      34.080 -19.086 -21.136  0.00  0.00    +0.011 C 
ATOM     28  C   UNL     1      36.068 -20.006 -20.118  0.00  0.00    +0.011 C 
ATOM     29  C   UNL     1      35.467 -19.107 -20.999  0.00  0.00    +0.058 C 
ENDBRANCH  22  24
ENDBRANCH   2  22
TORSDOF 4
ENDMDL
MODEL 2
REMARK VINA RESULT:     -12.1      1.521      5.402
REMARK  Name = 24779676
REMARK  4 active torsions:
REMARK  status: ('A' for Active; 'I' for Inactive)
REMARK    1  A    between atoms: N_2  and  C_22
REMARK    2  A    between atoms: N_3  and  C_14
REMARK    3  A    between atoms: C_10  and  C_21
REMARK    4  A    between atoms: C_22  and  C_24
REMARK                            x       y       z     vdW  Elec       q    Type
REMARK                         _______ _______ _______ _____ _____    ______ ____
ROOT
ATOM      1  N   UNL     1      33.627 -23.495 -14.440  0.00  0.00    -0.123 N 
ATOM      2  N   UNL     1      33.868 -21.975 -18.136  0.00  0.00    -0.254 N 
ATOM      3  N   UNL     1      31.267 -23.459 -14.474  0.00  0.00    -0.274 N 
ATOM      4  N   UNL     1      32.564 -22.714 -16.311  0.00  0.00    -0.295 NA
ATOM      5  N   UNL     1      34.952 -22.764 -16.241  0.00  0.00    -0.314 NA
ATOM      6  N   UNL     1      33.666 -24.008 -13.198  0.00  0.00    -0.170 NA
ATOM      7  C   UNL     1      32.450 -23.208 -15.112  0.00  0.00    +0.279 C 
ATOM      8  C   UNL     1      34.855 -23.277 -14.995  0.00  0.00    +0.219 C 
ATOM      9  C   UNL     1      33.825 -22.497 -16.864  0.00  0.00    +0.203 C 
ATOM     10  C   UNL     1      35.765 -23.676 -14.042  0.00  0.00    +0.203 C 
ATOM     11  C   UNL     1      34.976 -24.116 -12.959  0.00  0.00    +0.116 C 
ATOM     12  H   UNL     1      33.022 -21.776 -18.599  0.00  0.00    +0.161 HD
ATOM     13  H   UNL     1      31.327 -23.835 -13.565  0.00  0.00    +0.156 HD
ENDROOT
BRANCH   3  14
ATOM     14  C   UNL     1      29.981 -23.240 -14.972  0.00  0.00    +0.051 C 
ATOM     15  C   UNL     1      29.345 -22.019 -14.748  0.00  0.00    +0.015 C 
ATOM     16  C   UNL     1      29.332 -24.243 -15.692  0.00  0.00    +0.015 C 
ATOM     17  C   UNL     1      28.061 -21.800 -15.247  0.00  0.00    +0.001 C 
ATOM     18  C   UNL     1      28.048 -24.024 -16.191  0.00  0.00    +0.001 C 
ATOM     19  C   UNL     1      27.412 -22.803 -15.968  0.00  0.00    +0.000 C 
ENDBRANCH   3  14
BRANCH  10  21
ATOM     20  N   UNL     1      38.338 -23.616 -14.239  0.00  0.00    -0.195 NA
ATOM     21  C   UNL     1      37.181 -23.643 -14.151  0.00  0.00    +0.087 C 
ENDBRANCH  10  21
BRANCH   2  22
ATOM     22  C   UNL     1      35.102 -21.710 -18.806  0.00  0.00    +0.125 C 
BRANCH  22  24
ATOM     23 CL   UNL     1      34.509 -17.031 -22.538  0.00  0.00    -0.082 Cl
ATOM     24  C   UNL     1      34.953 -20.541 -19.739  0.00  0.00    -0.002 C 
ATOM     25  C   UNL     1      33.699 -20.215 -20.257  0.00  0.00    -0.002 C 
ATOM     26  C   UNL     1      36.070 -19.780 -20.088  0.00  0.00    -0.002 C 
ATOM     27  C   UNL     1      33.563 -19.130 -21.122  0.00  0.00    +0.011 C 
ATOM     28  C   UNL     1      35.933 -18.695 -20.953  0.00  0.00    +0.011 C 
ATOM     29  C   UNL     1      34.679 -18.370 -21.470  0.00  0.00    +0.058 C 
ENDBRANCH  22  24
ENDBRANCH   2  22
TORSDOF 4
ENDMDL
MODEL 3
REMARK VINA RESULT:     -11.0      2.684      6.839
REMARK  Name = 24779676
REMARK  4 active torsions:
REMARK  status: ('A' for Active; 'I' for Inactive)
REMARK    1  A    between atoms: N_2  and  C_22
REMARK    2  A    between atoms: N_3  and  C_14
REMARK    3  A    between atoms: C_10  and  C_21
REMARK    4  A    between atoms: C_22  and  C_24
REMARK                            x       y       z     vdW  Elec       q    Type
REMARK                         _______ _______ _______ _____ _____    ______ ____
ROOT
ATOM      1  N   UNL     1      31.401 -22.664 -16.270  0.00  0.00    -0.123 N 
ATOM      2  N   UNL     1      35.123 -22.633 -14.797  0.00  0.00    -0.254 N 
ATOM      3  N   UNL     1      32.080 -21.615 -18.273  0.00  0.00    -0.274 N 
ATOM      4  N   UNL     1      33.609 -22.122 -16.535  0.00  0.00    -0.295 NA
ATOM      5  N   UNL     1      32.886 -23.183 -14.521  0.00  0.00    -0.314 NA
ATOM      6  N   UNL     1      30.117 -22.728 -16.663  0.00  0.00    -0.170 NA
ATOM      7  C   UNL     1      32.411 -22.117 -17.045  0.00  0.00    +0.279 C 
ATOM      8  C   UNL     1      31.634 -23.187 -15.031  0.00  0.00    +0.219 C 
ATOM      9  C   UNL     1      33.832 -22.660 -15.269  0.00  0.00    +0.203 C 
ATOM     10  C   UNL     1      30.410 -23.625 -14.580  0.00  0.00    +0.203 C 
ATOM     11  C   UNL     1      29.515 -23.317 -15.625  0.00  0.00    +0.116 C 
ATOM     12  H   UNL     1      35.829 -22.240 -15.360  0.00  0.00    +0.161 HD
ATOM     13  H   UNL     1      31.132 -21.677 -18.533  0.00  0.00    +0.156 HD
ENDROOT
BRANCH   3  14
ATOM     14  C   UNL     1      32.942 -21.024 -19.199  0.00  0.00    +0.051 C 
ATOM     15  C   UNL     1      32.434 -20.171 -20.179  0.00  0.00    +0.015 C 
ATOM     16  C   UNL     1      34.311 -21.288 -19.144  0.00  0.00    +0.015 C 
ATOM     17  C   UNL     1      33.297 -19.580 -21.103  0.00  0.00    +0.001 C 
ATOM     18  C   UNL     1      35.173 -20.696 -20.068  0.00  0.00    +0.001 C 
ATOM     19  C   UNL     1      34.665 -19.843 -21.048  0.00  0.00    +0.000 C 
ENDBRANCH   3  14
BRANCH  10  21
ATOM     20  N   UNL     1      29.910 -24.757 -12.315  0.00  0.00    -0.195 NA
ATOM     21  C   UNL     1      30.135 -24.248 -13.334  0.00  0.00    +0.087 C 
ENDBRANCH  10  21
BRANCH   2  22
ATOM     22  C   UNL     1      35.473 -23.155 -13.514  0.00  0.00    +0.125 C 
BRANCH  22  24
ATOM     23 CL   UNL     1      40.658 -26.188 -13.821  0.00  0.00    -0.082 Cl
ATOM     24  C   UNL     1      36.769 -23.912 -13.590  0.00  0.00    -0.002 C 
ATOM     25  C   UNL     1      37.103 -24.827 -12.591  0.00  0.00    -0.002 C 
ATOM     26  C   UNL     1      37.638 -23.703 -14.662  0.00  0.00    -0.002 C 
ATOM     27  C   UNL     1      38.306 -25.530 -12.662  0.00  0.00    +0.011 C 
ATOM     28  C   UNL     1      38.841 -24.406 -14.732  0.00  0.00    +0.011 C 
ATOM     29  C   UNL     1      39.174 -25.320 -13.733  0.00  0.00    +0.058 C 
ENDBRANCH  22  24
ENDBRANCH   2  22
TORSDOF 4
ENDMDL
MODEL 4
REMARK VINA RESULT:     -10.6      3.064      7.542
REMARK  Name = 24779676
REMARK  4 active torsions:
REMARK  status: ('A' for Active; 'I' for Inactive)
REMARK    1  A    between atoms: N_2  and  C_22
REMARK    2  A    between atoms: N_3  and  C_14
REMARK    3  A    between atoms: C_10  and  C_21
REMARK    4  A    between atoms: C_22  and  C_24
REMARK                            x       y       z     vdW  Elec       q    Type
REMARK                         _______ _______ _______ _____ _____    ______ ____
ROOT
ATOM      1  N   UNL     1      35.962 -22.226 -16.443  0.00  0.00    -0.123 N 
ATOM      2  N   UNL     1      32.010 -22.808 -16.700  0.00  0.00    -0.254 N 
ATOM      3  N   UNL     1      35.991 -20.892 -18.391  0.00  0.00    -0.274 N 
ATOM      4  N   UNL     1      33.994 -21.849 -17.549  0.00  0.00    -0.295 NA
ATOM      5  N   UNL     1      34.003 -23.196 -15.575  0.00  0.00    -0.314 NA
ATOM      6  N   UNL     1      37.288 -22.098 -16.259  0.00  0.00    -0.170 NA
ATOM      7  C   UNL     1      35.277 -21.639 -17.495  0.00  0.00    +0.279 C 
ATOM      8  C   UNL     1      35.337 -22.991 -15.501  0.00  0.00    +0.219 C 
ATOM      9  C   UNL     1      33.369 -22.632 -16.580  0.00  0.00    +0.203 C 
ATOM     10  C   UNL     1      36.329 -23.393 -14.636  0.00  0.00    +0.203 C 
ATOM     11  C   UNL     1      37.506 -22.814 -15.151  0.00  0.00    +0.116 C 
ATOM     12  H   UNL     1      31.539 -22.384 -17.453  0.00  0.00    +0.161 HD
ATOM     13  H   UNL     1      36.960 -20.816 -18.229  0.00  0.00    +0.156 HD
ENDROOT
BRANCH   3  14
ATOM     14  C   UNL     1      35.494 -20.224 -19.512  0.00  0.00    +0.051 C 
ATOM     15  C   UNL     1      34.191 -20.467 -19.947  0.00  0.00    +0.015 C 
ATOM     16  C   UNL     1      36.301 -19.316 -20.197  0.00  0.00    +0.015 C 
ATOM     17  C   UNL     1      33.695 -19.799 -21.067  0.00  0.00    +0.001 C 
ATOM     18  C   UNL     1      35.804 -18.648 -21.317  0.00  0.00    +0.001 C 
ATOM     19  C   UNL     1      34.501 -18.890 -21.751  0.00  0.00    +0.000 C 
ENDBRANCH   3  14
BRANCH  10  21
ATOM     20  N   UNL     1      36.046 -24.878 -12.544  0.00  0.00    -0.195 NA
ATOM     21  C   UNL     1      36.173 -24.210 -13.485  0.00  0.00    +0.087 C 
ENDBRANCH  10  21
BRANCH   2  22
ATOM     22  C   UNL     1      31.261 -23.589 -15.767  0.00  0.00    +0.125 C 
BRANCH  22  24
ATOM     23 CL   UNL     1      25.590 -21.611 -15.447  0.00  0.00    -0.082 Cl
ATOM     24  C   UNL     1      29.843 -23.095 -15.686  0.00  0.00    -0.002 C 
ATOM     25  C   UNL     1      29.486 -22.151 -14.722  0.00  0.00    -0.002 C 
ATOM     26  C   UNL     1      28.884 -23.579 -16.577  0.00  0.00    -0.002 C 
ATOM     27  C   UNL     1      28.171 -21.693 -14.648  0.00  0.00    +0.011 C 
ATOM     28  C   UNL     1      27.569 -23.120 -16.502  0.00  0.00    +0.011 C 
ATOM     29  C   UNL     1      27.213 -22.177 -15.538  0.00  0.00    +0.058 C 
ENDBRANCH  22  24
ENDBRANCH   2  22
TORSDOF 4
ENDMDL
