MODEL 1
REMARK VINA RESULT:     -13.9      0.000      0.000
REMARK  Name = 11840906
REMARK  7 active torsions:
REMARK  status: ('A' for Active; 'I' for Inactive)
REMARK    1  A    between atoms: O_1  and  C_3
REMARK    2  A    between atoms: O_1  and  C_18
REMARK    3  A    between atoms: C_5  and  C_9
REMARK    4  A    between atoms: C_18  and  C_19
REMARK    5  A    between atoms: C_19  and  N_20
REMARK    6  A    between atoms: C_19  and  C_24
REMARK    7  A    between atoms: C_24  and  C_26
REMARK                            x       y       z     vdW  Elec       q    Type
REMARK                         _______ _______ _______ _____ _____    ______ ____
ROOT
ATOM      1  O   UNL     1      33.911 -13.336 -22.540  0.00  0.00    -0.476 OA
ENDROOT
BRANCH   1   3
ATOM      2  N   UNL     1      33.814 -16.223 -24.763  0.00  0.00    -0.239 NA
ATOM      3  C   UNL     1      33.995 -14.637 -22.964  0.00  0.00    +0.158 C 
ATOM      4  C   UNL     1      34.328 -15.645 -22.076  0.00  0.00    +0.040 C 
ATOM      5  C   UNL     1      34.405 -16.955 -22.536  0.00  0.00    +0.022 C 
ATOM      6  C   UNL     1      33.749 -14.962 -24.280  0.00  0.00    +0.136 C 
ATOM      7  C   UNL     1      34.141 -17.189 -23.875  0.00  0.00    +0.099 C 
BRANCH   5   9
ATOM      8  N   UNL     1      34.761 -22.028 -18.526  0.00  0.00    -0.242 NA
ATOM      9  C   UNL     1      34.749 -18.037 -21.643  0.00  0.00    +0.002 C 
ATOM     10  C   UNL     1      34.067 -19.925 -20.265  0.00  0.00    +0.003 C 
ATOM     11  C   UNL     1      33.748 -18.870 -21.135  0.00  0.00    +0.000 C 
ATOM     12  C   UNL     1      35.414 -20.137 -19.909  0.00  0.00    +0.019 C 
ATOM     13  C   UNL     1      36.079 -18.251 -21.286  0.00  0.00    +0.000 C 
ATOM     14  C   UNL     1      36.413 -19.295 -20.423  0.00  0.00    +0.002 C 
ATOM     15  C   UNL     1      33.085 -20.776 -19.742  0.00  0.00    +0.021 C 
ATOM     16  C   UNL     1      35.693 -21.196 -19.043  0.00  0.00    +0.099 C 
ATOM     17  C   UNL     1      33.481 -21.795 -18.890  0.00  0.00    +0.099 C 
ENDBRANCH   5   9
ENDBRANCH   1   3
BRANCH   1  18
ATOM     18  C   UNL     1      33.749 -13.127 -21.143  0.00  0.00    +0.184 C 
BRANCH  18  19
ATOM     19  C   UNL     1      32.262 -12.965 -20.811  0.00  0.00    -0.021 C 
BRANCH  19  20
ATOM     20  N   UNL     1      31.851 -14.076 -19.953  0.00  0.00    +0.384 N 
ATOM     21  H   UNL     1      31.513 -14.846 -20.532  0.00  0.00    -0.089 HD
ATOM     22  H   UNL     1      31.105 -13.767 -19.330  0.00  0.00    -0.089 HD
ATOM     23  H   UNL     1      32.648 -14.392 -19.400  0.00  0.00    -0.089 HD
ENDBRANCH  19  20
BRANCH  19  24
ATOM     24  C   UNL     1      31.980 -11.607 -20.133  0.00  0.00    -0.012 C 
BRANCH  24  26
ATOM     25  N   UNL     1      31.803  -9.661 -22.984  0.00  0.00    -0.270 NA
ATOM     26  C   UNL     1      31.089 -10.688 -20.946  0.00  0.00    +0.046 C 
ATOM     27  C   UNL     1      31.362  -9.234 -20.736  0.00  0.00    -0.007 C 
ATOM     28  C   UNL     1      31.426 -10.774 -22.431  0.00  0.00    +0.130 C 
ATOM     29  C   UNL     1      31.769  -8.695 -21.963  0.00  0.00    +0.071 C 
ATOM     30  C   UNL     1      31.257  -8.454 -19.601  0.00  0.00    -0.024 C 
ATOM     31  C   UNL     1      32.089  -7.353 -22.076  0.00  0.00    +0.014 C 
ATOM     32  C   UNL     1      31.579  -7.099 -19.707  0.00  0.00    +0.052 C 
ATOM     33  C   UNL     1      31.992  -6.554 -20.933  0.00  0.00    -0.020 C 
ENDBRANCH  24  26
ENDBRANCH  19  24
ENDBRANCH  18  19
ENDBRANCH   1  18
TORSDOF 7
ENDMDL
MODEL 2
REMARK VINA RESULT:     -13.6      0.947      1.167
REMARK  Name = 11840906
REMARK  7 active torsions:
REMARK  status: ('A' for Active; 'I' for Inactive)
REMARK    1  A    between atoms: O_1  and  C_3
REMARK    2  A    between atoms: O_1  and  C_18
REMARK    3  A    between atoms: C_5  and  C_9
REMARK    4  A    between atoms: C_18  and  C_19
REMARK    5  A    between atoms: C_19  and  N_20
REMARK    6  A    between atoms: C_19  and  C_24
REMARK    7  A    between atoms: C_24  and  C_26
REMARK                            x       y       z     vdW  Elec       q    Type
REMARK                         _______ _______ _______ _____ _____    ______ ____
ROOT
ATOM      1  O   UNL     1      34.184 -13.444 -22.844  0.00  0.00    -0.476 OA
ENDROOT
BRANCH   1   3
ATOM      2  N   UNL     1      33.754 -16.448 -24.862  0.00  0.00    -0.239 NA
ATOM      3  C   UNL     1      34.153 -14.772 -23.184  0.00  0.00    +0.158 C 
ATOM      4  C   UNL     1      34.472 -15.743 -22.254  0.00  0.00    +0.040 C 
ATOM      5  C   UNL     1      34.432 -17.082 -22.630  0.00  0.00    +0.022 C 
ATOM      6  C   UNL     1      33.805 -15.159 -24.461  0.00  0.00    +0.136 C 
ATOM      7  C   UNL     1      34.070 -17.378 -23.933  0.00  0.00    +0.099 C 
BRANCH   5   9
ATOM      8  N   UNL     1      34.707 -22.016 -18.444  0.00  0.00    -0.242 NA
ATOM      9  C   UNL     1      34.757 -18.128 -21.689  0.00  0.00    +0.002 C 
ATOM     10  C   UNL     1      34.050 -19.983 -20.278  0.00  0.00    +0.003 C 
ATOM     11  C   UNL     1      33.750 -18.962 -21.194  0.00  0.00    +0.000 C 
ATOM     12  C   UNL     1      35.385 -20.160 -19.861  0.00  0.00    +0.019 C 
ATOM     13  C   UNL     1      36.075 -18.308 -21.273  0.00  0.00    +0.000 C 
ATOM     14  C   UNL     1      36.391 -19.318 -20.363  0.00  0.00    +0.002 C 
ATOM     15  C   UNL     1      33.062 -20.833 -19.766  0.00  0.00    +0.021 C 
ATOM     16  C   UNL     1      35.646 -21.185 -18.950  0.00  0.00    +0.099 C 
ATOM     17  C   UNL     1      33.440 -21.817 -18.866  0.00  0.00    +0.099 C 
ENDBRANCH   5   9
ENDBRANCH   1   3
BRANCH   1  18
ATOM     18  C   UNL     1      33.288 -13.024 -21.823  0.00  0.00    +0.184 C 
BRANCH  18  19
ATOM     19  C   UNL     1      32.154 -12.196 -22.435  0.00  0.00    -0.021 C 
BRANCH  19  20
ATOM     20  N   UNL     1      30.993 -12.264 -21.548  0.00  0.00    +0.384 N 
ATOM     21  H   UNL     1      30.137 -12.212 -22.102  0.00  0.00    -0.089 HD
ATOM     22  H   UNL     1      31.020 -11.484 -20.891  0.00  0.00    -0.089 HD
ATOM     23  H   UNL     1      31.010 -13.144 -21.032  0.00  0.00    -0.089 HD
ENDBRANCH  19  20
BRANCH  19  24
ATOM     24  C   UNL     1      32.587 -10.733 -22.670  0.00  0.00    -0.012 C 
BRANCH  24  26
ATOM     25  N   UNL     1      31.665  -7.476 -23.369  0.00  0.00    -0.270 NA
ATOM     26  C   UNL     1      31.441  -9.739 -22.631  0.00  0.00    +0.046 C 
ATOM     27  C   UNL     1      31.485  -8.806 -21.464  0.00  0.00    -0.007 C 
ATOM     28  C   UNL     1      31.571  -8.713 -23.752  0.00  0.00    +0.130 C 
ATOM     29  C   UNL     1      31.612  -7.504 -21.964  0.00  0.00    +0.071 C 
ATOM     30  C   UNL     1      31.412  -9.059 -20.108  0.00  0.00    -0.024 C 
ATOM     31  C   UNL     1      31.674  -6.419 -21.106  0.00  0.00    +0.014 C 
ATOM     32  C   UNL     1      31.474  -7.969 -19.236  0.00  0.00    +0.052 C 
ATOM     33  C   UNL     1      31.605  -6.661 -19.731  0.00  0.00    -0.020 C 
ENDBRANCH  24  26
ENDBRANCH  19  24
ENDBRANCH  18  19
ENDBRANCH   1  18
TORSDOF 7
ENDMDL
MODEL 3
REMARK VINA RESULT:     -13.4      1.755     10.239
REMARK  Name = 11840906
REMARK  7 active torsions:
REMARK  status: ('A' for Active; 'I' for Inactive)
REMARK    1  A    between atoms: O_1  and  C_3
REMARK    2  A    between atoms: O_1  and  C_18
REMARK    3  A    between atoms: C_5  and  C_9
REMARK    4  A    between atoms: C_18  and  C_19
REMARK    5  A    between atoms: C_19  and  N_20
REMARK    6  A    between atoms: C_19  and  C_24
REMARK    7  A    between atoms: C_24  and  C_26
REMARK                            x       y       z     vdW  Elec       q    Type
REMARK                         _______ _______ _______ _____ _____    ______ ____
ROOT
ATOM      1  O   UNL     1      35.082 -17.047 -22.288  0.00  0.00    -0.476 OA
ENDROOT
BRANCH   1   3
ATOM      2  N   UNL     1      33.509 -15.347 -25.103  0.00  0.00    -0.239 NA
ATOM      3  C   UNL     1      34.388 -16.098 -22.993  0.00  0.00    +0.158 C 
ATOM      4  C   UNL     1      33.883 -14.979 -22.356  0.00  0.00    +0.040 C 
ATOM      5  C   UNL     1      33.184 -14.034 -23.099  0.00  0.00    +0.022 C 
ATOM      6  C   UNL     1      34.183 -16.244 -24.349  0.00  0.00    +0.136 C 
ATOM      7  C   UNL     1      33.026 -14.262 -24.455  0.00  0.00    +0.099 C 
BRANCH   5   9
ATOM      8  N   UNL     1      31.034  -8.186 -21.332  0.00  0.00    -0.242 NA
ATOM      9  C   UNL     1      32.640 -12.851 -22.473  0.00  0.00    +0.002 C 
ATOM     10  C   UNL     1      32.097 -10.479 -22.572  0.00  0.00    +0.003 C 
ATOM     11  C   UNL     1      32.622 -11.638 -23.168  0.00  0.00    +0.000 C 
ATOM     12  C   UNL     1      31.587 -10.553 -21.260  0.00  0.00    +0.019 C 
ATOM     13  C   UNL     1      32.135 -12.917 -21.176  0.00  0.00    +0.000 C 
ATOM     14  C   UNL     1      31.611 -11.775 -20.569  0.00  0.00    +0.002 C 
ATOM     15  C   UNL     1      32.065  -9.251 -23.244  0.00  0.00    +0.021 C 
ATOM     16  C   UNL     1      31.074  -9.381 -20.701  0.00  0.00    +0.099 C 
ATOM     17  C   UNL     1      31.530  -8.153 -22.587  0.00  0.00    +0.099 C 
ENDBRANCH   5   9
ENDBRANCH   1   3
BRANCH   1  18
ATOM     18  C   UNL     1      34.599 -18.382 -22.366  0.00  0.00    +0.184 C 
BRANCH  18  19
ATOM     19  C   UNL     1      35.203 -19.220 -21.234  0.00  0.00    -0.021 C 
BRANCH  19  20
ATOM     20  N   UNL     1      36.235 -18.427 -20.565  0.00  0.00    +0.384 N 
ATOM     21  H   UNL     1      36.266 -18.675 -19.575  0.00  0.00    -0.089 HD
ATOM     22  H   UNL     1      36.017 -17.435 -20.659  0.00  0.00    -0.089 HD
ATOM     23  H   UNL     1      37.141 -18.618 -20.992  0.00  0.00    -0.089 HD
ENDBRANCH  19  20
BRANCH  19  24
ATOM     24  C   UNL     1      34.121 -19.679 -20.233  0.00  0.00    -0.012 C 
BRANCH  24  26
ATOM     25  N   UNL     1      32.691 -22.195 -18.343  0.00  0.00    -0.270 NA
ATOM     26  C   UNL     1      34.199 -21.152 -19.877  0.00  0.00    +0.046 C 
ATOM     27  C   UNL     1      34.880 -21.428 -18.576  0.00  0.00    -0.007 C 
ATOM     28  C   UNL     1      32.819 -21.705 -19.539  0.00  0.00    +0.130 C 
ATOM     29  C   UNL     1      33.947 -22.040 -17.729  0.00  0.00    +0.071 C 
ATOM     30  C   UNL     1      36.177 -21.185 -18.170  0.00  0.00    -0.024 C 
ATOM     31  C   UNL     1      34.297 -22.417 -16.444  0.00  0.00    +0.014 C 
ATOM     32  C   UNL     1      36.538 -21.562 -16.875  0.00  0.00    +0.052 C 
ATOM     33  C   UNL     1      35.606 -22.173 -16.019  0.00  0.00    -0.020 C 
ENDBRANCH  24  26
ENDBRANCH  19  24
ENDBRANCH  18  19
ENDBRANCH   1  18
TORSDOF 7
ENDMDL
MODEL 4
REMARK VINA RESULT:     -13.1      3.747      7.001
REMARK  Name = 11840906
REMARK  7 active torsions:
REMARK  status: ('A' for Active; 'I' for Inactive)
REMARK    1  A    between atoms: O_1  and  C_3
REMARK    2  A    between atoms: O_1  and  C_18
REMARK    3  A    between atoms: C_5  and  C_9
REMARK    4  A    between atoms: C_18  and  C_19
REMARK    5  A    between atoms: C_19  and  N_20
REMARK    6  A    between atoms: C_19  and  C_24
REMARK    7  A    between atoms: C_24  and  C_26
REMARK                            x       y       z     vdW  Elec       q    Type
REMARK                         _______ _______ _______ _____ _____    ______ ____
ROOT
ATOM      1  O   UNL     1      35.047 -20.244 -20.571  0.00  0.00    -0.476 OA
ENDROOT
BRANCH   1   3
ATOM      2  N   UNL     1      32.383 -21.883 -18.700  0.00  0.00    -0.239 NA
ATOM      3  C   UNL     1      34.410 -20.912 -19.558  0.00  0.00    +0.158 C 
ATOM      4  C   UNL     1      35.099 -21.282 -18.417  0.00  0.00    +0.040 C 
ATOM      5  C   UNL     1      34.425 -21.959 -17.407  0.00  0.00    +0.022 C 
ATOM      6  C   UNL     1      33.072 -21.227 -19.660  0.00  0.00    +0.136 C 
ATOM      7  C   UNL     1      33.080 -22.233 -17.595  0.00  0.00    +0.099 C 
BRANCH   5   9
ATOM      8  N   UNL     1      36.377 -24.060 -11.601  0.00  0.00    -0.242 NA
ATOM      9  C   UNL     1      35.106 -22.362 -16.199  0.00  0.00    +0.002 C 
ATOM     10  C   UNL     1      35.027 -23.282 -13.946  0.00  0.00    +0.003 C 
ATOM     11  C   UNL     1      34.379 -22.887 -15.127  0.00  0.00    +0.000 C 
ATOM     12  C   UNL     1      36.427 -23.143 -13.852  0.00  0.00    +0.019 C 
ATOM     13  C   UNL     1      36.490 -22.226 -16.100  0.00  0.00    +0.000 C 
ATOM     14  C   UNL     1      37.150 -22.614 -14.933  0.00  0.00    +0.002 C 
ATOM     15  C   UNL     1      34.325 -23.812 -12.857  0.00  0.00    +0.021 C 
ATOM     16  C   UNL     1      37.037 -23.547 -12.663  0.00  0.00    +0.099 C 
ATOM     17  C   UNL     1      35.038 -24.180 -11.727  0.00  0.00    +0.099 C 
ENDBRANCH   5   9
ENDBRANCH   1   3
BRANCH   1  18
ATOM     18  C   UNL     1      34.468 -19.015 -20.991  0.00  0.00    +0.184 C 
BRANCH  18  19
ATOM     19  C   UNL     1      35.556 -17.942 -21.107  0.00  0.00    -0.021 C 
BRANCH  19  20
ATOM     20  N   UNL     1      36.859 -18.570 -20.887  0.00  0.00    +0.384 N 
ATOM     21  H   UNL     1      36.927 -18.881 -19.918  0.00  0.00    -0.089 HD
ATOM     22  H   UNL     1      37.599 -17.895 -21.080  0.00  0.00    -0.089 HD
ATOM     23  H   UNL     1      36.959 -19.372 -21.509  0.00  0.00    -0.089 HD
ENDBRANCH  19  20
BRANCH  19  24
ATOM     24  C   UNL     1      35.506 -17.235 -22.479  0.00  0.00    -0.012 C 
BRANCH  24  26
ATOM     25  N   UNL     1      33.696 -15.557 -24.899  0.00  0.00    -0.270 NA
ATOM     26  C   UNL     1      34.127 -16.731 -22.861  0.00  0.00    +0.046 C 
ATOM     27  C   UNL     1      33.916 -15.276 -22.596  0.00  0.00    -0.007 C 
ATOM     28  C   UNL     1      33.952 -16.718 -24.376  0.00  0.00    +0.130 C 
ATOM     29  C   UNL     1      33.665 -14.651 -23.824  0.00  0.00    +0.071 C 
ATOM     30  C   UNL     1      33.928 -14.567 -21.410  0.00  0.00    -0.024 C 
ATOM     31  C   UNL     1      33.426 -13.289 -23.890  0.00  0.00    +0.014 C 
ATOM     32  C   UNL     1      33.688 -13.192 -21.469  0.00  0.00    +0.052 C 
ATOM     33  C   UNL     1      33.440 -12.559 -22.698  0.00  0.00    -0.020 C 
ENDBRANCH  24  26
ENDBRANCH  19  24
ENDBRANCH  18  19
ENDBRANCH   1  18
TORSDOF 7
ENDMDL
MODEL 5
REMARK VINA RESULT:     -13.0      3.577     11.013
REMARK  Name = 11840906
REMARK  7 active torsions:
REMARK  status: ('A' for Active; 'I' for Inactive)
REMARK    1  A    between atoms: O_1  and  C_3
REMARK    2  A    between atoms: O_1  and  C_18
REMARK    3  A    between atoms: C_5  and  C_9
REMARK    4  A    between atoms: C_18  and  C_19
REMARK    5  A    between atoms: C_19  and  N_20
REMARK    6  A    between atoms: C_19  and  C_24
REMARK    7  A    between atoms: C_24  and  C_26
REMARK                            x       y       z     vdW  Elec       q    Type
REMARK                         _______ _______ _______ _____ _____    ______ ____
ROOT
ATOM      1  O   UNL     1      33.648 -21.076 -20.247  0.00  0.00    -0.476 OA
ENDROOT
BRANCH   1   3
ATOM      2  N   UNL     1      36.576 -18.906 -20.340  0.00  0.00    -0.239 NA
ATOM      3  C   UNL     1      34.448 -20.007 -20.558  0.00  0.00    +0.158 C 
ATOM      4  C   UNL     1      33.976 -18.987 -21.365  0.00  0.00    +0.040 C 
ATOM      5  C   UNL     1      34.810 -17.916 -21.662  0.00  0.00    +0.022 C 
ATOM      6  C   UNL     1      35.736 -19.931 -20.073  0.00  0.00    +0.136 C 
ATOM      7  C   UNL     1      36.089 -17.923 -21.130  0.00  0.00    +0.099 C 
BRANCH   5   9
ATOM      8  N   UNL     1      32.955 -12.366 -24.438  0.00  0.00    -0.242 NA
ATOM      9  C   UNL     1      34.357 -16.830 -22.500  0.00  0.00    +0.002 C 
ATOM     10  C   UNL     1      33.844 -14.467 -22.787  0.00  0.00    +0.003 C 
ATOM     11  C   UNL     1      34.285 -15.533 -21.985  0.00  0.00    +0.000 C 
ATOM     12  C   UNL     1      33.474 -14.721 -24.123  0.00  0.00    +0.019 C 
ATOM     13  C   UNL     1      33.989 -17.075 -23.822  0.00  0.00    +0.000 C 
ATOM     14  C   UNL     1      33.549 -16.028 -24.632  0.00  0.00    +0.002 C 
ATOM     15  C   UNL     1      33.762 -13.157 -22.299  0.00  0.00    +0.021 C 
ATOM     16  C   UNL     1      33.042 -13.638 -24.890  0.00  0.00    +0.099 C 
ATOM     17  C   UNL     1      33.319 -12.160 -23.154  0.00  0.00    +0.099 C 
ENDBRANCH   5   9
ENDBRANCH   1   3
BRANCH   1  18
ATOM     18  C   UNL     1      34.109 -21.941 -19.217  0.00  0.00    +0.184 C 
BRANCH  18  19
ATOM     19  C   UNL     1      33.218 -21.796 -17.979  0.00  0.00    -0.021 C 
BRANCH  19  20
ATOM     20  N   UNL     1      31.831 -21.639 -18.417  0.00  0.00    +0.384 N 
ATOM     21  H   UNL     1      31.742 -21.955 -19.384  0.00  0.00    -0.089 HD
ATOM     22  H   UNL     1      31.563 -20.657 -18.356  0.00  0.00    -0.089 HD
ATOM     23  H   UNL     1      31.220 -22.196 -17.820  0.00  0.00    -0.089 HD
ENDBRANCH  19  20
BRANCH  19  24
ATOM     24  C   UNL     1      33.367 -23.006 -17.032  0.00  0.00    -0.012 C 
BRANCH  24  26
ATOM     25  N   UNL     1      33.659 -24.227 -13.811  0.00  0.00    -0.270 NA
ATOM     26  C   UNL     1      33.228 -22.656 -15.562  0.00  0.00    +0.046 C 
ATOM     27  C   UNL     1      31.949 -23.121 -14.944  0.00  0.00    -0.007 C 
ATOM     28  C   UNL     1      34.203 -23.467 -14.715  0.00  0.00    +0.130 C 
ATOM     29  C   UNL     1      32.272 -24.030 -13.929  0.00  0.00    +0.071 C 
ATOM     30  C   UNL     1      30.640 -22.782 -15.225  0.00  0.00    -0.024 C 
ATOM     31  C   UNL     1      31.279 -24.628 -13.173  0.00  0.00    +0.014 C 
ATOM     32  C   UNL     1      29.633 -23.382 -14.466  0.00  0.00    +0.052 C 
ATOM     33  C   UNL     1      29.950 -24.298 -13.449  0.00  0.00    -0.020 C 
ENDBRANCH  24  26
ENDBRANCH  19  24
ENDBRANCH  18  19
ENDBRANCH   1  18
TORSDOF 7
ENDMDL
MODEL 6
REMARK VINA RESULT:     -12.7      4.198     11.425
REMARK  Name = 11840906
REMARK  7 active torsions:
REMARK  status: ('A' for Active; 'I' for Inactive)
REMARK    1  A    between atoms: O_1  and  C_3
REMARK    2  A    between atoms: O_1  and  C_18
REMARK    3  A    between atoms: C_5  and  C_9
REMARK    4  A    between atoms: C_18  and  C_19
REMARK    5  A    between atoms: C_19  and  N_20
REMARK    6  A    between atoms: C_19  and  C_24
REMARK    7  A    between atoms: C_24  and  C_26
REMARK                            x       y       z     vdW  Elec       q    Type
REMARK                         _______ _______ _______ _____ _____    ______ ____
ROOT
ATOM      1  O   UNL     1      32.669 -21.980 -18.514  0.00  0.00    -0.476 OA
ENDROOT
BRANCH   1   3
ATOM      2  N   UNL     1      36.089 -20.922 -19.204  0.00  0.00    -0.239 NA
ATOM      3  C   UNL     1      33.716 -21.297 -19.078  0.00  0.00    +0.158 C 
ATOM      4  C   UNL     1      33.488 -20.338 -20.047  0.00  0.00    +0.040 C 
ATOM      5  C   UNL     1      34.571 -19.662 -20.601  0.00  0.00    +0.022 C 
ATOM      6  C   UNL     1      35.013 -21.558 -18.689  0.00  0.00    +0.136 C 
ATOM      7  C   UNL     1      35.838 -19.988 -20.149  0.00  0.00    +0.099 C 
BRANCH   5   9
ATOM      8  N   UNL     1      33.829 -14.354 -24.236  0.00  0.00    -0.242 NA
ATOM      9  C   UNL     1      34.377 -18.652 -21.615  0.00  0.00    +0.002 C 
ATOM     10  C   UNL     1      34.210 -16.305 -22.242  0.00  0.00    +0.003 C 
ATOM     11  C   UNL     1      34.398 -17.299 -21.267  0.00  0.00    +0.000 C 
ATOM     12  C   UNL     1      34.000 -16.690 -23.582  0.00  0.00    +0.019 C 
ATOM     13  C   UNL     1      34.168 -19.027 -22.942  0.00  0.00    +0.000 C 
ATOM     14  C   UNL     1      33.980 -18.052 -23.923  0.00  0.00    +0.002 C 
ATOM     15  C   UNL     1      34.226 -14.942 -21.923  0.00  0.00    +0.021 C 
ATOM     16  C   UNL     1      33.818 -15.675 -24.524  0.00  0.00    +0.099 C 
ATOM     17  C   UNL     1      34.034 -14.023 -22.943  0.00  0.00    +0.099 C 
ENDBRANCH   5   9
ENDBRANCH   1   3
BRANCH   1  18
ATOM     18  C   UNL     1      32.997 -23.118 -17.727  0.00  0.00    +0.184 C 
BRANCH  18  19
ATOM     19  C   UNL     1      32.924 -22.759 -16.239  0.00  0.00    -0.021 C 
BRANCH  19  20
ATOM     20  N   UNL     1      31.598 -23.117 -15.736  0.00  0.00    +0.384 N 
ATOM     21  H   UNL     1      31.191 -23.839 -16.332  0.00  0.00    -0.089 HD
ATOM     22  H   UNL     1      30.997 -22.292 -15.744  0.00  0.00    -0.089 HD
ATOM     23  H   UNL     1      31.679 -23.469 -14.783  0.00  0.00    -0.089 HD
ENDBRANCH  19  20
BRANCH  19  24
ATOM     24  C   UNL     1      34.032 -23.468 -15.433  0.00  0.00    -0.012 C 
BRANCH  24  26
ATOM     25  N   UNL     1      37.301 -22.662 -14.647  0.00  0.00    -0.270 NA
ATOM     26  C   UNL     1      34.913 -22.524 -14.636  0.00  0.00    +0.046 C 
ATOM     27  C   UNL     1      35.414 -23.098 -13.350  0.00  0.00    -0.007 C 
ATOM     28  C   UNL     1      36.254 -22.312 -15.332  0.00  0.00    +0.130 C 
ATOM     29  C   UNL     1      36.811 -23.147 -13.421  0.00  0.00    +0.071 C 
ATOM     30  C   UNL     1      34.729 -23.525 -12.229  0.00  0.00    -0.024 C 
ATOM     31  C   UNL     1      37.557 -23.635 -12.361  0.00  0.00    +0.014 C 
ATOM     32  C   UNL     1      35.474 -24.018 -11.156  0.00  0.00    +0.052 C 
ATOM     33  C   UNL     1      36.877 -24.073 -11.222  0.00  0.00    -0.020 C 
ENDBRANCH  24  26
ENDBRANCH  19  24
ENDBRANCH  18  19
ENDBRANCH   1  18
TORSDOF 7
ENDMDL
MODEL 7
REMARK VINA RESULT:     -12.3      2.681     11.451
REMARK  Name = 11840906
REMARK  7 active torsions:
REMARK  status: ('A' for Active; 'I' for Inactive)
REMARK    1  A    between atoms: O_1  and  C_3
REMARK    2  A    between atoms: O_1  and  C_18
REMARK    3  A    between atoms: C_5  and  C_9
REMARK    4  A    between atoms: C_18  and  C_19
REMARK    5  A    between atoms: C_19  and  N_20
REMARK    6  A    between atoms: C_19  and  C_24
REMARK    7  A    between atoms: C_24  and  C_26
REMARK                            x       y       z     vdW  Elec       q    Type
REMARK                         _______ _______ _______ _____ _____    ______ ____
ROOT
ATOM      1  O   UNL     1      31.087 -11.496 -21.780  0.00  0.00    -0.476 OA
ENDROOT
BRANCH   1   3
ATOM      2  N   UNL     1      31.197  -8.741 -19.395  0.00  0.00    -0.239 NA
ATOM      3  C   UNL     1      31.249 -10.227 -21.286  0.00  0.00    +0.158 C 
ATOM      4  C   UNL     1      31.609  -9.187 -22.124  0.00  0.00    +0.040 C 
ATOM      5  C   UNL     1      31.765  -7.911 -21.594  0.00  0.00    +0.022 C 
ATOM      6  C   UNL     1      31.055  -9.967 -19.946  0.00  0.00    +0.136 C 
ATOM      7  C   UNL     1      31.549  -7.743 -20.236  0.00  0.00    +0.099 C 
BRANCH   5   9
ATOM      8  N   UNL     1      32.265  -2.661 -25.352  0.00  0.00    -0.242 NA
ATOM      9  C   UNL     1      32.139  -6.797 -22.433  0.00  0.00    +0.002 C 
ATOM     10  C   UNL     1      31.512  -4.825 -23.715  0.00  0.00    +0.003 C 
ATOM     11  C   UNL     1      31.163  -5.912 -22.897  0.00  0.00    +0.000 C 
ATOM     12  C   UNL     1      32.864  -4.635 -24.065  0.00  0.00    +0.019 C 
ATOM     13  C   UNL     1      33.475  -6.605 -22.783  0.00  0.00    +0.000 C 
ATOM     14  C   UNL     1      33.839  -5.531 -23.595  0.00  0.00    +0.002 C 
ATOM     15  C   UNL     1      30.555  -3.921 -24.194  0.00  0.00    +0.021 C 
ATOM     16  C   UNL     1      33.174  -3.544 -24.879  0.00  0.00    +0.099 C 
ATOM     17  C   UNL     1      30.980  -2.873 -24.996  0.00  0.00    +0.099 C 
ENDBRANCH   5   9
ENDBRANCH   1   3
BRANCH   1  18
ATOM     18  C   UNL     1      32.006 -12.481 -21.325  0.00  0.00    +0.184 C 
BRANCH  18  19
ATOM     19  C   UNL     1      32.825 -13.012 -22.506  0.00  0.00    -0.021 C 
BRANCH  19  20
ATOM     20  N   UNL     1      33.673 -11.932 -23.011  0.00  0.00    +0.384 N 
ATOM     21  H   UNL     1      33.280 -11.569 -23.880  0.00  0.00    -0.089 HD
ATOM     22  H   UNL     1      34.612 -12.290 -23.186  0.00  0.00    -0.089 HD
ATOM     23  H   UNL     1      33.718 -11.183 -22.319  0.00  0.00    -0.089 HD
ENDBRANCH  19  20
BRANCH  19  24
ATOM     24  C   UNL     1      33.672 -14.237 -22.099  0.00  0.00    -0.012 C 
BRANCH  24  26
ATOM     25  N   UNL     1      33.060 -16.128 -24.927  0.00  0.00    -0.270 NA
ATOM     26  C   UNL     1      34.320 -14.952 -23.269  0.00  0.00    +0.046 C 
ATOM     27  C   UNL     1      34.452 -16.429 -23.082  0.00  0.00    -0.007 C 
ATOM     28  C   UNL     1      33.398 -14.955 -24.485  0.00  0.00    +0.130 C 
ATOM     29  C   UNL     1      33.697 -17.055 -24.082  0.00  0.00    +0.071 C 
ATOM     30  C   UNL     1      35.162 -17.157 -22.147  0.00  0.00    -0.024 C 
ATOM     31  C   UNL     1      33.634 -18.435 -24.163  0.00  0.00    +0.014 C 
ATOM     32  C   UNL     1      35.103 -18.550 -22.222  0.00  0.00    +0.052 C 
ATOM     33  C   UNL     1      34.345 -19.184 -23.220  0.00  0.00    -0.020 C 
ENDBRANCH  24  26
ENDBRANCH  19  24
ENDBRANCH  18  19
ENDBRANCH   1  18
TORSDOF 7
ENDMDL
MODEL 8
REMARK VINA RESULT:     -12.1      1.337      2.254
REMARK  Name = 11840906
REMARK  7 active torsions:
REMARK  status: ('A' for Active; 'I' for Inactive)
REMARK    1  A    between atoms: O_1  and  C_3
REMARK    2  A    between atoms: O_1  and  C_18
REMARK    3  A    between atoms: C_5  and  C_9
REMARK    4  A    between atoms: C_18  and  C_19
REMARK    5  A    between atoms: C_19  and  N_20
REMARK    6  A    between atoms: C_19  and  C_24
REMARK    7  A    between atoms: C_24  and  C_26
REMARK                            x       y       z     vdW  Elec       q    Type
REMARK                         _______ _______ _______ _____ _____    ______ ____
ROOT
ATOM      1  O   UNL     1      34.739 -15.296 -22.590  0.00  0.00    -0.476 OA
ENDROOT
BRANCH   1   3
ATOM      2  N   UNL     1      33.721 -18.412 -24.183  0.00  0.00    -0.239 NA
ATOM      3  C   UNL     1      34.392 -16.614 -22.732  0.00  0.00    +0.158 C 
ATOM      4  C   UNL     1      34.358 -17.455 -21.635  0.00  0.00    +0.040 C 
ATOM      5  C   UNL     1      34.003 -18.787 -21.811  0.00  0.00    +0.022 C 
ATOM      6  C   UNL     1      34.072 -17.123 -23.973  0.00  0.00    +0.136 C 
ATOM      7  C   UNL     1      33.695 -19.212 -23.093  0.00  0.00    +0.099 C 
BRANCH   5   9
ATOM      8  N   UNL     1      34.958 -22.624 -16.682  0.00  0.00    -0.242 NA
ATOM      9  C   UNL     1      33.954 -19.699 -20.692  0.00  0.00    +0.002 C 
ATOM     10  C   UNL     1      35.077 -20.841 -18.859  0.00  0.00    +0.003 C 
ATOM     11  C   UNL     1      35.109 -19.956 -19.949  0.00  0.00    +0.000 C 
ATOM     12  C   UNL     1      33.862 -21.470 -18.521  0.00  0.00    +0.019 C 
ATOM     13  C   UNL     1      32.755 -20.325 -20.354  0.00  0.00    +0.000 C 
ATOM     14  C   UNL     1      32.706 -21.207 -19.274  0.00  0.00    +0.002 C 
ATOM     15  C   UNL     1      36.218 -21.118 -18.095  0.00  0.00    +0.021 C 
ATOM     16  C   UNL     1      33.868 -22.343 -17.431  0.00  0.00    +0.099 C 
ATOM     17  C   UNL     1      36.104 -22.002 -17.034  0.00  0.00    +0.099 C 
ENDBRANCH   5   9
ENDBRANCH   1   3
BRANCH   1  18
ATOM     18  C   UNL     1      34.016 -14.544 -21.623  0.00  0.00    +0.184 C 
BRANCH  18  19
ATOM     19  C   UNL     1      33.361 -13.331 -22.292  0.00  0.00    -0.021 C 
BRANCH  19  20
ATOM     20  N   UNL     1      32.499 -13.804 -23.376  0.00  0.00    +0.384 N 
ATOM     21  H   UNL     1      33.076 -14.166 -24.135  0.00  0.00    -0.089 HD
ATOM     22  H   UNL     1      31.930 -13.030 -23.720  0.00  0.00    -0.089 HD
ATOM     23  H   UNL     1      31.890 -14.545 -23.028  0.00  0.00    -0.089 HD
ENDBRANCH  19  20
BRANCH  19  24
ATOM     24  C   UNL     1      32.561 -12.490 -21.274  0.00  0.00    -0.012 C 
BRANCH  24  26
ATOM     25  N   UNL     1      32.460  -9.591 -23.154  0.00  0.00    -0.270 NA
ATOM     26  C   UNL     1      31.643 -11.464 -21.912  0.00  0.00    +0.046 C 
ATOM     27  C   UNL     1      31.498 -10.204 -21.121  0.00  0.00    -0.007 C 
ATOM     28  C   UNL     1      32.274 -10.876 -23.170  0.00  0.00    +0.130 C 
ATOM     29  C   UNL     1      31.988  -9.151 -21.904  0.00  0.00    +0.071 C 
ATOM     30  C   UNL     1      30.982  -9.990 -19.858  0.00  0.00    -0.024 C 
ATOM     31  C   UNL     1      31.978  -7.851 -21.428  0.00  0.00    +0.014 C 
ATOM     32  C   UNL     1      30.969  -8.681 -19.371  0.00  0.00    +0.052 C 
ATOM     33  C   UNL     1      31.463  -7.621 -20.150  0.00  0.00    -0.020 C 
ENDBRANCH  24  26
ENDBRANCH  19  24
ENDBRANCH  18  19
ENDBRANCH   1  18
TORSDOF 7
ENDMDL
MODEL 9
REMARK VINA RESULT:     -12.1      3.568     11.142
REMARK  Name = 11840906
REMARK  7 active torsions:
REMARK  status: ('A' for Active; 'I' for Inactive)
REMARK    1  A    between atoms: O_1  and  C_3
REMARK    2  A    between atoms: O_1  and  C_18
REMARK    3  A    between atoms: C_5  and  C_9
REMARK    4  A    between atoms: C_18  and  C_19
REMARK    5  A    between atoms: C_19  and  N_20
REMARK    6  A    between atoms: C_19  and  C_24
REMARK    7  A    between atoms: C_24  and  C_26
REMARK                            x       y       z     vdW  Elec       q    Type
REMARK                         _______ _______ _______ _____ _____    ______ ____
ROOT
ATOM      1  O   UNL     1      33.633 -21.166 -20.048  0.00  0.00    -0.476 OA
ENDROOT
BRANCH   1   3
ATOM      2  N   UNL     1      36.585 -19.032 -20.190  0.00  0.00    -0.239 NA
ATOM      3  C   UNL     1      34.446 -20.115 -20.386  0.00  0.00    +0.158 C 
ATOM      4  C   UNL     1      33.989 -19.115 -21.225  0.00  0.00    +0.040 C 
ATOM      5  C   UNL     1      34.837 -18.062 -21.550  0.00  0.00    +0.022 C 
ATOM      6  C   UNL     1      35.732 -20.040 -19.897  0.00  0.00    +0.136 C 
ATOM      7  C   UNL     1      36.113 -18.067 -21.011  0.00  0.00    +0.099 C 
BRANCH   5   9
ATOM      8  N   UNL     1      33.051 -12.578 -24.495  0.00  0.00    -0.242 NA
ATOM      9  C   UNL     1      34.400 -16.996 -22.421  0.00  0.00    +0.002 C 
ATOM     10  C   UNL     1      33.908 -14.638 -22.778  0.00  0.00    +0.003 C 
ATOM     11  C   UNL     1      34.333 -15.685 -21.943  0.00  0.00    +0.000 C 
ATOM     12  C   UNL     1      33.548 -14.926 -24.110  0.00  0.00    +0.019 C 
ATOM     13  C   UNL     1      34.042 -17.275 -23.739  0.00  0.00    +0.000 C 
ATOM     14  C   UNL     1      33.618 -16.248 -24.582  0.00  0.00    +0.002 C 
ATOM     15  C   UNL     1      33.832 -13.315 -22.327  0.00  0.00    +0.021 C 
ATOM     16  C   UNL     1      33.132 -13.862 -24.911  0.00  0.00    +0.099 C 
ATOM     17  C   UNL     1      33.404 -12.339 -23.213  0.00  0.00    +0.099 C 
ENDBRANCH   5   9
ENDBRANCH   1   3
BRANCH   1  18
ATOM     18  C   UNL     1      32.911 -21.050 -18.829  0.00  0.00    +0.184 C 
BRANCH  18  19
ATOM     19  C   UNL     1      32.926 -22.391 -18.087  0.00  0.00    -0.021 C 
BRANCH  19  20
ATOM     20  N   UNL     1      33.281 -23.447 -19.036  0.00  0.00    +0.384 N 
ATOM     21  H   UNL     1      34.186 -23.843 -18.781  0.00  0.00    -0.089 HD
ATOM     22  H   UNL     1      33.334 -23.055 -19.976  0.00  0.00    -0.089 HD
ATOM     23  H   UNL     1      32.571 -24.179 -19.012  0.00  0.00    -0.089 HD
ENDBRANCH  19  20
BRANCH  19  24
ATOM     24  C   UNL     1      33.907 -22.365 -16.895  0.00  0.00    -0.012 C 
BRANCH  24  26
ATOM     25  N   UNL     1      32.755 -23.190 -13.742  0.00  0.00    -0.270 NA
ATOM     26  C   UNL     1      33.709 -23.504 -15.912  0.00  0.00    +0.046 C 
ATOM     27  C   UNL     1      34.763 -23.585 -14.856  0.00  0.00    -0.007 C 
ATOM     28  C   UNL     1      32.503 -23.246 -15.015  0.00  0.00    +0.130 C 
ATOM     29  C   UNL     1      34.140 -23.398 -13.616  0.00  0.00    +0.071 C 
ATOM     30  C   UNL     1      36.123 -23.810 -14.958  0.00  0.00    -0.024 C 
ATOM     31  C   UNL     1      34.874 -23.426 -12.443  0.00  0.00    +0.014 C 
ATOM     32  C   UNL     1      36.870 -23.839 -13.778  0.00  0.00    +0.052 C 
ATOM     33  C   UNL     1      36.251 -23.649 -12.532  0.00  0.00    -0.020 C 
ENDBRANCH  24  26
ENDBRANCH  19  24
ENDBRANCH  18  19
ENDBRANCH   1  18
TORSDOF 7
ENDMDL
