MODEL 1
REMARK VINA RESULT:     -11.7      0.000      0.000
REMARK  Name = 76314940
REMARK  4 active torsions:
REMARK  status: ('A' for Active; 'I' for Inactive)
REMARK    1  A    between atoms: C_14  and  O_23
REMARK    2  A    between atoms: C_18  and  O_21
REMARK    3  A    between atoms: O_23  and  C_25
REMARK    4  A    between atoms: C_25  and  C_26
REMARK                            x       y       z     vdW  Elec       q    Type
REMARK                         _______ _______ _______ _____ _____    ______ ____
ROOT
ATOM      1  O   UNL     1      32.080 -22.695 -17.689  0.00  0.00    -0.469 OA
ATOM      2  N   UNL     1      35.754 -23.856 -13.987  0.00  0.00    +0.387 N 
ATOM      3  C   UNL     1      33.892 -23.267 -16.136  0.00  0.00    +0.062 C 
ATOM      4  C   UNL     1      34.776 -22.178 -15.512  0.00  0.00    -0.007 C 
ATOM      5  C   UNL     1      35.008 -22.583 -14.026  0.00  0.00    -0.053 C 
ATOM      6  C   UNL     1      33.493 -23.061 -17.614  0.00  0.00    +0.225 C 
ATOM      7  C   UNL     1      34.481 -24.681 -15.938  0.00  0.00    -0.015 C 
ATOM      8  C   UNL     1      32.584 -23.052 -15.480  0.00  0.00    +0.014 C 
ATOM      9  C   UNL     1      33.627 -22.621 -13.250  0.00  0.00    +0.005 C 
ATOM     10  C   UNL     1      35.996 -21.918 -16.396  0.00  0.00    +0.027 C 
ATOM     11  C   UNL     1      34.972 -24.974 -14.519  0.00  0.00    -0.077 C 
ATOM     12  C   UNL     1      32.404 -22.810 -14.126  0.00  0.00    -0.025 C 
ATOM     13  C   UNL     1      31.600 -22.801 -16.408  0.00  0.00    +0.168 C 
ATOM     14  C   UNL     1      34.391 -22.084 -18.333  0.00  0.00    +0.162 C 
ATOM     15  C   UNL     1      35.537 -21.613 -17.803  0.00  0.00    +0.011 C 
ATOM     16  C   UNL     1      36.289 -24.165 -12.664  0.00  0.00    -0.101 C 
ATOM     17  C   UNL     1      31.102 -22.555 -13.692  0.00  0.00    -0.001 C 
ATOM     18  C   UNL     1      30.310 -22.522 -16.006  0.00  0.00    +0.172 C 
ATOM     19  C   UNL     1      30.056 -22.442 -14.630  0.00  0.00    +0.040 C 
ATOM     20  H   UNL     1      36.555 -23.724 -14.603  0.00  0.00    -0.080 HD
ENDROOT
BRANCH  18  21
ATOM     21  O   UNL     1      29.322 -22.287 -16.905  0.00  0.00    -0.468 OA
ATOM     22  C   UNL     1      27.976 -22.461 -16.459  0.00  0.00    +0.253 C 
ENDBRANCH  18  21
BRANCH  14  23
ATOM     23  O   UNL     1      33.992 -21.773 -19.617  0.00  0.00    -0.422 OA
BRANCH  23  25
ATOM     24  O   UNL     1      32.388 -20.133 -19.268  0.00  0.00    -0.244 OA
ATOM     25  C   UNL     1      33.438 -20.532 -19.748  0.00  0.00    +0.346 C 
BRANCH  25  26
ATOM     26  C   UNL     1      34.300 -19.682 -20.612  0.00  0.00    +0.076 C 
ATOM     27  C   UNL     1      33.789 -19.147 -21.794  0.00  0.00    +0.006 C 
ATOM     28  C   UNL     1      35.619 -19.422 -20.239  0.00  0.00    +0.006 C 
ATOM     29  C   UNL     1      34.598 -18.352 -22.605  0.00  0.00    +0.000 C 
ATOM     30  C   UNL     1      36.427 -18.625 -21.051  0.00  0.00    +0.000 C 
ATOM     31  C   UNL     1      35.917 -18.090 -22.233  0.00  0.00    +0.000 C 
ENDBRANCH  25  26
ENDBRANCH  23  25
ENDBRANCH  14  23
TORSDOF 4
ENDMDL
MODEL 2
REMARK VINA RESULT:     -11.4      0.859      1.167
REMARK  Name = 76314940
REMARK  4 active torsions:
REMARK  status: ('A' for Active; 'I' for Inactive)
REMARK    1  A    between atoms: C_14  and  O_23
REMARK    2  A    between atoms: C_18  and  O_21
REMARK    3  A    between atoms: O_23  and  C_25
REMARK    4  A    between atoms: C_25  and  C_26
REMARK                            x       y       z     vdW  Elec       q    Type
REMARK                         _______ _______ _______ _____ _____    ______ ____
ROOT
ATOM      1  O   UNL     1      32.461 -22.445 -17.213  0.00  0.00    -0.469 OA
ATOM      2  N   UNL     1      35.945 -24.288 -13.604  0.00  0.00    +0.387 N 
ATOM      3  C   UNL     1      34.196 -23.293 -15.698  0.00  0.00    +0.062 C 
ATOM      4  C   UNL     1      34.992 -22.343 -14.792  0.00  0.00    -0.007 C 
ATOM      5  C   UNL     1      35.148 -23.058 -13.417  0.00  0.00    -0.053 C 
ATOM      6  C   UNL     1      33.881 -22.778 -17.120  0.00  0.00    +0.225 C 
ATOM      7  C   UNL     1      34.833 -24.698 -15.772  0.00  0.00    -0.015 C 
ATOM      8  C   UNL     1      32.842 -23.265 -15.104  0.00  0.00    +0.014 C 
ATOM      9  C   UNL     1      33.725 -23.306 -12.766  0.00  0.00    +0.005 C 
ATOM     10  C   UNL     1      36.252 -21.860 -15.510  0.00  0.00    +0.027 C 
ATOM     11  C   UNL     1      35.246 -25.282 -14.420  0.00  0.00    -0.077 C 
ATOM     12  C   UNL     1      32.568 -23.331 -13.746  0.00  0.00    -0.025 C 
ATOM     13  C   UNL     1      31.907 -22.843 -16.021  0.00  0.00    +0.168 C 
ATOM     14  C   UNL     1      34.779 -21.642 -17.545  0.00  0.00    +0.162 C 
ATOM     15  C   UNL     1      35.868 -21.266 -16.845  0.00  0.00    +0.011 C 
ATOM     16  C   UNL     1      36.410 -24.864 -12.346  0.00  0.00    -0.101 C 
ATOM     17  C   UNL     1      31.232 -23.215 -13.359  0.00  0.00    -0.001 C 
ATOM     18  C   UNL     1      30.584 -22.697 -15.660  0.00  0.00    +0.172 C 
ATOM     19  C   UNL     1      30.242 -22.929 -14.320  0.00  0.00    +0.040 C 
ATOM     20  H   UNL     1      36.777 -24.000 -14.118  0.00  0.00    -0.080 HD
ENDROOT
BRANCH  18  21
ATOM     21  O   UNL     1      29.645 -22.298 -16.554  0.00  0.00    -0.468 OA
ATOM     22  C   UNL     1      28.289 -22.265 -16.106  0.00  0.00    +0.253 C 
ENDBRANCH  18  21
BRANCH  14  23
ATOM     23  O   UNL     1      34.447 -21.067 -18.755  0.00  0.00    -0.422 OA
BRANCH  23  25
ATOM     24  O   UNL     1      36.455 -21.727 -19.712  0.00  0.00    -0.244 OA
ATOM     25  C   UNL     1      35.480 -20.994 -19.644  0.00  0.00    +0.346 C 
BRANCH  25  26
ATOM     26  C   UNL     1      35.280 -19.837 -20.557  0.00  0.00    +0.076 C 
ATOM     27  C   UNL     1      34.071 -19.686 -21.235  0.00  0.00    +0.006 C 
ATOM     28  C   UNL     1      36.302 -18.904 -20.736  0.00  0.00    +0.006 C 
ATOM     29  C   UNL     1      33.884 -18.603 -22.093  0.00  0.00    +0.000 C 
ATOM     30  C   UNL     1      36.114 -17.820 -21.593  0.00  0.00    +0.000 C 
ATOM     31  C   UNL     1      34.905 -17.669 -22.271  0.00  0.00    +0.000 C 
ENDBRANCH  25  26
ENDBRANCH  23  25
ENDBRANCH  14  23
TORSDOF 4
ENDMDL
MODEL 3
REMARK VINA RESULT:     -10.9      2.114      3.319
REMARK  Name = 76314940
REMARK  4 active torsions:
REMARK  status: ('A' for Active; 'I' for Inactive)
REMARK    1  A    between atoms: C_14  and  O_23
REMARK    2  A    between atoms: C_18  and  O_21
REMARK    3  A    between atoms: O_23  and  C_25
REMARK    4  A    between atoms: C_25  and  C_26
REMARK                            x       y       z     vdW  Elec       q    Type
REMARK                         _______ _______ _______ _____ _____    ______ ____
ROOT
ATOM      1  O   UNL     1      33.582 -23.168 -14.824  0.00  0.00    -0.469 OA
ATOM      2  N   UNL     1      38.617 -24.904 -14.382  0.00  0.00    +0.387 N 
ATOM      3  C   UNL     1      35.904 -23.962 -14.818  0.00  0.00    +0.062 C 
ATOM      4  C   UNL     1      37.076 -22.989 -14.622  0.00  0.00    -0.007 C 
ATOM      5  C   UNL     1      38.104 -23.703 -13.695  0.00  0.00    -0.053 C 
ATOM      6  C   UNL     1      34.730 -23.455 -15.683  0.00  0.00    +0.225 C 
ATOM      7  C   UNL     1      36.373 -25.345 -15.320  0.00  0.00    -0.015 C 
ATOM      8  C   UNL     1      35.259 -23.981 -13.487  0.00  0.00    +0.014 C 
ATOM      9  C   UNL     1      37.450 -23.999 -12.282  0.00  0.00    +0.005 C 
ATOM     10  C   UNL     1      37.557 -22.463 -15.975  0.00  0.00    +0.027 C 
ATOM     11  C   UNL     1      37.579 -25.919 -14.574  0.00  0.00    -0.077 C 
ATOM     12  C   UNL     1      35.935 -24.060 -12.277  0.00  0.00    -0.025 C 
ATOM     13  C   UNL     1      33.944 -23.588 -13.569  0.00  0.00    +0.168 C 
ATOM     14  C   UNL     1      35.111 -22.288 -16.562  0.00  0.00    +0.162 C 
ATOM     15  C   UNL     1      36.384 -21.878 -16.728  0.00  0.00    +0.011 C 
ATOM     16  C   UNL     1      39.801 -25.469 -13.741  0.00  0.00    -0.101 C 
ATOM     17  C   UNL     1      35.167 -23.989 -11.114  0.00  0.00    -0.001 C 
ATOM     18  C   UNL     1      33.169 -23.486 -12.432  0.00  0.00    +0.172 C 
ATOM     19  C   UNL     1      33.784 -23.733 -11.197  0.00  0.00    +0.040 C 
ATOM     20  H   UNL     1      38.909 -24.588 -15.307  0.00  0.00    -0.080 HD
ENDROOT
BRANCH  18  21
ATOM     21  O   UNL     1      31.866 -23.116 -12.493  0.00  0.00    -0.468 OA
ATOM     22  C   UNL     1      30.938 -24.071 -13.012  0.00  0.00    +0.253 C 
ENDBRANCH  18  21
BRANCH  14  23
ATOM     23  O   UNL     1      34.059 -21.721 -17.254  0.00  0.00    -0.422 OA
BRANCH  23  25
ATOM     24  O   UNL     1      33.672 -23.242 -18.962  0.00  0.00    -0.244 OA
ATOM     25  C   UNL     1      33.958 -22.127 -18.553  0.00  0.00    +0.346 C 
BRANCH  25  26
ATOM     26  C   UNL     1      34.276 -20.995 -19.463  0.00  0.00    +0.076 C 
ATOM     27  C   UNL     1      35.603 -20.624 -19.675  0.00  0.00    +0.006 C 
ATOM     28  C   UNL     1      33.246 -20.304 -20.103  0.00  0.00    +0.006 C 
ATOM     29  C   UNL     1      35.902 -19.561 -20.527  0.00  0.00    +0.000 C 
ATOM     30  C   UNL     1      33.546 -19.241 -20.956  0.00  0.00    +0.000 C 
ATOM     31  C   UNL     1      34.873 -18.870 -21.168  0.00  0.00    +0.000 C 
ENDBRANCH  25  26
ENDBRANCH  23  25
ENDBRANCH  14  23
TORSDOF 4
ENDMDL
MODEL 4
REMARK VINA RESULT:      -9.3      2.832      7.051
REMARK  Name = 76314940
REMARK  4 active torsions:
REMARK  status: ('A' for Active; 'I' for Inactive)
REMARK    1  A    between atoms: C_14  and  O_23
REMARK    2  A    between atoms: C_18  and  O_21
REMARK    3  A    between atoms: O_23  and  C_25
REMARK    4  A    between atoms: C_25  and  C_26
REMARK                            x       y       z     vdW  Elec       q    Type
REMARK                         _______ _______ _______ _____ _____    ______ ____
ROOT
ATOM      1  O   UNL     1      34.513 -23.106 -15.073  0.00  0.00    -0.469 OA
ATOM      2  N   UNL     1      29.232 -23.851 -14.744  0.00  0.00    +0.387 N 
ATOM      3  C   UNL     1      32.120 -23.544 -14.753  0.00  0.00    +0.062 C 
ATOM      4  C   UNL     1      31.197 -22.491 -14.123  0.00  0.00    -0.007 C 
ATOM      5  C   UNL     1      29.861 -22.527 -14.921  0.00  0.00    -0.053 C 
ATOM      6  C   UNL     1      33.534 -23.668 -14.145  0.00  0.00    +0.225 C 
ATOM      7  C   UNL     1      31.452 -24.934 -14.827  0.00  0.00    -0.015 C 
ATOM      8  C   UNL     1      32.452 -22.953 -16.068  0.00  0.00    +0.014 C 
ATOM      9  C   UNL     1      30.119 -22.134 -16.434  0.00  0.00    +0.005 C 
ATOM     10  C   UNL     1      31.146 -22.674 -12.606  0.00  0.00    +0.027 C 
ATOM     11  C   UNL     1      30.017 -24.924 -15.357  0.00  0.00    -0.077 C 
ATOM     12  C   UNL     1      31.542 -22.340 -16.917  0.00  0.00    -0.025 C 
ATOM     13  C   UNL     1      33.811 -22.794 -16.210  0.00  0.00    +0.168 C 
ATOM     14  C   UNL     1      33.631 -23.073 -12.760  0.00  0.00    +0.162 C 
ATOM     15  C   UNL     1      32.553 -22.675 -12.055  0.00  0.00    +0.011 C 
ATOM     16  C   UNL     1      27.842 -23.888 -15.188  0.00  0.00    -0.101 C 
ATOM     17  C   UNL     1      32.046 -21.770 -18.087  0.00  0.00    -0.001 C 
ATOM     18  C   UNL     1      34.335 -22.212 -17.346  0.00  0.00    +0.172 C 
ATOM     19  C   UNL     1      33.436 -21.735 -18.311  0.00  0.00    +0.040 C 
ATOM     20  H   UNL     1      29.221 -24.017 -13.738  0.00  0.00    -0.080 HD
ENDROOT
BRANCH  18  21
ATOM     21  O   UNL     1      35.672 -22.060 -17.512  0.00  0.00    -0.468 OA
ATOM     22  C   UNL     1      36.106 -21.110 -18.488  0.00  0.00    +0.253 C 
ENDBRANCH  18  21
BRANCH  14  23
ATOM     23  O   UNL     1      34.906 -23.046 -12.234  0.00  0.00    -0.422 OA
BRANCH  23  25
ATOM     24  O   UNL     1      34.892 -24.860 -10.788  0.00  0.00    -0.244 OA
ATOM     25  C   UNL     1      35.338 -24.245 -11.744  0.00  0.00    +0.346 C 
BRANCH  25  26
ATOM     26  C   UNL     1      36.494 -24.731 -12.543  0.00  0.00    +0.076 C 
ATOM     27  C   UNL     1      37.747 -24.139 -12.385  0.00  0.00    +0.006 C 
ATOM     28  C   UNL     1      36.325 -25.777 -13.451  0.00  0.00    +0.006 C 
ATOM     29  C   UNL     1      38.831 -24.593 -13.136  0.00  0.00    +0.000 C 
ATOM     30  C   UNL     1      37.410 -26.231 -14.200  0.00  0.00    +0.000 C 
ATOM     31  C   UNL     1      38.663 -25.640 -14.043  0.00  0.00    +0.000 C 
ENDBRANCH  25  26
ENDBRANCH  23  25
ENDBRANCH  14  23
TORSDOF 4
ENDMDL
