MODEL 1
REMARK VINA RESULT:     -12.2      0.000      0.000
REMARK  Name = 2197
REMARK  2 active torsions:
REMARK  status: ('A' for Active; 'I' for Inactive)
REMARK    1  A    between atoms: C_3  and  C_12
REMARK    2  A    between atoms: C_17  and  O_18
REMARK                            x       y       z     vdW  Elec       q    Type
REMARK                         _______ _______ _______ _____ _____    ______ ____
ROOT
ATOM      1  O   UNL     1      35.274 -16.825 -20.226  0.00  0.00    -0.291 OA
ATOM      2  O   UNL     1      34.287 -19.703 -23.867  0.00  0.00    -0.291 OA
ATOM      3  C   UNL     1      35.056 -18.749 -21.738  0.00  0.00    +0.146 C 
ATOM      4  C   UNL     1      34.968 -17.292 -21.307  0.00  0.00    +0.184 C 
ATOM      5  C   UNL     1      34.470 -18.744 -23.141  0.00  0.00    +0.184 C 
ATOM      6  C   UNL     1      34.438 -16.516 -22.430  0.00  0.00    +0.038 C 
ATOM      7  C   UNL     1      34.147 -17.361 -23.497  0.00  0.00    +0.038 C 
ATOM      8  C   UNL     1      34.214 -15.154 -22.500  0.00  0.00    +0.003 C 
ATOM      9  C   UNL     1      33.624 -16.881 -24.682  0.00  0.00    +0.003 C 
ATOM     10  C   UNL     1      33.686 -14.651 -23.691  0.00  0.00    +0.000 C 
ATOM     11  C   UNL     1      33.393 -15.505 -24.771  0.00  0.00    +0.000 C 
ENDROOT
BRANCH   3  12
ATOM     12  C   UNL     1      34.301 -19.646 -20.823  0.00  0.00    -0.008 C 
ATOM     13  C   UNL     1      32.906 -19.590 -20.780  0.00  0.00    -0.000 C 
ATOM     14  C   UNL     1      34.984 -20.549 -20.004  0.00  0.00    -0.000 C 
ATOM     15  C   UNL     1      32.198 -20.431 -19.921  0.00  0.00    +0.037 C 
ATOM     16  C   UNL     1      34.275 -21.390 -19.146  0.00  0.00    +0.037 C 
ATOM     17  C   UNL     1      32.882 -21.331 -19.104  0.00  0.00    +0.139 C 
BRANCH  17  18
ATOM     18  O   UNL     1      32.190 -22.152 -18.268  0.00  0.00    -0.471 OA
ATOM     19  C   UNL     1      32.916 -22.744 -17.192  0.00  0.00    +0.252 C 
ENDBRANCH  17  18
ENDBRANCH   3  12
TORSDOF 2
ENDMDL
MODEL 2
REMARK VINA RESULT:     -11.4      1.771      6.420
REMARK  Name = 2197
REMARK  2 active torsions:
REMARK  status: ('A' for Active; 'I' for Inactive)
REMARK    1  A    between atoms: C_3  and  C_12
REMARK    2  A    between atoms: C_17  and  O_18
REMARK                            x       y       z     vdW  Elec       q    Type
REMARK                         _______ _______ _______ _____ _____    ______ ____
ROOT
ATOM      1  O   UNL     1      32.747 -19.284 -22.243  0.00  0.00    -0.291 OA
ATOM      2  O   UNL     1      37.186 -18.172 -20.986  0.00  0.00    -0.291 OA
ATOM      3  C   UNL     1      35.024 -18.368 -22.138  0.00  0.00    +0.146 C 
ATOM      4  C   UNL     1      33.847 -19.239 -21.725  0.00  0.00    +0.184 C 
ATOM      5  C   UNL     1      36.084 -18.678 -21.092  0.00  0.00    +0.184 C 
ATOM      6  C   UNL     1      34.255 -20.040 -20.568  0.00  0.00    +0.038 C 
ATOM      7  C   UNL     1      35.557 -19.712 -20.199  0.00  0.00    +0.038 C 
ATOM      8  C   UNL     1      33.521 -20.985 -19.879  0.00  0.00    +0.003 C 
ATOM      9  C   UNL     1      36.182 -20.319 -19.127  0.00  0.00    +0.003 C 
ATOM     10  C   UNL     1      34.138 -21.610 -18.792  0.00  0.00    +0.000 C 
ATOM     11  C   UNL     1      35.455 -21.280 -18.419  0.00  0.00    +0.000 C 
ENDROOT
BRANCH   3  12
ATOM     12  C   UNL     1      34.668 -16.924 -22.157  0.00  0.00    -0.008 C 
ATOM     13  C   UNL     1      34.386 -16.255 -20.963  0.00  0.00    -0.000 C 
ATOM     14  C   UNL     1      34.614 -16.230 -23.369  0.00  0.00    -0.000 C 
ATOM     15  C   UNL     1      34.051 -14.901 -20.981  0.00  0.00    +0.037 C 
ATOM     16  C   UNL     1      34.279 -14.877 -23.386  0.00  0.00    +0.037 C 
ATOM     17  C   UNL     1      33.997 -14.212 -22.193  0.00  0.00    +0.139 C 
BRANCH  17  18
ATOM     18  O   UNL     1      33.671 -12.890 -22.209  0.00  0.00    -0.471 OA
ATOM     19  C   UNL     1      33.139 -12.368 -23.425  0.00  0.00    +0.252 C 
ENDBRANCH  17  18
ENDBRANCH   3  12
TORSDOF 2
ENDMDL
MODEL 3
REMARK VINA RESULT:      -9.6      1.725      7.131
REMARK  Name = 2197
REMARK  2 active torsions:
REMARK  status: ('A' for Active; 'I' for Inactive)
REMARK    1  A    between atoms: C_3  and  C_12
REMARK    2  A    between atoms: C_17  and  O_18
REMARK                            x       y       z     vdW  Elec       q    Type
REMARK                         _______ _______ _______ _____ _____    ______ ____
ROOT
ATOM      1  O   UNL     1      32.437 -22.226 -19.750  0.00  0.00    -0.291 OA
ATOM      2  O   UNL     1      36.598 -21.408 -17.621  0.00  0.00    -0.291 OA
ATOM      3  C   UNL     1      34.796 -21.751 -19.255  0.00  0.00    +0.146 C 
ATOM      4  C   UNL     1      33.353 -22.130 -18.955  0.00  0.00    +0.184 C 
ATOM      5  C   UNL     1      35.451 -21.717 -17.883  0.00  0.00    +0.184 C 
ATOM      6  C   UNL     1      33.234 -22.367 -17.515  0.00  0.00    +0.038 C 
ATOM      7  C   UNL     1      34.455 -22.126 -16.891  0.00  0.00    +0.038 C 
ATOM      8  C   UNL     1      32.118 -22.758 -16.800  0.00  0.00    +0.003 C 
ATOM      9  C   UNL     1      34.613 -22.268 -15.526  0.00  0.00    +0.003 C 
ATOM     10  C   UNL     1      32.260 -22.907 -15.418  0.00  0.00    +0.000 C 
ATOM     11  C   UNL     1      33.495 -22.665 -14.787  0.00  0.00    +0.000 C 
ENDROOT
BRANCH   3  12
ATOM     12  C   UNL     1      34.894 -20.439 -19.950  0.00  0.00    -0.008 C 
ATOM     13  C   UNL     1      33.735 -19.782 -20.373  0.00  0.00    -0.000 C 
ATOM     14  C   UNL     1      36.143 -19.859 -20.182  0.00  0.00    -0.000 C 
ATOM     15  C   UNL     1      33.827 -18.553 -21.026  0.00  0.00    +0.037 C 
ATOM     16  C   UNL     1      36.234 -18.630 -20.835  0.00  0.00    +0.037 C 
ATOM     17  C   UNL     1      35.076 -17.977 -21.257  0.00  0.00    +0.139 C 
BRANCH  17  18
ATOM     18  O   UNL     1      35.163 -16.776 -21.893  0.00  0.00    -0.471 OA
ATOM     19  C   UNL     1      34.469 -16.647 -23.133  0.00  0.00    +0.252 C 
ENDBRANCH  17  18
ENDBRANCH   3  12
TORSDOF 2
ENDMDL
MODEL 4
REMARK VINA RESULT:      -9.5      3.407      7.031
REMARK  Name = 2197
REMARK  2 active torsions:
REMARK  status: ('A' for Active; 'I' for Inactive)
REMARK    1  A    between atoms: C_3  and  C_12
REMARK    2  A    between atoms: C_17  and  O_18
REMARK                            x       y       z     vdW  Elec       q    Type
REMARK                         _______ _______ _______ _____ _____    ______ ____
ROOT
ATOM      1  O   UNL     1      33.536 -14.476 -25.206  0.00  0.00    -0.291 OA
ATOM      2  O   UNL     1      34.648 -15.462 -20.700  0.00  0.00    -0.291 OA
ATOM      3  C   UNL     1      34.238 -14.356 -22.855  0.00  0.00    +0.146 C 
ATOM      4  C   UNL     1      33.817 -15.023 -24.157  0.00  0.00    +0.184 C 
ATOM      5  C   UNL     1      34.377 -15.519 -21.885  0.00  0.00    +0.184 C 
ATOM      6  C   UNL     1      33.798 -16.471 -23.942  0.00  0.00    +0.038 C 
ATOM      7  C   UNL     1      34.123 -16.760 -22.619  0.00  0.00    +0.038 C 
ATOM      8  C   UNL     1      33.501 -17.468 -24.850  0.00  0.00    +0.003 C 
ATOM      9  C   UNL     1      34.169 -18.058 -22.149  0.00  0.00    +0.003 C 
ATOM     10  C   UNL     1      33.543 -18.788 -24.393  0.00  0.00    +0.000 C 
ATOM     11  C   UNL     1      33.873 -19.080 -23.056  0.00  0.00    +0.000 C 
ENDROOT
BRANCH   3  12
ATOM     12  C   UNL     1      33.235 -13.360 -22.390  0.00  0.00    -0.008 C 
ATOM     13  C   UNL     1      32.984 -12.212 -23.146  0.00  0.00    -0.000 C 
ATOM     14  C   UNL     1      32.539 -13.570 -21.197  0.00  0.00    -0.000 C 
ATOM     15  C   UNL     1      32.045 -11.278 -22.710  0.00  0.00    +0.037 C 
ATOM     16  C   UNL     1      31.600 -12.635 -20.761  0.00  0.00    +0.037 C 
ATOM     17  C   UNL     1      31.353 -11.489 -21.518  0.00  0.00    +0.139 C 
BRANCH  17  18
ATOM     18  O   UNL     1      30.435 -10.578 -21.094  0.00  0.00    -0.471 OA
ATOM     19  C   UNL     1      30.880  -9.595 -20.160  0.00  0.00    +0.252 C 
ENDBRANCH  17  18
ENDBRANCH   3  12
TORSDOF 2
ENDMDL
MODEL 5
REMARK VINA RESULT:      -9.2      7.611      9.707
REMARK  Name = 2197
REMARK  2 active torsions:
REMARK  status: ('A' for Active; 'I' for Inactive)
REMARK    1  A    between atoms: C_3  and  C_12
REMARK    2  A    between atoms: C_17  and  O_18
REMARK                            x       y       z     vdW  Elec       q    Type
REMARK                         _______ _______ _______ _____ _____    ______ ____
ROOT
ATOM      1  O   UNL     1      33.700 -23.572 -12.104  0.00  0.00    -0.291 OA
ATOM      2  O   UNL     1      34.501 -22.425 -16.638  0.00  0.00    -0.291 OA
ATOM      3  C   UNL     1      34.701 -22.841 -14.225  0.00  0.00    +0.146 C 
ATOM      4  C   UNL     1      33.593 -23.289 -13.282  0.00  0.00    +0.184 C 
ATOM      5  C   UNL     1      33.999 -22.711 -15.568  0.00  0.00    +0.184 C 
ATOM      6  C   UNL     1      32.340 -23.331 -14.038  0.00  0.00    +0.038 C 
ATOM      7  C   UNL     1      32.576 -22.995 -15.369  0.00  0.00    +0.038 C 
ATOM      8  C   UNL     1      31.077 -23.656 -13.585  0.00  0.00    +0.003 C 
ATOM      9  C   UNL     1      31.558 -22.968 -16.302  0.00  0.00    +0.003 C 
ATOM     10  C   UNL     1      30.034 -23.633 -14.515  0.00  0.00    +0.000 C 
ATOM     11  C   UNL     1      30.272 -23.292 -15.860  0.00  0.00    +0.000 C 
ENDROOT
BRANCH   3  12
ATOM     12  C   UNL     1      35.819 -23.820 -14.274  0.00  0.00    -0.008 C 
ATOM     13  C   UNL     1      37.094 -23.451 -13.837  0.00  0.00    -0.000 C 
ATOM     14  C   UNL     1      35.600 -25.113 -14.757  0.00  0.00    -0.000 C 
ATOM     15  C   UNL     1      38.143 -24.369 -13.885  0.00  0.00    +0.037 C 
ATOM     16  C   UNL     1      36.649 -26.030 -14.804  0.00  0.00    +0.037 C 
ATOM     17  C   UNL     1      37.921 -25.658 -14.368  0.00  0.00    +0.139 C 
BRANCH  17  18
ATOM     18  O   UNL     1      38.946 -26.554 -14.413  0.00  0.00    -0.471 OA
ATOM     19  C   UNL     1      40.267 -26.035 -14.266  0.00  0.00    +0.252 C 
ENDBRANCH  17  18
ENDBRANCH   3  12
TORSDOF 2
ENDMDL
