MODEL 1
REMARK VINA RESULT:     -12.5      0.000      0.000
REMARK  Name = 2267
REMARK  3 active torsions:
REMARK  status: ('A' for Active; 'I' for Inactive)
REMARK    1  A    between atoms: N_2  and  C_13
REMARK    2  A    between atoms: C_6  and  C_21
REMARK    3  A    between atoms: C_21  and  C_23
REMARK                            x       y       z     vdW  Elec       q    Type
REMARK                         _______ _______ _______ _____ _____    ______ ____
ROOT
ATOM      1  O   UNL     1      31.713 -22.000 -18.368  0.00  0.00    -0.266 OA
ATOM      2  N   UNL     1      33.347 -22.564 -16.820  0.00  0.00    -0.219 N 
ATOM      3  N   UNL     1      34.648 -22.511 -16.408  0.00  0.00    -0.171 NA
ATOM      4  C   UNL     1      32.881 -21.959 -17.985  0.00  0.00    +0.276 A 
ATOM      5  C   UNL     1      33.870 -21.229 -18.798  0.00  0.00    +0.059 A 
ATOM      6  C   UNL     1      35.522 -21.870 -17.118  0.00  0.00    +0.083 A 
ATOM      7  C   UNL     1      35.194 -21.178 -18.375  0.00  0.00    +0.020 A 
ATOM      8  C   UNL     1      33.486 -20.593 -19.984  0.00  0.00    +0.005 C 
ATOM      9  C   UNL     1      36.145 -20.490 -19.135  0.00  0.00    +0.001 C 
ATOM     10  C   UNL     1      34.436 -19.907 -20.741  0.00  0.00    +0.000 C 
ATOM     11  C   UNL     1      35.762 -19.857 -20.317  0.00  0.00    +0.000 C 
ENDROOT
BRANCH   2  13
ATOM     12  N   UNL     1      30.160 -24.567 -14.519  0.00  0.00    +0.386 N 
ATOM     13  C   UNL     1      32.465 -23.310 -15.945  0.00  0.00    +0.106 C 
ATOM     14  C   UNL     1      33.123 -23.436 -14.568  0.00  0.00    +0.022 C 
ATOM     15  C   UNL     1      31.110 -22.602 -15.861  0.00  0.00    +0.002 C 
ATOM     16  C   UNL     1      32.431 -24.386 -13.594  0.00  0.00    -0.021 C 
ATOM     17  C   UNL     1      29.928 -23.514 -15.512  0.00  0.00    -0.075 C 
ATOM     18  C   UNL     1      30.940 -24.136 -13.358  0.00  0.00    -0.077 C 
ATOM     19  C   UNL     1      28.883 -25.158 -14.114  0.00  0.00    -0.101 C 
ATOM     20  H   UNL     1      30.737 -25.274 -14.975  0.00  0.00    -0.080 HD
ENDBRANCH   2  13
BRANCH   6  21
ATOM     21  C   UNL     1      36.945 -21.846 -16.612  0.00  0.00    +0.074 C 
BRANCH  21  23
ATOM     22 CL   UNL     1      37.360 -24.687 -11.342  0.00  0.00    -0.082 Cl
ATOM     23  C   UNL     1      37.048 -22.555 -15.299  0.00  0.00    -0.016 C 
ATOM     24  C   UNL     1      36.387 -22.046 -14.184  0.00  0.00    -0.003 C 
ATOM     25  C   UNL     1      37.806 -23.719 -15.197  0.00  0.00    -0.003 C 
ATOM     26  C   UNL     1      36.483 -22.706 -12.959  0.00  0.00    +0.011 C 
ATOM     27  C   UNL     1      37.902 -24.379 -13.972  0.00  0.00    +0.011 C 
ATOM     28  C   UNL     1      37.241 -23.873 -12.853  0.00  0.00    +0.058 C 
ENDBRANCH  21  23
ENDBRANCH   6  21
TORSDOF 3
ENDMDL
MODEL 2
REMARK VINA RESULT:     -11.7      1.564      5.650
REMARK  Name = 2267
REMARK  3 active torsions:
REMARK  status: ('A' for Active; 'I' for Inactive)
REMARK    1  A    between atoms: N_2  and  C_13
REMARK    2  A    between atoms: C_6  and  C_21
REMARK    3  A    between atoms: C_21  and  C_23
REMARK                            x       y       z     vdW  Elec       q    Type
REMARK                         _______ _______ _______ _____ _____    ______ ____
ROOT
ATOM      1  O   UNL     1      30.932 -22.271 -17.422  0.00  0.00    -0.266 OA
ATOM      2  N   UNL     1      32.965 -22.439 -16.314  0.00  0.00    -0.219 N 
ATOM      3  N   UNL     1      33.691 -22.884 -15.247  0.00  0.00    -0.171 NA
ATOM      4  C   UNL     1      31.598 -22.666 -16.467  0.00  0.00    +0.276 A 
ATOM      5  C   UNL     1      30.927 -23.433 -15.402  0.00  0.00    +0.059 A 
ATOM      6  C   UNL     1      33.107 -23.559 -14.308  0.00  0.00    +0.083 A 
ATOM      7  C   UNL     1      31.671 -23.884 -14.317  0.00  0.00    +0.020 A 
ATOM      8  C   UNL     1      29.557 -23.705 -15.476  0.00  0.00    +0.005 C 
ATOM      9  C   UNL     1      31.050 -24.612 -13.297  0.00  0.00    +0.001 C 
ATOM     10  C   UNL     1      28.938 -24.431 -14.459  0.00  0.00    +0.000 C 
ATOM     11  C   UNL     1      29.683 -24.883 -13.372  0.00  0.00    +0.000 C 
ENDROOT
BRANCH   2  13
ATOM     12  N   UNL     1      34.744 -20.247 -19.705  0.00  0.00    +0.386 N 
ATOM     13  C   UNL     1      33.726 -21.696 -17.298  0.00  0.00    +0.106 C 
ATOM     14  C   UNL     1      35.216 -21.992 -17.098  0.00  0.00    +0.022 C 
ATOM     15  C   UNL     1      33.258 -22.079 -18.704  0.00  0.00    +0.002 C 
ATOM     16  C   UNL     1      36.173 -21.117 -17.903  0.00  0.00    -0.021 C 
ATOM     17  C   UNL     1      33.491 -21.007 -19.774  0.00  0.00    -0.075 C 
ATOM     18  C   UNL     1      35.924 -21.061 -19.412  0.00  0.00    -0.077 C 
ATOM     19  C   UNL     1      34.923 -19.471 -20.933  0.00  0.00    -0.101 C 
ATOM     20  H   UNL     1      34.656 -19.616 -18.909  0.00  0.00    -0.080 HD
ENDBRANCH   2  13
BRANCH   6  21
ATOM     21  C   UNL     1      33.961 -24.025 -13.152  0.00  0.00    +0.074 C 
BRANCH  21  23
ATOM     22 CL   UNL     1      39.586 -25.062 -14.972  0.00  0.00    -0.082 Cl
ATOM     23  C   UNL     1      35.363 -24.283 -13.607  0.00  0.00    -0.016 C 
ATOM     24  C   UNL     1      35.636 -25.377 -14.425  0.00  0.00    -0.003 C 
ATOM     25  C   UNL     1      36.389 -23.429 -13.209  0.00  0.00    -0.003 C 
ATOM     26  C   UNL     1      36.943 -25.618 -14.848  0.00  0.00    +0.011 C 
ATOM     27  C   UNL     1      37.696 -23.671 -13.631  0.00  0.00    +0.011 C 
ATOM     28  C   UNL     1      37.973 -24.765 -14.451  0.00  0.00    +0.058 C 
ENDBRANCH  21  23
ENDBRANCH   6  21
TORSDOF 3
ENDMDL
MODEL 3
REMARK VINA RESULT:     -11.4      2.300      5.117
REMARK  Name = 2267
REMARK  3 active torsions:
REMARK  status: ('A' for Active; 'I' for Inactive)
REMARK    1  A    between atoms: N_2  and  C_13
REMARK    2  A    between atoms: C_6  and  C_21
REMARK    3  A    between atoms: C_21  and  C_23
REMARK                            x       y       z     vdW  Elec       q    Type
REMARK                         _______ _______ _______ _____ _____    ______ ____
ROOT
ATOM      1  O   UNL     1      36.919 -21.726 -17.174  0.00  0.00    -0.266 OA
ATOM      2  N   UNL     1      34.986 -22.552 -16.189  0.00  0.00    -0.219 N 
ATOM      3  N   UNL     1      33.631 -22.718 -16.212  0.00  0.00    -0.171 NA
ATOM      4  C   UNL     1      35.699 -21.882 -17.182  0.00  0.00    +0.276 A 
ATOM      5  C   UNL     1      34.919 -21.332 -18.305  0.00  0.00    +0.059 A 
ATOM      6  C   UNL     1      32.941 -22.237 -17.197  0.00  0.00    +0.083 A 
ATOM      7  C   UNL     1      33.539 -21.502 -18.323  0.00  0.00    +0.020 A 
ATOM      8  C   UNL     1      35.556 -20.644 -19.344  0.00  0.00    +0.005 C 
ATOM      9  C   UNL     1      32.784 -20.986 -19.381  0.00  0.00    +0.001 C 
ATOM     10  C   UNL     1      34.802 -20.129 -20.399  0.00  0.00    +0.000 C 
ATOM     11  C   UNL     1      33.420 -20.300 -20.416  0.00  0.00    +0.000 C 
ENDROOT
BRANCH   2  13
ATOM     12  N   UNL     1      37.092 -24.859 -13.073  0.00  0.00    +0.386 N 
ATOM     13  C   UNL     1      35.649 -23.132 -15.038  0.00  0.00    +0.106 C 
ATOM     14  C   UNL     1      35.022 -22.557 -13.764  0.00  0.00    +0.022 C 
ATOM     15  C   UNL     1      35.525 -24.657 -15.090  0.00  0.00    +0.002 C 
ATOM     16  C   UNL     1      35.752 -22.889 -12.466  0.00  0.00    -0.021 C 
ATOM     17  C   UNL     1      36.629 -25.418 -14.347  0.00  0.00    -0.075 C 
ATOM     18  C   UNL     1      36.019 -24.373 -12.206  0.00  0.00    -0.077 C 
ATOM     19  C   UNL     1      37.937 -25.834 -12.381  0.00  0.00    -0.101 C 
ATOM     20  H   UNL     1      37.640 -24.030 -13.302  0.00  0.00    -0.080 HD
ENDBRANCH   2  13
BRANCH   6  21
ATOM     21  C   UNL     1      31.445 -22.450 -17.166  0.00  0.00    +0.074 C 
BRANCH  21  23
ATOM     22 CL   UNL     1      29.709 -24.459 -11.784  0.00  0.00    -0.082 Cl
ATOM     23  C   UNL     1      31.014 -22.951 -15.825  0.00  0.00    -0.016 C 
ATOM     24  C   UNL     1      30.193 -24.073 -15.736  0.00  0.00    -0.003 C 
ATOM     25  C   UNL     1      31.432 -22.293 -14.671  0.00  0.00    -0.003 C 
ATOM     26  C   UNL     1      29.790 -24.541 -14.485  0.00  0.00    +0.011 C 
ATOM     27  C   UNL     1      31.028 -22.760 -13.420  0.00  0.00    +0.011 C 
ATOM     28  C   UNL     1      30.207 -23.884 -13.327  0.00  0.00    +0.058 C 
ENDBRANCH  21  23
ENDBRANCH   6  21
TORSDOF 3
ENDMDL
MODEL 4
REMARK VINA RESULT:     -11.0      2.868      6.956
REMARK  Name = 2267
REMARK  3 active torsions:
REMARK  status: ('A' for Active; 'I' for Inactive)
REMARK    1  A    between atoms: N_2  and  C_13
REMARK    2  A    between atoms: C_6  and  C_21
REMARK    3  A    between atoms: C_21  and  C_23
REMARK                            x       y       z     vdW  Elec       q    Type
REMARK                         _______ _______ _______ _____ _____    ______ ____
ROOT
ATOM      1  O   UNL     1      36.773 -21.762 -15.075  0.00  0.00    -0.266 OA
ATOM      2  N   UNL     1      34.573 -22.446 -15.351  0.00  0.00    -0.219 N 
ATOM      3  N   UNL     1      33.477 -23.107 -14.876  0.00  0.00    -0.171 NA
ATOM      4  C   UNL     1      35.779 -22.354 -14.659  0.00  0.00    +0.276 A 
ATOM      5  C   UNL     1      35.845 -23.018 -13.345  0.00  0.00    +0.059 A 
ATOM      6  C   UNL     1      33.529 -23.692 -13.721  0.00  0.00    +0.083 A 
ATOM      7  C   UNL     1      34.727 -23.691 -12.866  0.00  0.00    +0.020 A 
ATOM      8  C   UNL     1      37.020 -22.976 -12.585  0.00  0.00    +0.005 C 
ATOM      9  C   UNL     1      34.773 -24.328 -11.622  0.00  0.00    +0.001 C 
ATOM     10  C   UNL     1      37.065 -23.611 -11.344  0.00  0.00    +0.000 C 
ATOM     11  C   UNL     1      35.945 -24.286 -10.865  0.00  0.00    +0.000 C 
ENDROOT
BRANCH   2  13
ATOM     12  N   UNL     1      33.393 -20.793 -19.268  0.00  0.00    +0.386 N 
ATOM     13  C   UNL     1      34.394 -21.832 -16.651  0.00  0.00    +0.106 C 
ATOM     14  C   UNL     1      35.719 -21.900 -17.417  0.00  0.00    +0.022 C 
ATOM     15  C   UNL     1      33.269 -22.548 -17.405  0.00  0.00    +0.002 C 
ATOM     16  C   UNL     1      35.769 -21.099 -18.715  0.00  0.00    -0.021 C 
ATOM     17  C   UNL     1      32.562 -21.696 -18.464  0.00  0.00    -0.075 C 
ATOM     18  C   UNL     1      34.652 -21.382 -19.723  0.00  0.00    -0.077 C 
ATOM     19  C   UNL     1      32.613 -20.267 -20.390  0.00  0.00    -0.101 C 
ATOM     20  H   UNL     1      33.668 -20.028 -18.652  0.00  0.00    -0.080 HD
ENDBRANCH   2  13
BRANCH   6  21
ATOM     21  C   UNL     1      32.286 -24.409 -13.248  0.00  0.00    +0.074 C 
BRANCH  21  23
ATOM     22 CL   UNL     1      27.446 -22.380 -16.161  0.00  0.00    -0.082 Cl
ATOM     23  C   UNL     1      31.080 -23.904 -13.975  0.00  0.00    -0.016 C 
ATOM     24  C   UNL     1      30.790 -22.541 -13.972  0.00  0.00    -0.003 C 
ATOM     25  C   UNL     1      30.252 -24.797 -14.650  0.00  0.00    -0.003 C 
ATOM     26  C   UNL     1      29.666 -22.069 -14.649  0.00  0.00    +0.011 C 
ATOM     27  C   UNL     1      29.127 -24.325 -15.326  0.00  0.00    +0.011 C 
ATOM     28  C   UNL     1      28.834 -22.961 -15.326  0.00  0.00    +0.058 C 
ENDBRANCH  21  23
ENDBRANCH   6  21
TORSDOF 3
ENDMDL
MODEL 5
REMARK VINA RESULT:     -10.8     14.086     17.500
REMARK  Name = 2267
REMARK  3 active torsions:
REMARK  status: ('A' for Active; 'I' for Inactive)
REMARK    1  A    between atoms: N_2  and  C_13
REMARK    2  A    between atoms: C_6  and  C_21
REMARK    3  A    between atoms: C_21  and  C_23
REMARK                            x       y       z     vdW  Elec       q    Type
REMARK                         _______ _______ _______ _____ _____    ______ ____
ROOT
ATOM      1  O   UNL     1      31.690  -8.227 -19.966  0.00  0.00    -0.266 OA
ATOM      2  N   UNL     1      31.727  -8.705 -22.236  0.00  0.00    -0.219 N 
ATOM      3  N   UNL     1      31.545  -8.301 -23.528  0.00  0.00    -0.171 NA
ATOM      4  C   UNL     1      31.531  -7.876 -21.133  0.00  0.00    +0.276 A 
ATOM      5  C   UNL     1      31.102  -6.493 -21.408  0.00  0.00    +0.059 A 
ATOM      6  C   UNL     1      31.169  -7.086 -23.775  0.00  0.00    +0.083 A 
ATOM      7  C   UNL     1      30.917  -6.086 -22.724  0.00  0.00    +0.020 A 
ATOM      8  C   UNL     1      30.880  -5.595 -20.358  0.00  0.00    +0.005 C 
ATOM      9  C   UNL     1      30.509  -4.778 -23.003  0.00  0.00    +0.001 C 
ATOM     10  C   UNL     1      30.473  -4.290 -20.636  0.00  0.00    +0.000 C 
ATOM     11  C   UNL     1      30.288  -3.884 -21.955  0.00  0.00    +0.000 C 
ENDROOT
BRANCH   2  13
ATOM     12  N   UNL     1      33.281 -12.831 -22.387  0.00  0.00    +0.386 N 
ATOM     13  C   UNL     1      32.147 -10.083 -22.086  0.00  0.00    +0.106 C 
ATOM     14  C   UNL     1      31.121 -10.822 -21.222  0.00  0.00    +0.022 C 
ATOM     15  C   UNL     1      32.292 -10.728 -23.467  0.00  0.00    +0.002 C 
ATOM     16  C   UNL     1      31.526 -12.225 -20.776  0.00  0.00    -0.021 C 
ATOM     17  C   UNL     1      33.269 -11.908 -23.526  0.00  0.00    -0.075 C 
ATOM     18  C   UNL     1      31.952 -13.186 -21.888  0.00  0.00    -0.077 C 
ATOM     19  C   UNL     1      34.061 -14.024 -22.723  0.00  0.00    -0.101 C 
ATOM     20  H   UNL     1      33.727 -12.335 -21.616  0.00  0.00    -0.080 HD
ENDBRANCH   2  13
BRANCH   6  21
ATOM     21  C   UNL     1      30.983  -6.697 -25.224  0.00  0.00    +0.074 C 
BRANCH  21  23
ATOM     22 CL   UNL     1      36.095  -4.517 -27.491  0.00  0.00    -0.082 Cl
ATOM     23  C   UNL     1      32.257  -6.153 -25.788  0.00  0.00    -0.016 C 
ATOM     24  C   UNL     1      32.349  -5.878 -27.151  0.00  0.00    -0.003 C 
ATOM     25  C   UNL     1      33.346  -5.925 -24.950  0.00  0.00    -0.003 C 
ATOM     26  C   UNL     1      33.537  -5.371 -27.678  0.00  0.00    +0.011 C 
ATOM     27  C   UNL     1      34.534  -5.419 -25.477  0.00  0.00    +0.011 C 
ATOM     28  C   UNL     1      34.630  -5.142 -26.841  0.00  0.00    +0.058 C 
ENDBRANCH  21  23
ENDBRANCH   6  21
TORSDOF 3
ENDMDL
MODEL 6
REMARK VINA RESULT:     -10.8      1.217      1.513
REMARK  Name = 2267
REMARK  3 active torsions:
REMARK  status: ('A' for Active; 'I' for Inactive)
REMARK    1  A    between atoms: N_2  and  C_13
REMARK    2  A    between atoms: C_6  and  C_21
REMARK    3  A    between atoms: C_21  and  C_23
REMARK                            x       y       z     vdW  Elec       q    Type
REMARK                         _______ _______ _______ _____ _____    ______ ____
ROOT
ATOM      1  O   UNL     1      32.139 -22.949 -18.034  0.00  0.00    -0.266 OA
ATOM      2  N   UNL     1      33.210 -22.908 -15.975  0.00  0.00    -0.219 N 
ATOM      3  N   UNL     1      34.285 -22.548 -15.214  0.00  0.00    -0.171 NA
ATOM      4  C   UNL     1      33.100 -22.631 -17.337  0.00  0.00    +0.276 A 
ATOM      5  C   UNL     1      34.225 -21.911 -17.962  0.00  0.00    +0.059 A 
ATOM      6  C   UNL     1      35.276 -21.915 -15.758  0.00  0.00    +0.083 A 
ATOM      7  C   UNL     1      35.318 -21.549 -17.184  0.00  0.00    +0.020 A 
ATOM      8  C   UNL     1      34.197 -21.595 -19.325  0.00  0.00    +0.005 C 
ATOM      9  C   UNL     1      36.393 -20.866 -17.761  0.00  0.00    +0.001 C 
ATOM     10  C   UNL     1      35.269 -20.915 -19.901  0.00  0.00    +0.000 C 
ATOM     11  C   UNL     1      36.365 -20.552 -19.120  0.00  0.00    +0.000 C 
ENDROOT
BRANCH   2  13
ATOM     12  N   UNL     1      29.608 -24.748 -14.213  0.00  0.00    +0.386 N 
ATOM     13  C   UNL     1      32.167 -23.611 -15.257  0.00  0.00    +0.106 C 
ATOM     14  C   UNL     1      32.607 -23.798 -13.801  0.00  0.00    +0.022 C 
ATOM     15  C   UNL     1      30.857 -22.824 -15.354  0.00  0.00    +0.002 C 
ATOM     16  C   UNL     1      31.725 -24.718 -12.962  0.00  0.00    -0.021 C 
ATOM     17  C   UNL     1      29.587 -23.668 -15.204  0.00  0.00    -0.075 C 
ATOM     18  C   UNL     1      30.232 -24.382 -12.941  0.00  0.00    -0.077 C 
ATOM     19  C   UNL     1      28.253 -25.267 -14.013  0.00  0.00    -0.101 C 
ATOM     20  H   UNL     1      30.204 -25.481 -14.596  0.00  0.00    -0.080 HD
ENDBRANCH   2  13
BRANCH   6  21
ATOM     21  C   UNL     1      36.438 -21.545 -14.867  0.00  0.00    +0.074 C 
BRANCH  21  23
ATOM     22 CL   UNL     1      39.961 -26.308 -13.907  0.00  0.00    -0.082 Cl
ATOM     23  C   UNL     1      37.315 -22.732 -14.628  0.00  0.00    -0.016 C 
ATOM     24  C   UNL     1      37.165 -23.483 -13.464  0.00  0.00    -0.003 C 
ATOM     25  C   UNL     1      38.280 -23.083 -15.570  0.00  0.00    -0.003 C 
ATOM     26  C   UNL     1      37.983 -24.590 -13.241  0.00  0.00    +0.011 C 
ATOM     27  C   UNL     1      39.099 -24.189 -15.346  0.00  0.00    +0.011 C 
ATOM     28  C   UNL     1      38.951 -24.943 -14.182  0.00  0.00    +0.058 C 
ENDBRANCH  21  23
ENDBRANCH   6  21
TORSDOF 3
ENDMDL
MODEL 7
REMARK VINA RESULT:     -10.3      2.808      7.095
REMARK  Name = 2267
REMARK  3 active torsions:
REMARK  status: ('A' for Active; 'I' for Inactive)
REMARK    1  A    between atoms: N_2  and  C_13
REMARK    2  A    between atoms: C_6  and  C_21
REMARK    3  A    between atoms: C_21  and  C_23
REMARK                            x       y       z     vdW  Elec       q    Type
REMARK                         _______ _______ _______ _____ _____    ______ ____
ROOT
ATOM      1  O   UNL     1      37.175 -23.343 -15.425  0.00  0.00    -0.266 OA
ATOM      2  N   UNL     1      34.885 -22.977 -15.337  0.00  0.00    -0.219 N 
ATOM      3  N   UNL     1      33.719 -22.979 -14.627  0.00  0.00    -0.171 NA
ATOM      4  C   UNL     1      36.118 -23.341 -14.798  0.00  0.00    +0.276 A 
ATOM      5  C   UNL     1      36.131 -23.746 -13.380  0.00  0.00    +0.059 A 
ATOM      6  C   UNL     1      33.724 -23.334 -13.381  0.00  0.00    +0.083 A 
ATOM      7  C   UNL     1      34.941 -23.747 -12.662  0.00  0.00    +0.020 A 
ATOM      8  C   UNL     1      37.326 -24.127 -12.760  0.00  0.00    +0.005 C 
ATOM      9  C   UNL     1      34.935 -24.130 -11.317  0.00  0.00    +0.001 C 
ATOM     10  C   UNL     1      37.320 -24.508 -11.419  0.00  0.00    +0.000 C 
ATOM     11  C   UNL     1      36.127 -24.510 -10.700  0.00  0.00    +0.000 C 
ENDROOT
BRANCH   2  13
ATOM     12  N   UNL     1      35.071 -21.405 -19.455  0.00  0.00    +0.386 N 
ATOM     13  C   UNL     1      34.753 -22.564 -16.719  0.00  0.00    +0.106 C 
ATOM     14  C   UNL     1      33.265 -22.422 -17.054  0.00  0.00    +0.022 C 
ATOM     15  C   UNL     1      35.508 -21.249 -16.935  0.00  0.00    +0.002 C 
ATOM     16  C   UNL     1      32.941 -22.213 -18.531  0.00  0.00    -0.021 C 
ATOM     17  C   UNL     1      35.978 -21.005 -18.373  0.00  0.00    -0.075 C 
ATOM     18  C   UNL     1      33.669 -21.058 -19.221  0.00  0.00    -0.077 C 
ATOM     19  C   UNL     1      35.550 -20.864 -20.729  0.00  0.00    -0.101 C 
ATOM     20  H   UNL     1      35.088 -22.424 -19.486  0.00  0.00    -0.080 HD
ENDBRANCH   2  13
BRANCH   6  21
ATOM     21  C   UNL     1      32.403 -23.317 -12.648  0.00  0.00    +0.074 C 
BRANCH  21  23
ATOM     22 CL   UNL     1      27.847 -24.006 -16.493  0.00  0.00    -0.082 Cl
ATOM     23  C   UNL     1      31.269 -23.489 -13.607  0.00  0.00    -0.016 C 
ATOM     24  C   UNL     1      30.740 -22.379 -14.261  0.00  0.00    -0.003 C 
ATOM     25  C   UNL     1      30.744 -24.759 -13.840  0.00  0.00    -0.003 C 
ATOM     26  C   UNL     1      29.681 -22.539 -15.155  0.00  0.00    +0.011 C 
ATOM     27  C   UNL     1      29.685 -24.918 -14.733  0.00  0.00    +0.011 C 
ATOM     28  C   UNL     1      29.153 -23.809 -15.391  0.00  0.00    +0.058 C 
ENDBRANCH  21  23
ENDBRANCH   6  21
TORSDOF 3
ENDMDL
MODEL 8
REMARK VINA RESULT:     -10.0      1.935      2.946
REMARK  Name = 2267
REMARK  3 active torsions:
REMARK  status: ('A' for Active; 'I' for Inactive)
REMARK    1  A    between atoms: N_2  and  C_13
REMARK    2  A    between atoms: C_6  and  C_21
REMARK    3  A    between atoms: C_21  and  C_23
REMARK                            x       y       z     vdW  Elec       q    Type
REMARK                         _______ _______ _______ _____ _____    ______ ____
ROOT
ATOM      1  O   UNL     1      32.716 -22.199 -17.820  0.00  0.00    -0.266 OA
ATOM      2  N   UNL     1      32.614 -23.134 -15.698  0.00  0.00    -0.219 N 
ATOM      3  N   UNL     1      33.230 -23.456 -14.523  0.00  0.00    -0.171 NA
ATOM      4  C   UNL     1      33.257 -22.495 -16.757  0.00  0.00    +0.276 A 
ATOM      5  C   UNL     1      34.681 -22.163 -16.567  0.00  0.00    +0.059 A 
ATOM      6  C   UNL     1      34.480 -23.167 -14.351  0.00  0.00    +0.083 A 
ATOM      7  C   UNL     1      35.304 -22.494 -15.369  0.00  0.00    +0.020 A 
ATOM      8  C   UNL     1      35.403 -21.522 -17.581  0.00  0.00    +0.005 C 
ATOM      9  C   UNL     1      36.654 -22.188 -15.174  0.00  0.00    +0.001 C 
ATOM     10  C   UNL     1      36.749 -21.216 -17.385  0.00  0.00    +0.000 C 
ATOM     11  C   UNL     1      37.373 -21.549 -16.185  0.00  0.00    +0.000 C 
ENDROOT
BRANCH   2  13
ATOM     12  N   UNL     1      28.264 -23.670 -16.205  0.00  0.00    +0.386 N 
ATOM     13  C   UNL     1      31.217 -23.508 -15.774  0.00  0.00    +0.106 C 
ATOM     14  C   UNL     1      30.892 -24.449 -14.608  0.00  0.00    +0.022 C 
ATOM     15  C   UNL     1      30.346 -22.249 -15.743  0.00  0.00    +0.002 C 
ATOM     16  C   UNL     1      29.522 -25.118 -14.667  0.00  0.00    -0.021 C 
ATOM     17  C   UNL     1      28.972 -22.401 -16.404  0.00  0.00    -0.075 C 
ATOM     18  C   UNL     1      28.323 -24.181 -14.836  0.00  0.00    -0.077 C 
ATOM     19  C   UNL     1      26.881 -23.545 -16.669  0.00  0.00    -0.101 C 
ATOM     20  H   UNL     1      28.754 -24.366 -16.767  0.00  0.00    -0.080 HD
ENDBRANCH   2  13
BRANCH   6  21
ATOM     21  C   UNL     1      35.107 -23.549 -13.030  0.00  0.00    +0.074 C 
BRANCH  21  23
ATOM     22 CL   UNL     1      40.378 -26.278 -13.917  0.00  0.00    -0.082 Cl
ATOM     23  C   UNL     1      36.420 -24.230 -13.250  0.00  0.00    -0.016 C 
ATOM     24  C   UNL     1      37.569 -23.734 -12.638  0.00  0.00    -0.003 C 
ATOM     25  C   UNL     1      36.490 -25.355 -14.068  0.00  0.00    -0.003 C 
ATOM     26  C   UNL     1      38.794 -24.369 -12.844  0.00  0.00    +0.011 C 
ATOM     27  C   UNL     1      37.715 -25.989 -14.275  0.00  0.00    +0.011 C 
ATOM     28  C   UNL     1      38.867 -25.496 -13.662  0.00  0.00    +0.058 C 
ENDBRANCH  21  23
ENDBRANCH   6  21
TORSDOF 3
ENDMDL
MODEL 9
REMARK VINA RESULT:      -9.8     12.640     16.225
REMARK  Name = 2267
REMARK  3 active torsions:
REMARK  status: ('A' for Active; 'I' for Inactive)
REMARK    1  A    between atoms: N_2  and  C_13
REMARK    2  A    between atoms: C_6  and  C_21
REMARK    3  A    between atoms: C_21  and  C_23
REMARK                            x       y       z     vdW  Elec       q    Type
REMARK                         _______ _______ _______ _____ _____    ______ ____
ROOT
ATOM      1  O   UNL     1      31.067 -11.737 -21.081  0.00  0.00    -0.266 OA
ATOM      2  N   UNL     1      32.452 -10.981 -22.783  0.00  0.00    -0.219 N 
ATOM      3  N   UNL     1      33.147  -9.964 -23.372  0.00  0.00    -0.171 NA
ATOM      4  C   UNL     1      31.697 -10.831 -21.622  0.00  0.00    +0.276 A 
ATOM      5  C   UNL     1      31.666  -9.485 -21.019  0.00  0.00    +0.059 A 
ATOM      6  C   UNL     1      33.123  -8.780 -22.846  0.00  0.00    +0.083 A 
ATOM      7  C   UNL     1      32.374  -8.452 -21.622  0.00  0.00    +0.020 A 
ATOM      8  C   UNL     1      30.931  -9.246 -19.852  0.00  0.00    +0.005 C 
ATOM      9  C   UNL     1      32.353  -7.170 -21.064  0.00  0.00    +0.001 C 
ATOM     10  C   UNL     1      30.911  -7.967 -19.296  0.00  0.00    +0.000 C 
ATOM     11  C   UNL     1      31.620  -6.933 -19.901  0.00  0.00    +0.000 C 
ENDROOT
BRANCH   2  13
ATOM     12  N   UNL     1      33.047 -15.088 -24.284  0.00  0.00    +0.386 N 
ATOM     13  C   UNL     1      32.554 -12.257 -23.462  0.00  0.00    +0.106 C 
ATOM     14  C   UNL     1      32.717 -12.007 -24.965  0.00  0.00    +0.022 C 
ATOM     15  C   UNL     1      33.733 -13.050 -22.890  0.00  0.00    +0.002 C 
ATOM     16  C   UNL     1      32.611 -13.245 -25.852  0.00  0.00    -0.021 C 
ATOM     17  C   UNL     1      33.616 -14.571 -23.035  0.00  0.00    -0.075 C 
ATOM     18  C   UNL     1      33.531 -14.412 -25.488  0.00  0.00    -0.077 C 
ATOM     19  C   UNL     1      33.255 -16.535 -24.363  0.00  0.00    -0.101 C 
ATOM     20  H   UNL     1      32.048 -14.885 -24.253  0.00  0.00    -0.080 HD
ENDBRANCH   2  13
BRANCH   6  21
ATOM     21  C   UNL     1      33.910  -7.695 -23.542  0.00  0.00    +0.074 C 
BRANCH  21  23
ATOM     22 CL   UNL     1      30.357  -3.043 -24.870  0.00  0.00    -0.082 Cl
ATOM     23  C   UNL     1      33.025  -6.536 -23.874  0.00  0.00    -0.016 C 
ATOM     24  C   UNL     1      33.438  -5.240 -23.574  0.00  0.00    -0.003 C 
ATOM     25  C   UNL     1      31.791  -6.757 -24.481  0.00  0.00    -0.003 C 
ATOM     26  C   UNL     1      32.613  -4.159 -23.882  0.00  0.00    +0.011 C 
ATOM     27  C   UNL     1      30.965  -5.676 -24.789  0.00  0.00    +0.011 C 
ATOM     28  C   UNL     1      31.376  -4.376 -24.490  0.00  0.00    +0.058 C 
ENDBRANCH  21  23
ENDBRANCH   6  21
TORSDOF 3
ENDMDL
