MODEL 1
REMARK VINA RESULT:     -12.1      0.000      0.000
REMARK  Name = 6852128
REMARK  5 active torsions:
REMARK  status: ('A' for Active; 'I' for Inactive)
REMARK    1  A    between atoms: N_2  and  S_19
REMARK    2  A    between atoms: N_3  and  C_7
REMARK    3  A    between atoms: C_8  and  S_13
REMARK    4  A    between atoms: S_13  and  N_16
REMARK    5  A    between atoms: S_19  and  C_22
REMARK                            x       y       z     vdW  Elec       q    Type
REMARK                         _______ _______ _______ _____ _____    ______ ____
ROOT
ATOM      1  O   UNL     1      34.093 -15.865 -22.924  0.00  0.00    -0.251 OA
ATOM      2  N   UNL     1      34.826 -16.885 -20.968  0.00  0.00    -0.169 N 
ATOM      3  N   UNL     1      33.865 -14.764 -20.878  0.00  0.00    -0.267 N 
ATOM      4  C   UNL     1      34.230 -15.809 -21.709  0.00  0.00    +0.323 C 
ATOM      5  H   UNL     1      34.860 -16.796 -19.989  0.00  0.00    +0.178 HD
ATOM      6  H   UNL     1      34.052 -14.889 -19.919  0.00  0.00    +0.156 HD
ENDROOT
BRANCH   3   7
ATOM      7  C   UNL     1      33.256 -13.539 -21.237  0.00  0.00    +0.052 C 
ATOM      8  C   UNL     1      32.061 -11.140 -21.939  0.00  0.00    +0.122 C 
ATOM      9  C   UNL     1      31.607 -11.845 -20.823  0.00  0.00    +0.021 C 
ATOM     10  C   UNL     1      33.116 -11.642 -22.699  0.00  0.00    +0.021 C 
ATOM     11  C   UNL     1      32.209 -13.053 -20.470  0.00  0.00    +0.016 C 
ATOM     12  C   UNL     1      33.718 -12.851 -22.346  0.00  0.00    +0.016 C 
BRANCH   8  13
ATOM     13  S   UNL     1      31.309  -9.628 -22.380  0.00  0.00    +0.057 S 
ATOM     14  O   UNL     1      31.856  -9.199 -23.660  0.00  0.00    -0.153 OA
ATOM     15  O   UNL     1      29.868  -9.763 -22.219  0.00  0.00    -0.153 OA
BRANCH  13  16
ATOM     16  N   UNL     1      31.905  -8.597 -21.154  0.00  0.00    -0.203 NA
ATOM     17  H   UNL     1      32.634  -9.080 -20.629  0.00  0.00    +0.144 HD
ATOM     18  H   UNL     1      31.145  -8.344 -20.524  0.00  0.00    +0.144 HD
ENDBRANCH  13  16
ENDBRANCH   8  13
ENDBRANCH   3   7
BRANCH   2  19
ATOM     19  S   UNL     1      35.481 -18.313 -21.654  0.00  0.00    +0.077 S 
ATOM     20  O   UNL     1      36.929 -18.288 -21.496  0.00  0.00    -0.150 OA
ATOM     21  O   UNL     1      34.905 -18.501 -22.979  0.00  0.00    -0.150 OA
BRANCH  19  22
ATOM     22  C   UNL     1      34.817 -19.545 -20.611  0.00  0.00    +0.125 C 
ATOM     23  C   UNL     1      35.667 -20.358 -19.863  0.00  0.00    +0.020 C 
ATOM     24  C   UNL     1      33.435 -19.716 -20.525  0.00  0.00    +0.020 C 
ATOM     25  C   UNL     1      33.755 -21.513 -18.942  0.00  0.00    -0.022 C 
ATOM     26  C   UNL     1      35.136 -21.343 -19.028  0.00  0.00    -0.003 C 
ATOM     27  C   UNL     1      32.904 -20.699 -19.691  0.00  0.00    -0.003 C 
ATOM     28  C   UNL     1      33.186 -22.565 -18.051  0.00  0.00    +0.031 C 
ENDBRANCH  19  22
ENDBRANCH   2  19
TORSDOF 5
ENDMDL
MODEL 2
REMARK VINA RESULT:     -11.2      4.124      5.934
REMARK  Name = 6852128
REMARK  5 active torsions:
REMARK  status: ('A' for Active; 'I' for Inactive)
REMARK    1  A    between atoms: N_2  and  S_19
REMARK    2  A    between atoms: N_3  and  C_7
REMARK    3  A    between atoms: C_8  and  S_13
REMARK    4  A    between atoms: S_13  and  N_16
REMARK    5  A    between atoms: S_19  and  C_22
REMARK                            x       y       z     vdW  Elec       q    Type
REMARK                         _______ _______ _______ _____ _____    ______ ____
ROOT
ATOM      1  O   UNL     1      32.332 -20.239 -20.009  0.00  0.00    -0.251 OA
ATOM      2  N   UNL     1      34.071 -21.375 -18.967  0.00  0.00    -0.169 N 
ATOM      3  N   UNL     1      34.546 -19.645 -20.453  0.00  0.00    -0.267 N 
ATOM      4  C   UNL     1      33.538 -20.376 -19.849  0.00  0.00    +0.323 C 
ATOM      5  H   UNL     1      35.048 -21.399 -18.846  0.00  0.00    +0.178 HD
ATOM      6  H   UNL     1      35.467 -19.893 -20.207  0.00  0.00    +0.156 HD
ENDROOT
BRANCH   3   7
ATOM      7  C   UNL     1      34.415 -18.584 -21.379  0.00  0.00    +0.052 C 
ATOM      8  C   UNL     1      34.158 -16.507 -23.195  0.00  0.00    +0.122 C 
ATOM      9  C   UNL     1      33.814 -17.807 -23.568  0.00  0.00    +0.021 C 
ATOM     10  C   UNL     1      34.631 -16.254 -21.908  0.00  0.00    +0.021 C 
ATOM     11  C   UNL     1      33.943 -18.852 -22.654  0.00  0.00    +0.016 C 
ATOM     12  C   UNL     1      34.761 -17.300 -20.993  0.00  0.00    +0.016 C 
BRANCH   8  13
ATOM     13  S   UNL     1      33.996 -15.198 -24.338  0.00  0.00    +0.057 S 
ATOM     14  O   UNL     1      33.741 -13.970 -23.599  0.00  0.00    -0.153 OA
ATOM     15  O   UNL     1      35.110 -15.261 -25.274  0.00  0.00    -0.153 OA
BRANCH  13  16
ATOM     16  N   UNL     1      32.566 -15.656 -25.155  0.00  0.00    -0.203 NA
ATOM     17  H   UNL     1      32.278 -14.905 -25.783  0.00  0.00    +0.144 HD
ATOM     18  H   UNL     1      31.827 -15.832 -24.475  0.00  0.00    +0.144 HD
ENDBRANCH  13  16
ENDBRANCH   8  13
ENDBRANCH   3   7
BRANCH   2  19
ATOM     19  S   UNL     1      33.142 -22.530 -18.106  0.00  0.00    +0.077 S 
ATOM     20  O   UNL     1      33.248 -23.817 -18.781  0.00  0.00    -0.150 OA
ATOM     21  O   UNL     1      31.827 -21.965 -17.837  0.00  0.00    -0.150 OA
BRANCH  19  22
ATOM     22  C   UNL     1      33.999 -22.616 -16.587  0.00  0.00    +0.125 C 
ATOM     23  C   UNL     1      33.380 -23.168 -15.466  0.00  0.00    +0.020 C 
ATOM     24  C   UNL     1      35.305 -22.132 -16.495  0.00  0.00    +0.020 C 
ATOM     25  C   UNL     1      35.371 -22.754 -14.161  0.00  0.00    -0.022 C 
ATOM     26  C   UNL     1      34.066 -23.237 -14.253  0.00  0.00    -0.003 C 
ATOM     27  C   UNL     1      35.991 -22.201 -15.283  0.00  0.00    -0.003 C 
ATOM     28  C   UNL     1      36.105 -22.827 -12.865  0.00  0.00    +0.031 C 
ENDBRANCH  19  22
ENDBRANCH   2  19
TORSDOF 5
ENDMDL
MODEL 3
REMARK VINA RESULT:     -11.2      4.524      9.837
REMARK  Name = 6852128
REMARK  5 active torsions:
REMARK  status: ('A' for Active; 'I' for Inactive)
REMARK    1  A    between atoms: N_2  and  S_19
REMARK    2  A    between atoms: N_3  and  C_7
REMARK    3  A    between atoms: C_8  and  S_13
REMARK    4  A    between atoms: S_13  and  N_16
REMARK    5  A    between atoms: S_19  and  C_22
REMARK                            x       y       z     vdW  Elec       q    Type
REMARK                         _______ _______ _______ _____ _____    ______ ____
ROOT
ATOM      1  O   UNL     1      36.271 -19.506 -20.194  0.00  0.00    -0.251 OA
ATOM      2  N   UNL     1      34.355 -19.407 -21.506  0.00  0.00    -0.169 N 
ATOM      3  N   UNL     1      34.354 -20.674 -19.552  0.00  0.00    -0.267 N 
ATOM      4  C   UNL     1      35.108 -19.849 -20.367  0.00  0.00    +0.323 C 
ATOM      5  H   UNL     1      33.411 -19.678 -21.558  0.00  0.00    +0.178 HD
ATOM      6  H   UNL     1      33.430 -20.846 -19.846  0.00  0.00    +0.156 HD
ENDROOT
BRANCH   3   7
ATOM      7  C   UNL     1      34.748 -21.302 -18.347  0.00  0.00    +0.052 C 
ATOM      8  C   UNL     1      35.518 -22.534 -15.987  0.00  0.00    +0.122 C 
ATOM      9  C   UNL     1      34.208 -22.667 -16.449  0.00  0.00    +0.021 C 
ATOM     10  C   UNL     1      36.439 -21.781 -16.714  0.00  0.00    +0.021 C 
ATOM     11  C   UNL     1      33.820 -22.048 -17.637  0.00  0.00    +0.016 C 
ATOM     12  C   UNL     1      36.052 -21.161 -17.902  0.00  0.00    +0.016 C 
BRANCH   8  13
ATOM     13  S   UNL     1      36.003 -23.310 -14.501  0.00  0.00    +0.057 S 
ATOM     14  O   UNL     1      37.178 -22.621 -13.985  0.00  0.00    -0.153 OA
ATOM     15  O   UNL     1      34.828 -23.468 -13.656  0.00  0.00    -0.153 OA
BRANCH  13  16
ATOM     16  N   UNL     1      36.477 -24.848 -15.077  0.00  0.00    -0.203 NA
ATOM     17  H   UNL     1      37.309 -24.752 -15.658  0.00  0.00    +0.144 HD
ATOM     18  H   UNL     1      35.721 -25.251 -15.630  0.00  0.00    +0.144 HD
ENDBRANCH  13  16
ENDBRANCH   8  13
ENDBRANCH   3   7
BRANCH   2  19
ATOM     19  S   UNL     1      34.970 -18.443 -22.784  0.00  0.00    +0.077 S 
ATOM     20  O   UNL     1      34.249 -18.769 -24.007  0.00  0.00    -0.150 OA
ATOM     21  O   UNL     1      36.424 -18.516 -22.765  0.00  0.00    -0.150 OA
BRANCH  19  22
ATOM     22  C   UNL     1      34.516 -16.838 -22.268  0.00  0.00    +0.125 C 
ATOM     23  C   UNL     1      34.242 -15.852 -23.215  0.00  0.00    +0.020 C 
ATOM     24  C   UNL     1      34.426 -16.542 -20.908  0.00  0.00    +0.020 C 
ATOM     25  C   UNL     1      33.787 -14.274 -21.443  0.00  0.00    -0.022 C 
ATOM     26  C   UNL     1      33.878 -14.570 -22.803  0.00  0.00    -0.003 C 
ATOM     27  C   UNL     1      34.061 -15.260 -20.495  0.00  0.00    -0.003 C 
ATOM     28  C   UNL     1      33.399 -12.903 -21.002  0.00  0.00    +0.031 C 
ENDBRANCH  19  22
ENDBRANCH   2  19
TORSDOF 5
ENDMDL
MODEL 4
REMARK VINA RESULT:     -11.1      3.301     10.450
REMARK  Name = 6852128
REMARK  5 active torsions:
REMARK  status: ('A' for Active; 'I' for Inactive)
REMARK    1  A    between atoms: N_2  and  S_19
REMARK    2  A    between atoms: N_3  and  C_7
REMARK    3  A    between atoms: C_8  and  S_13
REMARK    4  A    between atoms: S_13  and  N_16
REMARK    5  A    between atoms: S_19  and  C_22
REMARK                            x       y       z     vdW  Elec       q    Type
REMARK                         _______ _______ _______ _____ _____    ______ ____
ROOT
ATOM      1  O   UNL     1      31.743 -12.172 -21.254  0.00  0.00    -0.251 OA
ATOM      2  N   UNL     1      32.438 -10.423 -22.617  0.00  0.00    -0.169 N 
ATOM      3  N   UNL     1      33.499 -12.492 -22.760  0.00  0.00    -0.267 N 
ATOM      4  C   UNL     1      32.502 -11.770 -22.127  0.00  0.00    +0.323 C 
ATOM      5  H   UNL     1      33.043 -10.180 -23.355  0.00  0.00    +0.178 HD
ATOM      6  H   UNL     1      34.017 -12.007 -23.442  0.00  0.00    +0.156 HD
ENDROOT
BRANCH   3   7
ATOM      7  C   UNL     1      33.864 -13.842 -22.547  0.00  0.00    +0.052 C 
ATOM      8  C   UNL     1      34.580 -16.486 -22.132  0.00  0.00    +0.122 C 
ATOM      9  C   UNL     1      34.511 -15.977 -23.429  0.00  0.00    +0.021 C 
ATOM     10  C   UNL     1      34.290 -15.663 -21.045  0.00  0.00    +0.021 C 
ATOM     11  C   UNL     1      34.150 -14.647 -23.638  0.00  0.00    +0.016 C 
ATOM     12  C   UNL     1      33.929 -14.332 -21.254  0.00  0.00    +0.016 C 
BRANCH   8  13
ATOM     13  S   UNL     1      35.032 -18.152 -21.870  0.00  0.00    +0.057 S 
ATOM     14  O   UNL     1      34.651 -18.524 -20.515  0.00  0.00    -0.153 OA
ATOM     15  O   UNL     1      34.559 -18.942 -22.997  0.00  0.00    -0.153 OA
BRANCH  13  16
ATOM     16  N   UNL     1      36.736 -18.043 -21.952  0.00  0.00    -0.203 NA
ATOM     17  H   UNL     1      37.143 -18.436 -21.103  0.00  0.00    +0.144 HD
ATOM     18  H   UNL     1      37.010 -17.065 -22.038  0.00  0.00    +0.144 HD
ENDBRANCH  13  16
ENDBRANCH   8  13
ENDBRANCH   3   7
BRANCH   2  19
ATOM     19  S   UNL     1      31.392  -9.203 -22.021  0.00  0.00    +0.077 S 
ATOM     20  O   UNL     1      31.584  -9.081 -20.582  0.00  0.00    -0.150 OA
ATOM     21  O   UNL     1      30.055  -9.434 -22.551  0.00  0.00    -0.150 OA
BRANCH  19  22
ATOM     22  C   UNL     1      32.028  -7.776 -22.801  0.00  0.00    +0.125 C 
ATOM     23  C   UNL     1      31.457  -7.315 -23.986  0.00  0.00    +0.020 C 
ATOM     24  C   UNL     1      33.108  -7.096 -22.237  0.00  0.00    +0.020 C 
ATOM     25  C   UNL     1      33.043  -5.494 -24.044  0.00  0.00    -0.022 C 
ATOM     26  C   UNL     1      31.964  -6.174 -24.608  0.00  0.00    -0.003 C 
ATOM     27  C   UNL     1      33.615  -5.955 -22.858  0.00  0.00    -0.003 C 
ATOM     28  C   UNL     1      33.587  -4.274 -24.709  0.00  0.00    +0.031 C 
ENDBRANCH  19  22
ENDBRANCH   2  19
TORSDOF 5
ENDMDL
MODEL 5
REMARK VINA RESULT:     -11.1      3.298     10.373
REMARK  Name = 6852128
REMARK  5 active torsions:
REMARK  status: ('A' for Active; 'I' for Inactive)
REMARK    1  A    between atoms: N_2  and  S_19
REMARK    2  A    between atoms: N_3  and  C_7
REMARK    3  A    between atoms: C_8  and  S_13
REMARK    4  A    between atoms: S_13  and  N_16
REMARK    5  A    between atoms: S_19  and  C_22
REMARK                            x       y       z     vdW  Elec       q    Type
REMARK                         _______ _______ _______ _____ _____    ______ ____
ROOT
ATOM      1  O   UNL     1      31.738 -12.189 -21.271  0.00  0.00    -0.251 OA
ATOM      2  N   UNL     1      32.466 -10.421 -22.593  0.00  0.00    -0.169 N 
ATOM      3  N   UNL     1      33.531 -12.488 -22.738  0.00  0.00    -0.267 N 
ATOM      4  C   UNL     1      32.518 -11.775 -22.120  0.00  0.00    +0.323 C 
ATOM      5  H   UNL     1      33.089 -10.168 -23.312  0.00  0.00    +0.178 HD
ATOM      6  H   UNL     1      34.066 -11.994 -23.400  0.00  0.00    +0.156 HD
ENDROOT
BRANCH   3   7
ATOM      7  C   UNL     1      33.891 -13.841 -22.534  0.00  0.00    +0.052 C 
ATOM      8  C   UNL     1      34.596 -16.490 -22.134  0.00  0.00    +0.122 C 
ATOM      9  C   UNL     1      34.286 -15.678 -21.042  0.00  0.00    +0.021 C 
ATOM     10  C   UNL     1      34.552 -15.968 -23.426  0.00  0.00    +0.021 C 
ATOM     11  C   UNL     1      33.931 -14.345 -21.244  0.00  0.00    +0.016 C 
ATOM     12  C   UNL     1      34.197 -14.634 -23.627  0.00  0.00    +0.016 C 
BRANCH   8  13
ATOM     13  S   UNL     1      35.040 -18.160 -21.882  0.00  0.00    +0.057 S 
ATOM     14  O   UNL     1      34.665 -18.536 -20.526  0.00  0.00    -0.153 OA
ATOM     15  O   UNL     1      34.556 -18.943 -23.010  0.00  0.00    -0.153 OA
BRANCH  13  16
ATOM     16  N   UNL     1      36.744 -18.060 -21.974  0.00  0.00    -0.203 NA
ATOM     17  H   UNL     1      37.049 -17.142 -21.650  0.00  0.00    +0.144 HD
ATOM     18  H   UNL     1      37.041 -18.196 -22.939  0.00  0.00    +0.144 HD
ENDBRANCH  13  16
ENDBRANCH   8  13
ENDBRANCH   3   7
BRANCH   2  19
ATOM     19  S   UNL     1      31.405  -9.210 -22.006  0.00  0.00    +0.077 S 
ATOM     20  O   UNL     1      31.587  -9.082 -20.566  0.00  0.00    -0.150 OA
ATOM     21  O   UNL     1      30.073  -9.456 -22.543  0.00  0.00    -0.150 OA
BRANCH  19  22
ATOM     22  C   UNL     1      32.031  -7.779 -22.786  0.00  0.00    +0.125 C 
ATOM     23  C   UNL     1      33.100  -7.086 -22.219  0.00  0.00    +0.020 C 
ATOM     24  C   UNL     1      31.463  -7.330 -23.979  0.00  0.00    +0.020 C 
ATOM     25  C   UNL     1      33.034  -5.494 -24.035  0.00  0.00    -0.022 C 
ATOM     26  C   UNL     1      33.601  -5.943 -22.843  0.00  0.00    -0.003 C 
ATOM     27  C   UNL     1      31.965  -6.188 -24.603  0.00  0.00    -0.003 C 
ATOM     28  C   UNL     1      33.569  -4.273 -24.703  0.00  0.00    +0.031 C 
ENDBRANCH  19  22
ENDBRANCH   2  19
TORSDOF 5
ENDMDL
MODEL 6
REMARK VINA RESULT:     -10.9      4.497      9.899
REMARK  Name = 6852128
REMARK  5 active torsions:
REMARK  status: ('A' for Active; 'I' for Inactive)
REMARK    1  A    between atoms: N_2  and  S_19
REMARK    2  A    between atoms: N_3  and  C_7
REMARK    3  A    between atoms: C_8  and  S_13
REMARK    4  A    between atoms: S_13  and  N_16
REMARK    5  A    between atoms: S_19  and  C_22
REMARK                            x       y       z     vdW  Elec       q    Type
REMARK                         _______ _______ _______ _____ _____    ______ ____
ROOT
ATOM      1  O   UNL     1      36.250 -19.670 -20.130  0.00  0.00    -0.251 OA
ATOM      2  N   UNL     1      34.332 -19.342 -21.402  0.00  0.00    -0.169 N 
ATOM      3  N   UNL     1      34.237 -20.662 -19.484  0.00  0.00    -0.267 N 
ATOM      4  C   UNL     1      35.056 -19.890 -20.290  0.00  0.00    +0.323 C 
ATOM      5  H   UNL     1      33.364 -19.517 -21.443  0.00  0.00    +0.178 HD
ATOM      6  H   UNL     1      33.296 -20.732 -19.765  0.00  0.00    +0.156 HD
ENDROOT
BRANCH   3   7
ATOM      7  C   UNL     1      34.586 -21.361 -18.305  0.00  0.00    +0.052 C 
ATOM      8  C   UNL     1      35.272 -22.731 -15.996  0.00  0.00    +0.122 C 
ATOM      9  C   UNL     1      36.211 -21.915 -16.629  0.00  0.00    +0.021 C 
ATOM     10  C   UNL     1      33.988 -22.856 -16.526  0.00  0.00    +0.021 C 
ATOM     11  C   UNL     1      35.866 -21.226 -17.791  0.00  0.00    +0.016 C 
ATOM     12  C   UNL     1      33.643 -22.166 -17.689  0.00  0.00    +0.016 C 
BRANCH   8  13
ATOM     13  S   UNL     1      35.704 -23.593 -14.541  0.00  0.00    +0.057 S 
ATOM     14  O   UNL     1      34.768 -23.219 -13.490  0.00  0.00    -0.153 OA
ATOM     15  O   UNL     1      35.893 -24.998 -14.875  0.00  0.00    -0.153 OA
BRANCH  13  16
ATOM     16  N   UNL     1      37.227 -22.901 -14.193  0.00  0.00    -0.203 NA
ATOM     17  H   UNL     1      37.829 -22.975 -15.013  0.00  0.00    +0.144 HD
ATOM     18  H   UNL     1      37.655 -23.397 -13.412  0.00  0.00    +0.144 HD
ENDBRANCH  13  16
ENDBRANCH   8  13
ENDBRANCH   3   7
BRANCH   2  19
ATOM     19  S   UNL     1      35.018 -18.406 -22.663  0.00  0.00    +0.077 S 
ATOM     20  O   UNL     1      34.372 -18.763 -23.919  0.00  0.00    -0.150 OA
ATOM     21  O   UNL     1      36.469 -18.472 -22.557  0.00  0.00    -0.150 OA
BRANCH  19  22
ATOM     22  C   UNL     1      34.530 -16.791 -22.213  0.00  0.00    +0.125 C 
ATOM     23  C   UNL     1      34.411 -16.448 -20.867  0.00  0.00    +0.020 C 
ATOM     24  C   UNL     1      34.261 -15.843 -23.201  0.00  0.00    +0.020 C 
ATOM     25  C   UNL     1      33.753 -14.209 -21.496  0.00  0.00    -0.022 C 
ATOM     26  C   UNL     1      34.022 -15.156 -20.508  0.00  0.00    -0.003 C 
ATOM     27  C   UNL     1      33.873 -14.553 -22.843  0.00  0.00    -0.003 C 
ATOM     28  C   UNL     1      33.337 -12.829 -21.113  0.00  0.00    +0.031 C 
ENDBRANCH  19  22
ENDBRANCH   2  19
TORSDOF 5
ENDMDL
MODEL 7
REMARK VINA RESULT:     -10.8      2.910      3.879
REMARK  Name = 6852128
REMARK  5 active torsions:
REMARK  status: ('A' for Active; 'I' for Inactive)
REMARK    1  A    between atoms: N_2  and  S_19
REMARK    2  A    between atoms: N_3  and  C_7
REMARK    3  A    between atoms: C_8  and  S_13
REMARK    4  A    between atoms: S_13  and  N_16
REMARK    5  A    between atoms: S_19  and  C_22
REMARK                            x       y       z     vdW  Elec       q    Type
REMARK                         _______ _______ _______ _____ _____    ______ ____
ROOT
ATOM      1  O   UNL     1      32.940 -12.735 -24.947  0.00  0.00    -0.251 OA
ATOM      2  N   UNL     1      33.165 -14.418 -23.360  0.00  0.00    -0.169 N 
ATOM      3  N   UNL     1      32.572 -12.267 -22.689  0.00  0.00    -0.267 N 
ATOM      4  C   UNL     1      32.886 -13.071 -23.771  0.00  0.00    +0.323 C 
ATOM      5  H   UNL     1      33.054 -14.632 -22.406  0.00  0.00    +0.178 HD
ATOM      6  H   UNL     1      32.578 -12.706 -21.808  0.00  0.00    +0.156 HD
ENDROOT
BRANCH   3   7
ATOM      7  C   UNL     1      32.244 -10.891 -22.695  0.00  0.00    +0.052 C 
ATOM      8  C   UNL     1      31.602  -8.195 -22.707  0.00  0.00    +0.122 C 
ATOM      9  C   UNL     1      32.801  -8.630 -23.274  0.00  0.00    +0.021 C 
ATOM     10  C   UNL     1      30.728  -9.118 -22.135  0.00  0.00    +0.021 C 
ATOM     11  C   UNL     1      33.124  -9.987 -23.268  0.00  0.00    +0.016 C 
ATOM     12  C   UNL     1      31.051 -10.475 -22.129  0.00  0.00    +0.016 C 
BRANCH   8  13
ATOM     13  S   UNL     1      31.198  -6.497 -22.715  0.00  0.00    +0.057 S 
ATOM     14  O   UNL     1      30.349  -6.232 -23.869  0.00  0.00    -0.153 OA
ATOM     15  O   UNL     1      30.745  -6.123 -21.383  0.00  0.00    -0.153 OA
BRANCH  13  16
ATOM     16  N   UNL     1      32.734  -5.799 -22.989  0.00  0.00    -0.203 NA
ATOM     17  H   UNL     1      33.460  -6.489 -22.800  0.00  0.00    +0.144 HD
ATOM     18  H   UNL     1      32.857  -4.997 -22.372  0.00  0.00    +0.144 HD
ENDBRANCH  13  16
ENDBRANCH   8  13
ENDBRANCH   3   7
BRANCH   2  19
ATOM     19  S   UNL     1      33.672 -15.683 -24.399  0.00  0.00    +0.077 S 
ATOM     20  O   UNL     1      34.836 -15.235 -25.152  0.00  0.00    -0.150 OA
ATOM     21  O   UNL     1      32.510 -16.197 -25.111  0.00  0.00    -0.150 OA
BRANCH  19  22
ATOM     22  C   UNL     1      34.172 -16.904 -23.255  0.00  0.00    +0.125 C 
ATOM     23  C   UNL     1      33.930 -18.251 -23.522  0.00  0.00    +0.020 C 
ATOM     24  C   UNL     1      34.814 -16.532 -22.074  0.00  0.00    +0.020 C 
ATOM     25  C   UNL     1      34.973 -18.855 -21.428  0.00  0.00    -0.022 C 
ATOM     26  C   UNL     1      34.330 -19.227 -22.609  0.00  0.00    -0.003 C 
ATOM     27  C   UNL     1      35.215 -17.507 -21.161  0.00  0.00    -0.003 C 
ATOM     28  C   UNL     1      35.401 -19.897 -20.451  0.00  0.00    +0.031 C 
ENDBRANCH  19  22
ENDBRANCH   2  19
TORSDOF 5
ENDMDL
MODEL 8
REMARK VINA RESULT:     -10.6      5.653      8.846
REMARK  Name = 6852128
REMARK  5 active torsions:
REMARK  status: ('A' for Active; 'I' for Inactive)
REMARK    1  A    between atoms: N_2  and  S_19
REMARK    2  A    between atoms: N_3  and  C_7
REMARK    3  A    between atoms: C_8  and  S_13
REMARK    4  A    between atoms: S_13  and  N_16
REMARK    5  A    between atoms: S_19  and  C_22
REMARK                            x       y       z     vdW  Elec       q    Type
REMARK                         _______ _______ _______ _____ _____    ______ ____
ROOT
ATOM      1  O   UNL     1      35.178 -21.622 -15.948  0.00  0.00    -0.251 OA
ATOM      2  N   UNL     1      33.862 -23.537 -15.877  0.00  0.00    -0.169 N 
ATOM      3  N   UNL     1      34.005 -22.304 -17.848  0.00  0.00    -0.267 N 
ATOM      4  C   UNL     1      34.426 -22.391 -16.533  0.00  0.00    +0.323 C 
ATOM      5  H   UNL     1      33.306 -24.142 -16.419  0.00  0.00    +0.178 HD
ATOM      6  H   UNL     1      33.395 -23.013 -18.155  0.00  0.00    +0.156 HD
ENDROOT
BRANCH   3   7
ATOM      7  C   UNL     1      34.343 -21.319 -18.806  0.00  0.00    +0.052 C 
ATOM      8  C   UNL     1      35.003 -19.390 -20.682  0.00  0.00    +0.122 C 
ATOM      9  C   UNL     1      33.668 -19.741 -20.483  0.00  0.00    +0.021 C 
ATOM     10  C   UNL     1      36.005 -20.009 -19.937  0.00  0.00    +0.021 C 
ATOM     11  C   UNL     1      33.335 -20.712 -19.538  0.00  0.00    +0.016 C 
ATOM     12  C   UNL     1      35.673 -20.981 -18.992  0.00  0.00    +0.016 C 
BRANCH   8  13
ATOM     13  S   UNL     1      35.419 -18.174 -21.863  0.00  0.00    +0.057 S 
ATOM     14  O   UNL     1      34.988 -18.639 -23.174  0.00  0.00    -0.153 OA
ATOM     15  O   UNL     1      34.971 -16.879 -21.372  0.00  0.00    -0.153 OA
BRANCH  13  16
ATOM     16  N   UNL     1      37.127 -18.226 -21.796  0.00  0.00    -0.203 NA
ATOM     17  H   UNL     1      37.430 -19.177 -21.588  0.00  0.00    +0.144 HD
ATOM     18  H   UNL     1      37.457 -17.597 -21.065  0.00  0.00    +0.144 HD
ENDBRANCH  13  16
ENDBRANCH   8  13
ENDBRANCH   3   7
BRANCH   2  19
ATOM     19  S   UNL     1      34.080 -23.936 -14.224  0.00  0.00    +0.077 S 
ATOM     20  O   UNL     1      33.222 -25.067 -13.896  0.00  0.00    -0.150 OA
ATOM     21  O   UNL     1      33.994 -22.716 -13.434  0.00  0.00    -0.150 OA
BRANCH  19  22
ATOM     22  C   UNL     1      35.745 -24.462 -14.202  0.00  0.00    +0.125 C 
ATOM     23  C   UNL     1      36.094 -25.695 -14.752  0.00  0.00    +0.020 C 
ATOM     24  C   UNL     1      36.726 -23.648 -13.635  0.00  0.00    +0.020 C 
ATOM     25  C   UNL     1      38.406 -25.301 -14.169  0.00  0.00    -0.022 C 
ATOM     26  C   UNL     1      37.425 -26.115 -14.735  0.00  0.00    -0.003 C 
ATOM     27  C   UNL     1      38.056 -24.067 -13.618  0.00  0.00    -0.003 C 
ATOM     28  C   UNL     1      39.828 -25.749 -14.150  0.00  0.00    +0.031 C 
ENDBRANCH  19  22
ENDBRANCH   2  19
TORSDOF 5
ENDMDL
MODEL 9
REMARK VINA RESULT:     -10.3      3.670      9.218
REMARK  Name = 6852128
REMARK  5 active torsions:
REMARK  status: ('A' for Active; 'I' for Inactive)
REMARK    1  A    between atoms: N_2  and  S_19
REMARK    2  A    between atoms: N_3  and  C_7
REMARK    3  A    between atoms: C_8  and  S_13
REMARK    4  A    between atoms: S_13  and  N_16
REMARK    5  A    between atoms: S_19  and  C_22
REMARK                            x       y       z     vdW  Elec       q    Type
REMARK                         _______ _______ _______ _____ _____    ______ ____
ROOT
ATOM      1  O   UNL     1      33.014 -18.532 -23.191  0.00  0.00    -0.251 OA
ATOM      2  N   UNL     1      34.491 -16.738 -23.169  0.00  0.00    -0.169 N 
ATOM      3  N   UNL     1      34.537 -18.295 -21.437  0.00  0.00    -0.267 N 
ATOM      4  C   UNL     1      33.925 -17.940 -22.627  0.00  0.00    +0.323 C 
ATOM      5  H   UNL     1      35.255 -16.340 -22.691  0.00  0.00    +0.178 HD
ATOM      6  H   UNL     1      35.257 -17.700 -21.126  0.00  0.00    +0.156 HD
ENDROOT
BRANCH   3   7
ATOM      7  C   UNL     1      34.254 -19.409 -20.612  0.00  0.00    +0.052 C 
ATOM      8  C   UNL     1      33.701 -21.590 -18.996  0.00  0.00    +0.122 C 
ATOM      9  C   UNL     1      35.024 -21.242 -19.269  0.00  0.00    +0.021 C 
ATOM     10  C   UNL     1      32.657 -20.840 -19.535  0.00  0.00    +0.021 C 
ATOM     11  C   UNL     1      35.302 -20.144 -20.083  0.00  0.00    +0.016 C 
ATOM     12  C   UNL     1      32.935 -19.742 -20.350  0.00  0.00    +0.016 C 
BRANCH   8  13
ATOM     13  S   UNL     1      33.353 -22.964 -17.977  0.00  0.00    +0.057 S 
ATOM     14  O   UNL     1      33.223 -24.143 -18.822  0.00  0.00    -0.153 OA
ATOM     15  O   UNL     1      34.297 -22.970 -16.868  0.00  0.00    -0.153 OA
BRANCH  13  16
ATOM     16  N   UNL     1      31.807 -22.543 -17.380  0.00  0.00    -0.203 NA
ATOM     17  H   UNL     1      31.784 -22.683 -16.370  0.00  0.00    +0.144 HD
ATOM     18  H   UNL     1      31.101 -23.131 -17.820  0.00  0.00    +0.144 HD
ENDBRANCH  13  16
ENDBRANCH   8  13
ENDBRANCH   3   7
BRANCH   2  19
ATOM     19  S   UNL     1      33.945 -15.939 -24.584  0.00  0.00    +0.077 S 
ATOM     20  O   UNL     1      32.791 -16.655 -25.111  0.00  0.00    -0.150 OA
ATOM     21  O   UNL     1      35.089 -15.684 -25.447  0.00  0.00    -0.150 OA
BRANCH  19  22
ATOM     22  C   UNL     1      33.415 -14.403 -23.943  0.00  0.00    +0.125 C 
ATOM     23  C   UNL     1      33.521 -14.143 -22.578  0.00  0.00    +0.020 C 
ATOM     24  C   UNL     1      32.887 -13.436 -24.799  0.00  0.00    +0.020 C 
ATOM     25  C   UNL     1      32.571 -11.948 -22.922  0.00  0.00    -0.022 C 
ATOM     26  C   UNL     1      33.099 -12.915 -22.067  0.00  0.00    -0.003 C 
ATOM     27  C   UNL     1      32.465 -12.209 -24.288  0.00  0.00    -0.003 C 
ATOM     28  C   UNL     1      32.119 -10.635 -22.376  0.00  0.00    +0.031 C 
ENDBRANCH  19  22
ENDBRANCH   2  19
TORSDOF 5
ENDMDL
