MODEL 1
REMARK VINA RESULT:     -10.9      0.000      0.000
REMARK  Name = 5287512
REMARK  2 active torsions:
REMARK  status: ('A' for Active; 'I' for Inactive)
REMARK    1  A    between atoms: C_3  and  C_10
REMARK    2  A    between atoms: C_5  and  C_19
REMARK                            x       y       z     vdW  Elec       q    Type
REMARK                         _______ _______ _______ _____ _____    ______ ____
ROOT
ATOM      1  N   UNL     1      32.277 -21.757 -18.863  0.00  0.00    -0.228 NA
ATOM      2  N   UNL     1      31.531 -22.096 -17.739  0.00  0.00    -0.277 N 
ATOM      3  C   UNL     1      33.601 -22.480 -17.008  0.00  0.00    +0.041 C 
ATOM      4  C   UNL     1      33.676 -22.041 -18.449  0.00  0.00    +0.118 C 
ATOM      5  C   UNL     1      32.298 -22.511 -16.681  0.00  0.00    +0.084 C 
ATOM      6  H   UNL     1      32.158 -20.771 -19.097  0.00  0.00    +0.145 HD
ATOM      7  H   UNL     1      30.548 -22.042 -17.706  0.00  0.00    +0.166 HD
ENDROOT
BRANCH   3  10
ATOM      8  N   UNL     1      34.860 -24.037 -15.702  0.00  0.00    -0.405 NA
ATOM      9  N   UNL     1      38.093 -23.803 -14.018  0.00  0.00    -0.242 NA
ATOM     10  C   UNL     1      34.800 -22.794 -16.225  0.00  0.00    +0.130 C 
ATOM     11  C   UNL     1      35.787 -21.847 -16.056  0.00  0.00    +0.033 C 
ATOM     12  C   UNL     1      35.946 -24.367 -14.976  0.00  0.00    +0.131 C 
ATOM     13  C   UNL     1      37.008 -23.474 -14.745  0.00  0.00    +0.107 C 
ATOM     14  C   UNL     1      36.898 -22.207 -15.304  0.00  0.00    +0.024 C 
ATOM     15  C   UNL     1      36.056 -25.634 -14.417  0.00  0.00    +0.088 C 
ATOM     16  C   UNL     1      37.168 -25.993 -13.665  0.00  0.00    +0.002 C 
ATOM     17  C   UNL     1      38.154 -25.046 -13.496  0.00  0.00    +0.095 C 
ENDBRANCH   3  10
BRANCH   5  19
ATOM     18  N   UNL     1      30.626 -23.796 -15.541  0.00  0.00    -0.409 NA
ATOM     19  C   UNL     1      31.660 -22.924 -15.430  0.00  0.00    +0.127 C 
ATOM     20  C   UNL     1      32.114 -22.430 -14.211  0.00  0.00    +0.086 C 
ATOM     21  C   UNL     1      30.030 -24.184 -14.390  0.00  0.00    +0.109 C 
ATOM     22  C   UNL     1      31.475 -22.852 -13.050  0.00  0.00    -0.016 C 
ATOM     23  C   UNL     1      30.412 -23.745 -13.133  0.00  0.00    +0.023 C 
ATOM     24  C   UNL     1      28.895 -25.143 -14.516  0.00  0.00    +0.066 C 
ENDBRANCH   5  19
TORSDOF 2
ENDMDL
MODEL 2
REMARK VINA RESULT:     -10.6      1.543      4.343
REMARK  Name = 5287512
REMARK  2 active torsions:
REMARK  status: ('A' for Active; 'I' for Inactive)
REMARK    1  A    between atoms: C_3  and  C_10
REMARK    2  A    between atoms: C_5  and  C_19
REMARK                            x       y       z     vdW  Elec       q    Type
REMARK                         _______ _______ _______ _____ _____    ______ ____
ROOT
ATOM      1  N   UNL     1      30.754 -22.737 -16.713  0.00  0.00    -0.228 NA
ATOM      2  N   UNL     1      31.519 -22.125 -17.702  0.00  0.00    -0.277 N 
ATOM      3  C   UNL     1      33.103 -22.750 -16.264  0.00  0.00    +0.041 C 
ATOM      4  C   UNL     1      31.761 -23.135 -15.694  0.00  0.00    +0.118 C 
ATOM      5  C   UNL     1      32.864 -22.136 -17.435  0.00  0.00    +0.084 C 
ATOM      6  H   UNL     1      30.265 -23.552 -17.082  0.00  0.00    +0.145 HD
ATOM      7  H   UNL     1      31.133 -21.725 -18.514  0.00  0.00    +0.166 HD
ENDROOT
BRANCH   3  10
ATOM      8  N   UNL     1      34.723 -24.339 -15.512  0.00  0.00    -0.405 NA
ATOM      9  N   UNL     1      37.844 -23.990 -13.646  0.00  0.00    -0.242 NA
ATOM     10  C   UNL     1      34.359 -23.041 -15.565  0.00  0.00    +0.130 C 
ATOM     11  C   UNL     1      35.097 -22.018 -15.010  0.00  0.00    +0.033 C 
ATOM     12  C   UNL     1      35.872 -24.649 -14.879  0.00  0.00    +0.131 C 
ATOM     13  C   UNL     1      36.696 -23.681 -14.279  0.00  0.00    +0.107 C 
ATOM     14  C   UNL     1      36.277 -22.359 -14.362  0.00  0.00    +0.024 C 
ATOM     15  C   UNL     1      36.291 -25.971 -14.797  0.00  0.00    +0.088 C 
ATOM     16  C   UNL     1      37.472 -26.311 -14.149  0.00  0.00    +0.002 C 
ATOM     17  C   UNL     1      38.209 -25.288 -13.592  0.00  0.00    +0.095 C 
ENDBRANCH   3  10
BRANCH   5  19
ATOM     18  N   UNL     1      33.256 -20.769 -19.365  0.00  0.00    -0.409 NA
ATOM     19  C   UNL     1      33.802 -21.512 -18.370  0.00  0.00    +0.127 C 
ATOM     20  C   UNL     1      35.174 -21.691 -18.216  0.00  0.00    +0.086 C 
ATOM     21  C   UNL     1      34.115 -20.189 -20.234  0.00  0.00    +0.109 C 
ATOM     22  C   UNL     1      36.024 -21.078 -19.129  0.00  0.00    -0.016 C 
ATOM     23  C   UNL     1      35.493 -20.311 -20.160  0.00  0.00    +0.023 C 
ATOM     24  C   UNL     1      33.511 -19.373 -21.327  0.00  0.00    +0.066 C 
ENDBRANCH   5  19
TORSDOF 2
ENDMDL
MODEL 3
REMARK VINA RESULT:     -10.5      1.886      5.815
REMARK  Name = 5287512
REMARK  2 active torsions:
REMARK  status: ('A' for Active; 'I' for Inactive)
REMARK    1  A    between atoms: C_3  and  C_10
REMARK    2  A    between atoms: C_5  and  C_19
REMARK                            x       y       z     vdW  Elec       q    Type
REMARK                         _______ _______ _______ _____ _____    ______ ____
ROOT
ATOM      1  N   UNL     1      31.671 -24.160 -13.887  0.00  0.00    -0.228 NA
ATOM      2  N   UNL     1      32.920 -24.660 -13.532  0.00  0.00    -0.277 N 
ATOM      3  C   UNL     1      33.457 -23.364 -15.264  0.00  0.00    +0.041 C 
ATOM      4  C   UNL     1      31.961 -23.318 -15.078  0.00  0.00    +0.118 C 
ATOM      5  C   UNL     1      33.938 -24.200 -14.328  0.00  0.00    +0.084 C 
ATOM      6  H   UNL     1      31.274 -23.601 -13.132  0.00  0.00    +0.145 HD
ATOM      7  H   UNL     1      33.060 -25.283 -12.782  0.00  0.00    +0.166 HD
ENDROOT
BRANCH   3  10
ATOM      8  N   UNL     1      33.370 -22.212 -17.357  0.00  0.00    -0.405 NA
ATOM      9  N   UNL     1      35.906 -20.458 -19.318  0.00  0.00    -0.242 NA
ATOM     10  C   UNL     1      34.136 -22.600 -16.315  0.00  0.00    +0.130 C 
ATOM     11  C   UNL     1      35.480 -22.315 -16.208  0.00  0.00    +0.033 C 
ATOM     12  C   UNL     1      33.956 -21.506 -18.344  0.00  0.00    +0.131 C 
ATOM     13  C   UNL     1      35.320 -21.163 -18.330  0.00  0.00    +0.107 C 
ATOM     14  C   UNL     1      36.064 -21.587 -17.237  0.00  0.00    +0.024 C 
ATOM     15  C   UNL     1      33.211 -21.082 -19.437  0.00  0.00    +0.088 C 
ATOM     16  C   UNL     1      33.796 -20.353 -20.466  0.00  0.00    +0.002 C 
ATOM     17  C   UNL     1      35.140 -20.069 -20.359  0.00  0.00    +0.095 C 
ENDBRANCH   3  10
BRANCH   5  19
ATOM     18  N   UNL     1      35.996 -24.015 -13.114  0.00  0.00    -0.409 NA
ATOM     19  C   UNL     1      35.311 -24.651 -14.097  0.00  0.00    +0.127 C 
ATOM     20  C   UNL     1      35.852 -25.680 -14.861  0.00  0.00    +0.086 C 
ATOM     21  C   UNL     1      37.266 -24.425 -12.893  0.00  0.00    +0.109 C 
ATOM     22  C   UNL     1      37.161 -26.074 -14.604  0.00  0.00    -0.016 C 
ATOM     23  C   UNL     1      37.888 -25.439 -13.603  0.00  0.00    +0.023 C 
ATOM     24  C   UNL     1      38.017 -23.723 -11.812  0.00  0.00    +0.066 C 
ENDBRANCH   5  19
TORSDOF 2
ENDMDL
MODEL 4
REMARK VINA RESULT:     -10.4      6.863      9.712
REMARK  Name = 5287512
REMARK  2 active torsions:
REMARK  status: ('A' for Active; 'I' for Inactive)
REMARK    1  A    between atoms: C_3  and  C_10
REMARK    2  A    between atoms: C_5  and  C_19
REMARK                            x       y       z     vdW  Elec       q    Type
REMARK                         _______ _______ _______ _____ _____    ______ ____
ROOT
ATOM      1  N   UNL     1      32.770 -17.313 -25.522  0.00  0.00    -0.228 NA
ATOM      2  N   UNL     1      32.864 -16.131 -24.794  0.00  0.00    -0.277 N 
ATOM      3  C   UNL     1      33.834 -17.570 -23.396  0.00  0.00    +0.041 C 
ATOM      4  C   UNL     1      33.364 -18.328 -24.611  0.00  0.00    +0.118 C 
ATOM      5  C   UNL     1      33.474 -16.288 -23.575  0.00  0.00    +0.084 C 
ATOM      6  H   UNL     1      33.299 -17.248 -26.392  0.00  0.00    +0.145 HD
ATOM      7  H   UNL     1      32.526 -15.266 -25.121  0.00  0.00    +0.166 HD
ENDROOT
BRANCH   3  10
ATOM      8  N   UNL     1      33.827 -19.152 -21.604  0.00  0.00    -0.405 NA
ATOM      9  N   UNL     1      36.369 -20.145 -19.175  0.00  0.00    -0.242 NA
ATOM     10  C   UNL     1      34.534 -18.229 -22.289  0.00  0.00    +0.130 C 
ATOM     11  C   UNL     1      35.839 -17.897 -21.997  0.00  0.00    +0.033 C 
ATOM     12  C   UNL     1      34.434 -19.782 -20.579  0.00  0.00    +0.131 C 
ATOM     13  C   UNL     1      35.762 -19.516 -20.200  0.00  0.00    +0.107 C 
ATOM     14  C   UNL     1      36.446 -18.557 -20.936  0.00  0.00    +0.024 C 
ATOM     15  C   UNL     1      33.750 -20.741 -19.843  0.00  0.00    +0.088 C 
ATOM     16  C   UNL     1      34.358 -21.402 -18.782  0.00  0.00    +0.002 C 
ATOM     17  C   UNL     1      35.663 -21.068 -18.490  0.00  0.00    +0.095 C 
ENDBRANCH   3  10
BRANCH   5  19
ATOM     18  N   UNL     1      33.460 -13.915 -23.237  0.00  0.00    -0.409 NA
ATOM     19  C   UNL     1      33.629 -15.140 -22.680  0.00  0.00    +0.127 C 
ATOM     20  C   UNL     1      33.933 -15.332 -21.335  0.00  0.00    +0.086 C 
ATOM     21  C   UNL     1      33.603 -12.848 -22.417  0.00  0.00    +0.109 C 
ATOM     22  C   UNL     1      34.071 -14.212 -20.525  0.00  0.00    -0.016 C 
ATOM     23  C   UNL     1      33.904 -12.942 -21.068  0.00  0.00    +0.023 C 
ATOM     24  C   UNL     1      33.416 -11.503 -23.032  0.00  0.00    +0.066 C 
ENDBRANCH   5  19
TORSDOF 2
ENDMDL
MODEL 5
REMARK VINA RESULT:     -10.2      1.798      4.435
REMARK  Name = 5287512
REMARK  2 active torsions:
REMARK  status: ('A' for Active; 'I' for Inactive)
REMARK    1  A    between atoms: C_3  and  C_10
REMARK    2  A    between atoms: C_5  and  C_19
REMARK                            x       y       z     vdW  Elec       q    Type
REMARK                         _______ _______ _______ _____ _____    ______ ____
ROOT
ATOM      1  N   UNL     1      35.486 -24.805 -12.189  0.00  0.00    -0.228 NA
ATOM      2  N   UNL     1      34.125 -24.585 -12.375  0.00  0.00    -0.277 N 
ATOM      3  C   UNL     1      34.974 -23.531 -14.147  0.00  0.00    +0.041 C 
ATOM      4  C   UNL     1      36.113 -24.078 -13.324  0.00  0.00    +0.118 C 
ATOM      5  C   UNL     1      33.840 -23.852 -13.499  0.00  0.00    +0.084 C 
ATOM      6  H   UNL     1      35.704 -25.801 -12.227  0.00  0.00    +0.145 HD
ATOM      7  H   UNL     1      33.433 -24.922 -11.761  0.00  0.00    +0.166 HD
ENDROOT
BRANCH   3  10
ATOM      8  N   UNL     1      34.159 -22.765 -16.260  0.00  0.00    -0.405 NA
ATOM      9  N   UNL     1      35.682 -20.777 -18.920  0.00  0.00    -0.242 NA
ATOM     10  C   UNL     1      35.196 -22.796 -15.395  0.00  0.00    +0.130 C 
ATOM     11  C   UNL     1      36.408 -22.185 -15.635  0.00  0.00    +0.033 C 
ATOM     12  C   UNL     1      34.322 -22.099 -17.420  0.00  0.00    +0.131 C 
ATOM     13  C   UNL     1      35.518 -21.442 -17.760  0.00  0.00    +0.107 C 
ATOM     14  C   UNL     1      36.555 -21.504 -16.837  0.00  0.00    +0.024 C 
ATOM     15  C   UNL     1      33.286 -22.037 -18.342  0.00  0.00    +0.088 C 
ATOM     16  C   UNL     1      33.433 -21.355 -19.544  0.00  0.00    +0.002 C 
ATOM     17  C   UNL     1      34.646 -20.745 -19.784  0.00  0.00    +0.095 C 
ENDBRANCH   3  10
BRANCH   5  19
ATOM     18  N   UNL     1      31.608 -24.561 -14.006  0.00  0.00    -0.409 NA
ATOM     19  C   UNL     1      32.453 -23.516 -13.824  0.00  0.00    +0.127 C 
ATOM     20  C   UNL     1      32.057 -22.187 -13.932  0.00  0.00    +0.086 C 
ATOM     21  C   UNL     1      30.324 -24.261 -14.307  0.00  0.00    +0.109 C 
ATOM     22  C   UNL     1      30.729 -21.918 -14.242  0.00  0.00    -0.016 C 
ATOM     23  C   UNL     1      29.839 -22.969 -14.435  0.00  0.00    +0.023 C 
ATOM     24  C   UNL     1      29.397 -25.412 -14.507  0.00  0.00    +0.066 C 
ENDBRANCH   5  19
TORSDOF 2
ENDMDL
MODEL 6
REMARK VINA RESULT:      -9.9      2.029      5.728
REMARK  Name = 5287512
REMARK  2 active torsions:
REMARK  status: ('A' for Active; 'I' for Inactive)
REMARK    1  A    between atoms: C_3  and  C_10
REMARK    2  A    between atoms: C_5  and  C_19
REMARK                            x       y       z     vdW  Elec       q    Type
REMARK                         _______ _______ _______ _____ _____    ______ ____
ROOT
ATOM      1  N   UNL     1      30.804 -23.586 -15.296  0.00  0.00    -0.228 NA
ATOM      2  N   UNL     1      32.006 -23.890 -14.666  0.00  0.00    -0.277 N 
ATOM      3  C   UNL     1      32.731 -22.753 -16.441  0.00  0.00    +0.041 C 
ATOM      4  C   UNL     1      31.230 -22.862 -16.523  0.00  0.00    +0.118 C 
ATOM      5  C   UNL     1      33.106 -23.410 -15.330  0.00  0.00    +0.084 C 
ATOM      6  H   UNL     1      30.221 -22.992 -14.705  0.00  0.00    +0.145 HD
ATOM      7  H   UNL     1      32.063 -24.399 -13.825  0.00  0.00    +0.166 HD
ENDROOT
BRANCH   3  10
ATOM      8  N   UNL     1      32.816 -21.418 -18.422  0.00  0.00    -0.405 NA
ATOM      9  N   UNL     1      35.593 -20.022 -20.343  0.00  0.00    -0.242 NA
ATOM     10  C   UNL     1      33.518 -22.043 -17.453  0.00  0.00    +0.130 C 
ATOM     11  C   UNL     1      34.895 -22.037 -17.384  0.00  0.00    +0.033 C 
ATOM     12  C   UNL     1      33.502 -20.753 -19.372  0.00  0.00    +0.131 C 
ATOM     13  C   UNL     1      34.906 -20.686 -19.392  0.00  0.00    +0.107 C 
ATOM     14  C   UNL     1      35.583 -21.346 -18.374  0.00  0.00    +0.024 C 
ATOM     15  C   UNL     1      32.826 -20.093 -20.390  0.00  0.00    +0.088 C 
ATOM     16  C   UNL     1      33.514 -19.401 -21.379  0.00  0.00    +0.002 C 
ATOM     17  C   UNL     1      34.891 -19.397 -21.311  0.00  0.00    +0.095 C 
ENDBRANCH   3  10
BRANCH   5  19
ATOM     18  N   UNL     1      34.973 -24.890 -15.065  0.00  0.00    -0.409 NA
ATOM     19  C   UNL     1      34.449 -23.666 -14.805  0.00  0.00    +0.127 C 
ATOM     20  C   UNL     1      35.122 -22.684 -14.084  0.00  0.00    +0.086 C 
ATOM     21  C   UNL     1      36.213 -25.136 -14.584  0.00  0.00    +0.109 C 
ATOM     22  C   UNL     1      36.395 -22.975 -13.607  0.00  0.00    -0.016 C 
ATOM     23  C   UNL     1      36.958 -24.221 -13.857  0.00  0.00    +0.023 C 
ATOM     24  C   UNL     1      36.787 -26.482 -14.871  0.00  0.00    +0.066 C 
ENDBRANCH   5  19
TORSDOF 2
ENDMDL
MODEL 7
REMARK VINA RESULT:      -9.8      1.565      4.247
REMARK  Name = 5287512
REMARK  2 active torsions:
REMARK  status: ('A' for Active; 'I' for Inactive)
REMARK    1  A    between atoms: C_3  and  C_10
REMARK    2  A    between atoms: C_5  and  C_19
REMARK                            x       y       z     vdW  Elec       q    Type
REMARK                         _______ _______ _______ _____ _____    ______ ____
ROOT
ATOM      1  N   UNL     1      30.318 -23.340 -15.737  0.00  0.00    -0.228 NA
ATOM      2  N   UNL     1      31.223 -22.798 -16.645  0.00  0.00    -0.277 N 
ATOM      3  C   UNL     1      32.599 -23.491 -15.034  0.00  0.00    +0.041 C 
ATOM      4  C   UNL     1      31.181 -23.780 -14.609  0.00  0.00    +0.118 C 
ATOM      5  C   UNL     1      32.528 -22.887 -16.232  0.00  0.00    +0.084 C 
ATOM      6  H   UNL     1      29.820 -24.131 -16.146  0.00  0.00    +0.145 HD
ATOM      7  H   UNL     1      30.953 -22.391 -17.499  0.00  0.00    +0.166 HD
ENDROOT
BRANCH   3  10
ATOM      8  N   UNL     1      34.752 -24.506 -14.816  0.00  0.00    -0.405 NA
ATOM      9  N   UNL     1      37.026 -24.891 -11.983  0.00  0.00    -0.242 NA
ATOM     10  C   UNL     1      33.751 -23.845 -14.198  0.00  0.00    +0.130 C 
ATOM     11  C   UNL     1      33.771 -23.503 -12.864  0.00  0.00    +0.033 C 
ATOM     12  C   UNL     1      35.830 -24.849 -14.084  0.00  0.00    +0.131 C 
ATOM     13  C   UNL     1      35.949 -24.547 -12.715  0.00  0.00    +0.107 C 
ATOM     14  C   UNL     1      34.891 -23.867 -12.127  0.00  0.00    +0.024 C 
ATOM     15  C   UNL     1      36.888 -25.530 -14.673  0.00  0.00    +0.088 C 
ATOM     16  C   UNL     1      38.009 -25.892 -13.935  0.00  0.00    +0.002 C 
ATOM     17  C   UNL     1      38.028 -25.552 -12.600  0.00  0.00    +0.095 C 
ENDBRANCH   3  10
BRANCH   5  19
ATOM     18  N   UNL     1      34.793 -22.135 -16.456  0.00  0.00    -0.409 NA
ATOM     19  C   UNL     1      33.600 -22.342 -17.067  0.00  0.00    +0.127 C 
ATOM     20  C   UNL     1      33.372 -22.063 -18.411  0.00  0.00    +0.086 C 
ATOM     21  C   UNL     1      35.789 -21.631 -17.219  0.00  0.00    +0.109 C 
ATOM     22  C   UNL     1      34.421 -21.546 -19.163  0.00  0.00    -0.016 C 
ATOM     23  C   UNL     1      35.656 -21.323 -18.564  0.00  0.00    +0.023 C 
ATOM     24  C   UNL     1      37.100 -21.405 -16.544  0.00  0.00    +0.066 C 
ENDBRANCH   5  19
TORSDOF 2
ENDMDL
MODEL 8
REMARK VINA RESULT:      -9.7      1.764      5.631
REMARK  Name = 5287512
REMARK  2 active torsions:
REMARK  status: ('A' for Active; 'I' for Inactive)
REMARK    1  A    between atoms: C_3  and  C_10
REMARK    2  A    between atoms: C_5  and  C_19
REMARK                            x       y       z     vdW  Elec       q    Type
REMARK                         _______ _______ _______ _____ _____    ______ ____
ROOT
ATOM      1  N   UNL     1      31.309 -24.558 -13.332  0.00  0.00    -0.228 NA
ATOM      2  N   UNL     1      32.686 -24.577 -13.133  0.00  0.00    -0.277 N 
ATOM      3  C   UNL     1      32.552 -23.506 -15.083  0.00  0.00    +0.041 C 
ATOM      4  C   UNL     1      31.159 -23.892 -14.653  0.00  0.00    +0.118 C 
ATOM      5  C   UNL     1      33.391 -23.973 -14.143  0.00  0.00    +0.084 C 
ATOM      6  H   UNL     1      30.841 -24.025 -12.598  0.00  0.00    +0.145 HD
ATOM      7  H   UNL     1      33.113 -24.983 -12.345  0.00  0.00    +0.166 HD
ENDROOT
BRANCH   3  10
ATOM      8  N   UNL     1      34.103 -22.515 -16.608  0.00  0.00    -0.405 NA
ATOM      9  N   UNL     1      33.663 -20.715 -19.757  0.00  0.00    -0.242 NA
ATOM     10  C   UNL     1      32.808 -22.768 -16.324  0.00  0.00    +0.130 C 
ATOM     11  C   UNL     1      31.759 -22.372 -17.125  0.00  0.00    +0.033 C 
ATOM     12  C   UNL     1      34.381 -21.839 -17.741  0.00  0.00    +0.131 C 
ATOM     13  C   UNL     1      33.385 -21.392 -18.626  0.00  0.00    +0.107 C 
ATOM     14  C   UNL     1      32.068 -21.676 -18.287  0.00  0.00    +0.024 C 
ATOM     15  C   UNL     1      35.698 -21.555 -18.079  0.00  0.00    +0.088 C 
ATOM     16  C   UNL     1      36.007 -20.859 -19.242  0.00  0.00    +0.002 C 
ATOM     17  C   UNL     1      34.958 -20.463 -20.043  0.00  0.00    +0.095 C 
ENDBRANCH   3  10
BRANCH   5  19
ATOM     18  N   UNL     1      35.500 -25.084 -14.392  0.00  0.00    -0.409 NA
ATOM     19  C   UNL     1      34.853 -23.930 -14.093  0.00  0.00    +0.127 C 
ATOM     20  C   UNL     1      35.511 -22.752 -13.752  0.00  0.00    +0.086 C 
ATOM     21  C   UNL     1      36.851 -25.054 -14.348  0.00  0.00    +0.109 C 
ATOM     22  C   UNL     1      36.901 -22.761 -13.718  0.00  0.00    -0.016 C 
ATOM     23  C   UNL     1      37.592 -23.929 -14.020  0.00  0.00    +0.023 C 
ATOM     24  C   UNL     1      37.560 -26.324 -14.679  0.00  0.00    +0.066 C 
ENDBRANCH   5  19
TORSDOF 2
ENDMDL
MODEL 9
REMARK VINA RESULT:      -9.6      2.790      5.992
REMARK  Name = 5287512
REMARK  2 active torsions:
REMARK  status: ('A' for Active; 'I' for Inactive)
REMARK    1  A    between atoms: C_3  and  C_10
REMARK    2  A    between atoms: C_5  and  C_19
REMARK                            x       y       z     vdW  Elec       q    Type
REMARK                         _______ _______ _______ _____ _____    ______ ____
ROOT
ATOM      1  N   UNL     1      37.282 -22.617 -15.575  0.00  0.00    -0.228 NA
ATOM      2  N   UNL     1      35.960 -22.910 -15.256  0.00  0.00    -0.277 N 
ATOM      3  C   UNL     1      35.698 -21.783 -17.161  0.00  0.00    +0.041 C 
ATOM      4  C   UNL     1      37.168 -21.818 -16.823  0.00  0.00    +0.118 C 
ATOM      5  C   UNL     1      35.058 -22.426 -16.169  0.00  0.00    +0.084 C 
ATOM      6  H   UNL     1      37.816 -23.471 -15.735  0.00  0.00    +0.145 HD
ATOM      7  H   UNL     1      35.696 -23.415 -14.453  0.00  0.00    +0.166 HD
ENDROOT
BRANCH   3  10
ATOM      8  N   UNL     1      36.038 -20.275 -18.984  0.00  0.00    -0.405 NA
ATOM      9  N   UNL     1      33.903 -19.236 -21.761  0.00  0.00    -0.242 NA
ATOM     10  C   UNL     1      35.192 -21.129 -18.371  0.00  0.00    +0.130 C 
ATOM     11  C   UNL     1      33.918 -21.398 -18.824  0.00  0.00    +0.033 C 
ATOM     12  C   UNL     1      35.611 -19.653 -20.101  0.00  0.00    +0.131 C 
ATOM     13  C   UNL     1      34.331 -19.858 -20.645  0.00  0.00    +0.107 C 
ATOM     14  C   UNL     1      33.497 -20.746 -19.976  0.00  0.00    +0.024 C 
ATOM     15  C   UNL     1      36.445 -18.766 -20.770  0.00  0.00    +0.088 C 
ATOM     16  C   UNL     1      36.024 -18.115 -21.923  0.00  0.00    +0.002 C 
ATOM     17  C   UNL     1      34.750 -18.383 -22.375  0.00  0.00    +0.095 C 
ENDBRANCH   3  10
BRANCH   5  19
ATOM     18  N   UNL     1      33.179 -22.540 -14.686  0.00  0.00    -0.409 NA
ATOM     19  C   UNL     1      33.624 -22.632 -15.964  0.00  0.00    +0.127 C 
ATOM     20  C   UNL     1      32.790 -22.906 -17.044  0.00  0.00    +0.086 C 
ATOM     21  C   UNL     1      31.855 -22.729 -14.486  0.00  0.00    +0.109 C 
ATOM     22  C   UNL     1      31.435 -23.094 -16.799  0.00  0.00    -0.016 C 
ATOM     23  C   UNL     1      30.950 -23.006 -15.499  0.00  0.00    +0.023 C 
ATOM     24  C   UNL     1      31.369 -22.626 -13.080  0.00  0.00    +0.066 C 
ENDBRANCH   5  19
TORSDOF 2
ENDMDL
