MODEL 1
REMARK VINA RESULT:     -13.7      0.000      0.000
REMARK  Name = 16040279
REMARK  5 active torsions:
REMARK  status: ('A' for Active; 'I' for Inactive)
REMARK    1  A    between atoms: N_2  and  C_21
REMARK    2  A    between atoms: C_3  and  C_11
REMARK    3  A    between atoms: C_4  and  N_17
REMARK    4  A    between atoms: C_21  and  C_22
REMARK    5  A    between atoms: C_22  and  C_25
REMARK                            x       y       z     vdW  Elec       q    Type
REMARK                         _______ _______ _______ _____ _____    ______ ____
ROOT
ATOM      1  O   UNL     1      34.596 -15.969 -20.240  0.00  0.00    -0.275 OA
ATOM      2  N   UNL     1      34.228 -16.237 -22.515  0.00  0.00    -0.281 N 
ATOM      3  C   UNL     1      33.525 -13.456 -22.689  0.00  0.00    +0.015 C 
ATOM      4  C   UNL     1      33.036 -14.425 -23.780  0.00  0.00    -0.041 C 
ATOM      5  C   UNL     1      33.977 -15.627 -23.820  0.00  0.00    +0.072 C 
ATOM      6  C   UNL     1      33.486 -14.184 -21.342  0.00  0.00    +0.088 C 
ATOM      7  C   UNL     1      34.185 -15.530 -21.317  0.00  0.00    +0.226 C 
ENDROOT
BRANCH   3  11
ATOM      8  F   UNL     1      34.186 -11.136 -24.185  0.00  0.00    -0.204 F 
ATOM      9  F   UNL     1      29.853 -10.799 -20.864  0.00  0.00    -0.202 F 
ATOM     10  F   UNL     1      30.603  -8.639 -22.363  0.00  0.00    -0.202 F 
ATOM     11  C   UNL     1      32.740 -12.157 -22.603  0.00  0.00    +0.006 C 
ATOM     12  C   UNL     1      33.125 -11.061 -23.368  0.00  0.00    +0.138 C 
ATOM     13  C   UNL     1      31.638 -12.074 -21.757  0.00  0.00    +0.030 C 
ATOM     14  C   UNL     1      30.914 -10.883 -21.676  0.00  0.00    +0.167 C 
ATOM     15  C   UNL     1      32.403  -9.870 -23.287  0.00  0.00    +0.061 C 
ATOM     16  C   UNL     1      31.297  -9.782 -22.441  0.00  0.00    +0.170 C 
ENDBRANCH   3  11
BRANCH   4  17
ATOM     17  N   UNL     1      33.028 -13.801 -25.106  0.00  0.00    +0.383 N 
ATOM     18  H   UNL     1      32.808 -12.809 -25.014  0.00  0.00    -0.089 HD
ATOM     19  H   UNL     1      32.323 -14.253 -25.690  0.00  0.00    -0.089 HD
ATOM     20  H   UNL     1      33.946 -13.907 -25.538  0.00  0.00    -0.089 HD
ENDBRANCH   4  17
BRANCH   2  21
ATOM     21  C   UNL     1      34.801 -17.577 -22.540  0.00  0.00    +0.098 C 
BRANCH  21  22
ATOM     22  C   UNL     1      33.744 -18.668 -22.381  0.00  0.00    +0.048 C 
BRANCH  22  25
ATOM     23  O   UNL     1      32.287 -21.645 -18.721  0.00  0.00    -0.435 OA
ATOM     24  O   UNL     1      34.545 -22.009 -17.963  0.00  0.00    -0.435 OA
ATOM     25  C   UNL     1      33.997 -19.563 -21.193  0.00  0.00    -0.017 C 
ATOM     26  C   UNL     1      32.919 -20.163 -20.557  0.00  0.00    +0.036 C 
ATOM     27  C   UNL     1      35.311 -19.764 -20.763  0.00  0.00    -0.001 C 
ATOM     28  C   UNL     1      33.199 -20.973 -19.475  0.00  0.00    +0.176 C 
ATOM     29  C   UNL     1      34.489 -21.180 -19.041  0.00  0.00    +0.176 C 
ATOM     30  C   UNL     1      35.568 -20.589 -19.665  0.00  0.00    +0.040 C 
ATOM     31  C   UNL     1      33.147 -22.299 -17.766  0.00  0.00    +0.429 C 
ENDBRANCH  22  25
ENDBRANCH  21  22
ENDBRANCH   2  21
TORSDOF 5
ENDMDL
MODEL 2
REMARK VINA RESULT:     -13.6      3.527      6.027
REMARK  Name = 16040279
REMARK  5 active torsions:
REMARK  status: ('A' for Active; 'I' for Inactive)
REMARK    1  A    between atoms: N_2  and  C_21
REMARK    2  A    between atoms: C_3  and  C_11
REMARK    3  A    between atoms: C_4  and  N_17
REMARK    4  A    between atoms: C_21  and  C_22
REMARK    5  A    between atoms: C_22  and  C_25
REMARK                            x       y       z     vdW  Elec       q    Type
REMARK                         _______ _______ _______ _____ _____    ______ ____
ROOT
ATOM      1  O   UNL     1      32.870 -20.635 -19.430  0.00  0.00    -0.275 OA
ATOM      2  N   UNL     1      35.161 -20.480 -19.769  0.00  0.00    -0.281 N 
ATOM      3  C   UNL     1      34.734 -18.072 -21.279  0.00  0.00    +0.015 C 
ATOM      4  C   UNL     1      36.033 -18.870 -21.487  0.00  0.00    -0.041 C 
ATOM      5  C   UNL     1      36.304 -19.694 -20.231  0.00  0.00    +0.072 C 
ATOM      6  C   UNL     1      33.588 -19.063 -21.057  0.00  0.00    +0.088 C 
ATOM      7  C   UNL     1      33.837 -20.108 -19.986  0.00  0.00    +0.226 C 
ENDROOT
BRANCH   3  11
ATOM      8  F   UNL     1      33.937 -18.952 -23.857  0.00  0.00    -0.204 F 
ATOM      9  F   UNL     1      34.212 -13.549 -23.053  0.00  0.00    -0.202 F 
ATOM     10  F   UNL     1      33.458 -14.536 -25.488  0.00  0.00    -0.202 F 
ATOM     11  C   UNL     1      34.390 -17.122 -22.415  0.00  0.00    +0.006 C 
ATOM     12  C   UNL     1      34.007 -17.629 -23.652  0.00  0.00    +0.138 C 
ATOM     13  C   UNL     1      34.461 -15.748 -22.207  0.00  0.00    +0.030 C 
ATOM     14  C   UNL     1      34.146 -14.872 -23.247  0.00  0.00    +0.167 C 
ATOM     15  C   UNL     1      33.692 -16.755 -24.693  0.00  0.00    +0.061 C 
ATOM     16  C   UNL     1      33.761 -15.376 -24.490  0.00  0.00    +0.170 C 
ENDBRANCH   3  11
BRANCH   4  17
ATOM     17  N   UNL     1      37.184 -17.995 -21.722  0.00  0.00    +0.383 N 
ATOM     18  H   UNL     1      37.342 -17.903 -22.725  0.00  0.00    -0.089 HD
ATOM     19  H   UNL     1      38.013 -18.398 -21.283  0.00  0.00    -0.089 HD
ATOM     20  H   UNL     1      37.001 -17.075 -21.320  0.00  0.00    -0.089 HD
ENDBRANCH   4  17
BRANCH   2  21
ATOM     21  C   UNL     1      35.463 -21.545 -18.822  0.00  0.00    +0.098 C 
BRANCH  21  22
ATOM     22  C   UNL     1      36.261 -21.050 -17.617  0.00  0.00    +0.048 C 
BRANCH  22  25
ATOM     23  O   UNL     1      38.160 -23.648 -13.873  0.00  0.00    -0.435 OA
ATOM     24  O   UNL     1      35.995 -24.438 -13.171  0.00  0.00    -0.435 OA
ATOM     25  C   UNL     1      36.152 -21.964 -16.422  0.00  0.00    -0.017 C 
ATOM     26  C   UNL     1      37.307 -22.335 -15.747  0.00  0.00    +0.036 C 
ATOM     27  C   UNL     1      34.890 -22.416 -16.027  0.00  0.00    -0.001 C 
ATOM     28  C   UNL     1      37.157 -23.173 -14.660  0.00  0.00    +0.176 C 
ATOM     29  C   UNL     1      35.920 -23.625 -14.260  0.00  0.00    +0.176 C 
ATOM     30  C   UNL     1      34.766 -23.263 -14.923  0.00  0.00    +0.040 C 
ATOM     31  C   UNL     1      37.416 -24.448 -12.932  0.00  0.00    +0.429 C 
ENDBRANCH  22  25
ENDBRANCH  21  22
ENDBRANCH   2  21
TORSDOF 5
ENDMDL
MODEL 3
REMARK VINA RESULT:     -13.4      0.761      1.569
REMARK  Name = 16040279
REMARK  5 active torsions:
REMARK  status: ('A' for Active; 'I' for Inactive)
REMARK    1  A    between atoms: N_2  and  C_21
REMARK    2  A    between atoms: C_3  and  C_11
REMARK    3  A    between atoms: C_4  and  N_17
REMARK    4  A    between atoms: C_21  and  C_22
REMARK    5  A    between atoms: C_22  and  C_25
REMARK                            x       y       z     vdW  Elec       q    Type
REMARK                         _______ _______ _______ _____ _____    ______ ____
ROOT
ATOM      1  O   UNL     1      34.748 -16.141 -20.185  0.00  0.00    -0.275 OA
ATOM      2  N   UNL     1      34.303 -16.353 -22.453  0.00  0.00    -0.281 N 
ATOM      3  C   UNL     1      33.571 -13.575 -22.528  0.00  0.00    +0.015 C 
ATOM      4  C   UNL     1      33.052 -14.520 -23.627  0.00  0.00    -0.041 C 
ATOM      5  C   UNL     1      34.001 -15.712 -23.731  0.00  0.00    +0.072 C 
ATOM      6  C   UNL     1      33.586 -14.338 -21.201  0.00  0.00    +0.088 C 
ATOM      7  C   UNL     1      34.296 -15.678 -21.235  0.00  0.00    +0.226 C 
ENDROOT
BRANCH   3  11
ATOM      8  F   UNL     1      31.373 -13.294 -20.755  0.00  0.00    -0.204 F 
ATOM      9  F   UNL     1      32.733  -8.915 -23.736  0.00  0.00    -0.202 F 
ATOM     10  F   UNL     1      30.636  -8.785 -21.988  0.00  0.00    -0.202 F 
ATOM     11  C   UNL     1      32.778 -12.286 -22.381  0.00  0.00    +0.006 C 
ATOM     12  C   UNL     1      31.712 -12.225 -21.489  0.00  0.00    +0.138 C 
ATOM     13  C   UNL     1      33.127 -11.174 -23.141  0.00  0.00    +0.030 C 
ATOM     14  C   UNL     1      32.402  -9.988 -23.008  0.00  0.00    +0.167 C 
ATOM     15  C   UNL     1      30.986 -11.041 -21.357  0.00  0.00    +0.061 C 
ATOM     16  C   UNL     1      31.332  -9.923 -22.116  0.00  0.00    +0.170 C 
ENDBRANCH   3  11
BRANCH   4  17
ATOM     17  N   UNL     1      32.993 -13.862 -24.935  0.00  0.00    +0.383 N 
ATOM     18  H   UNL     1      33.047 -12.851 -24.810  0.00  0.00    -0.089 HD
ATOM     19  H   UNL     1      32.113 -14.101 -25.396  0.00  0.00    -0.089 HD
ATOM     20  H   UNL     1      33.775 -14.176 -25.510  0.00  0.00    -0.089 HD
ENDBRANCH   4  17
BRANCH   2  21
ATOM     21  C   UNL     1      34.885 -17.686 -22.533  0.00  0.00    +0.098 C 
BRANCH  21  22
ATOM     22  C   UNL     1      33.838 -18.791 -22.409  0.00  0.00    +0.048 C 
BRANCH  22  25
ATOM     23  O   UNL     1      32.215 -21.641 -18.718  0.00  0.00    -0.435 OA
ATOM     24  O   UNL     1      34.442 -22.025 -17.881  0.00  0.00    -0.435 OA
ATOM     25  C   UNL     1      34.038 -19.658 -21.191  0.00  0.00    -0.017 C 
ATOM     26  C   UNL     1      32.930 -20.221 -20.572  0.00  0.00    +0.036 C 
ATOM     27  C   UNL     1      35.335 -19.872 -20.716  0.00  0.00    -0.001 C 
ATOM     28  C   UNL     1      33.163 -21.006 -19.460  0.00  0.00    +0.176 C 
ATOM     29  C   UNL     1      34.435 -21.225 -18.982  0.00  0.00    +0.176 C 
ATOM     30  C   UNL     1      35.543 -20.671 -19.589  0.00  0.00    +0.040 C 
ATOM     31  C   UNL     1      33.034 -22.285 -17.720  0.00  0.00    +0.429 C 
ENDBRANCH  22  25
ENDBRANCH  21  22
ENDBRANCH   2  21
TORSDOF 5
ENDMDL
MODEL 4
REMARK VINA RESULT:     -13.1      1.820      2.807
REMARK  Name = 16040279
REMARK  5 active torsions:
REMARK  status: ('A' for Active; 'I' for Inactive)
REMARK    1  A    between atoms: N_2  and  C_21
REMARK    2  A    between atoms: C_3  and  C_11
REMARK    3  A    between atoms: C_4  and  N_17
REMARK    4  A    between atoms: C_21  and  C_22
REMARK    5  A    between atoms: C_22  and  C_25
REMARK                            x       y       z     vdW  Elec       q    Type
REMARK                         _______ _______ _______ _____ _____    ______ ____
ROOT
ATOM      1  O   UNL     1      32.990 -14.873 -25.794  0.00  0.00    -0.275 OA
ATOM      2  N   UNL     1      33.991 -15.209 -23.727  0.00  0.00    -0.281 N 
ATOM      3  C   UNL     1      32.533 -12.957 -22.699  0.00  0.00    +0.015 C 
ATOM      4  C   UNL     1      33.814 -13.415 -21.980  0.00  0.00    -0.041 C 
ATOM      5  C   UNL     1      34.051 -14.889 -22.303  0.00  0.00    +0.072 C 
ATOM      6  C   UNL     1      32.737 -13.126 -24.207  0.00  0.00    +0.088 C 
ATOM      7  C   UNL     1      33.221 -14.496 -24.642  0.00  0.00    +0.226 C 
ENDROOT
BRANCH   3  11
ATOM      8  F   UNL     1      30.839 -12.274 -20.527  0.00  0.00    -0.204 F 
ATOM      9  F   UNL     1      32.617  -8.169 -23.673  0.00  0.00    -0.202 F 
ATOM     10  F   UNL     1      30.978  -7.655 -21.546  0.00  0.00    -0.202 F 
ATOM     11  C   UNL     1      32.113 -11.529 -22.386  0.00  0.00    +0.006 C 
ATOM     12  C   UNL     1      31.278 -11.273 -21.302  0.00  0.00    +0.138 C 
ATOM     13  C   UNL     1      32.566 -10.487 -23.189  0.00  0.00    +0.030 C 
ATOM     14  C   UNL     1      32.183  -9.176 -22.905  0.00  0.00    +0.167 C 
ATOM     15  C   UNL     1      30.894  -9.962 -21.018  0.00  0.00    +0.061 C 
ATOM     16  C   UNL     1      31.347  -8.914 -21.820  0.00  0.00    +0.170 C 
ENDBRANCH   3  11
BRANCH   4  17
ATOM     17  N   UNL     1      33.710 -13.273 -20.526  0.00  0.00    +0.383 N 
ATOM     18  H   UNL     1      33.244 -12.393 -20.303  0.00  0.00    -0.089 HD
ATOM     19  H   UNL     1      34.645 -13.276 -20.115  0.00  0.00    -0.089 HD
ATOM     20  H   UNL     1      33.169 -14.049 -20.145  0.00  0.00    -0.089 HD
ENDBRANCH   4  17
BRANCH   2  21
ATOM     21  C   UNL     1      34.566 -16.491 -24.116  0.00  0.00    +0.098 C 
BRANCH  21  22
ATOM     22  C   UNL     1      33.773 -17.677 -23.571  0.00  0.00    +0.048 C 
BRANCH  22  25
ATOM     23  O   UNL     1      33.906 -20.843 -19.785  0.00  0.00    -0.435 OA
ATOM     24  O   UNL     1      36.182 -20.273 -19.238  0.00  0.00    -0.435 OA
ATOM     25  C   UNL     1      34.453 -18.358 -22.410  0.00  0.00    -0.017 C 
ATOM     26  C   UNL     1      33.752 -19.304 -21.675  0.00  0.00    +0.036 C 
ATOM     27  C   UNL     1      35.773 -18.016 -22.103  0.00  0.00    -0.001 C 
ATOM     28  C   UNL     1      34.417 -19.899 -20.621  0.00  0.00    +0.176 C 
ATOM     29  C   UNL     1      35.717 -19.573 -20.308  0.00  0.00    +0.176 C 
ATOM     30  C   UNL     1      36.423 -18.634 -21.032  0.00  0.00    +0.040 C 
ATOM     31  C   UNL     1      35.030 -21.075 -18.912  0.00  0.00    +0.429 C 
ENDBRANCH  22  25
ENDBRANCH  21  22
ENDBRANCH   2  21
TORSDOF 5
ENDMDL
MODEL 5
REMARK VINA RESULT:     -12.7      4.460      7.290
REMARK  Name = 16040279
REMARK  5 active torsions:
REMARK  status: ('A' for Active; 'I' for Inactive)
REMARK    1  A    between atoms: N_2  and  C_21
REMARK    2  A    between atoms: C_3  and  C_11
REMARK    3  A    between atoms: C_4  and  N_17
REMARK    4  A    between atoms: C_21  and  C_22
REMARK    5  A    between atoms: C_22  and  C_25
REMARK                            x       y       z     vdW  Elec       q    Type
REMARK                         _______ _______ _______ _____ _____    ______ ____
ROOT
ATOM      1  O   UNL     1      31.885 -21.610 -18.679  0.00  0.00    -0.275 OA
ATOM      2  N   UNL     1      34.200 -21.548 -18.518  0.00  0.00    -0.281 N 
ATOM      3  C   UNL     1      34.224 -19.294 -20.302  0.00  0.00    +0.015 C 
ATOM      4  C   UNL     1      35.499 -20.142 -20.144  0.00  0.00    -0.041 C 
ATOM      5  C   UNL     1      35.451 -20.842 -18.788  0.00  0.00    +0.072 C 
ATOM      6  C   UNL     1      33.011 -20.228 -20.247  0.00  0.00    +0.088 C 
ATOM      7  C   UNL     1      32.973 -21.166 -19.056  0.00  0.00    +0.226 C 
ENDROOT
BRANCH   3  11
ATOM      8  F   UNL     1      34.948 -16.551 -20.377  0.00  0.00    -0.204 F 
ATOM      9  F   UNL     1      33.329 -18.822 -25.082  0.00  0.00    -0.202 F 
ATOM     10  F   UNL     1      34.055 -16.187 -25.010  0.00  0.00    -0.202 F 
ATOM     11  C   UNL     1      34.179 -18.455 -21.569  0.00  0.00    +0.006 C 
ATOM     12  C   UNL     1      34.550 -17.114 -21.526  0.00  0.00    +0.138 C 
ATOM     13  C   UNL     1      33.766 -19.035 -22.764  0.00  0.00    +0.030 C 
ATOM     14  C   UNL     1      33.724 -18.268 -23.929  0.00  0.00    +0.167 C 
ATOM     15  C   UNL     1      34.508 -16.346 -22.691  0.00  0.00    +0.061 C 
ATOM     16  C   UNL     1      34.095 -16.924 -23.892  0.00  0.00    +0.170 C 
ENDBRANCH   3  11
BRANCH   4  17
ATOM     17  N   UNL     1      36.713 -19.325 -20.199  0.00  0.00    +0.383 N 
ATOM     18  H   UNL     1      36.903 -19.064 -21.167  0.00  0.00    -0.089 HD
ATOM     19  H   UNL     1      37.500 -19.860 -19.830  0.00  0.00    -0.089 HD
ATOM     20  H   UNL     1      36.582 -18.482 -19.639  0.00  0.00    -0.089 HD
ENDBRANCH   4  17
BRANCH   2  21
ATOM     21  C   UNL     1      34.239 -22.520 -17.433  0.00  0.00    +0.098 C 
BRANCH  21  22
ATOM     22  C   UNL     1      35.001 -22.005 -16.213  0.00  0.00    +0.048 C 
BRANCH  22  25
ATOM     23  O   UNL     1      39.176 -23.918 -14.399  0.00  0.00    -0.435 OA
ATOM     24  O   UNL     1      38.069 -25.925 -13.655  0.00  0.00    -0.435 OA
ATOM     25  C   UNL     1      35.797 -23.082 -15.520  0.00  0.00    -0.017 C 
ATOM     26  C   UNL     1      37.159 -22.896 -15.322  0.00  0.00    +0.036 C 
ATOM     27  C   UNL     1      35.143 -24.242 -15.094  0.00  0.00    -0.001 C 
ATOM     28  C   UNL     1      37.845 -23.910 -14.683  0.00  0.00    +0.176 C 
ATOM     29  C   UNL     1      37.213 -25.056 -14.259  0.00  0.00    +0.176 C 
ATOM     30  C   UNL     1      35.860 -25.252 -14.449  0.00  0.00    +0.040 C 
ATOM     31  C   UNL     1      39.310 -25.197 -13.747  0.00  0.00    +0.429 C 
ENDBRANCH  22  25
ENDBRANCH  21  22
ENDBRANCH   2  21
TORSDOF 5
ENDMDL
MODEL 6
REMARK VINA RESULT:     -12.5      1.399      2.171
REMARK  Name = 16040279
REMARK  5 active torsions:
REMARK  status: ('A' for Active; 'I' for Inactive)
REMARK    1  A    between atoms: N_2  and  C_21
REMARK    2  A    between atoms: C_3  and  C_11
REMARK    3  A    between atoms: C_4  and  N_17
REMARK    4  A    between atoms: C_21  and  C_22
REMARK    5  A    between atoms: C_22  and  C_25
REMARK                            x       y       z     vdW  Elec       q    Type
REMARK                         _______ _______ _______ _____ _____    ______ ____
ROOT
ATOM      1  O   UNL     1      33.363 -16.076 -25.306  0.00  0.00    -0.275 OA
ATOM      2  N   UNL     1      34.242 -16.056 -23.159  0.00  0.00    -0.281 N 
ATOM      3  C   UNL     1      32.738 -13.670 -22.609  0.00  0.00    +0.015 C 
ATOM      4  C   UNL     1      33.973 -13.994 -21.750  0.00  0.00    -0.041 C 
ATOM      5  C   UNL     1      34.222 -15.500 -21.807  0.00  0.00    +0.072 C 
ATOM      6  C   UNL     1      33.027 -14.089 -24.052  0.00  0.00    +0.088 C 
ATOM      7  C   UNL     1      33.529 -15.510 -24.223  0.00  0.00    +0.226 C 
ENDROOT
BRANCH   3  11
ATOM      8  F   UNL     1      33.924 -11.647 -24.208  0.00  0.00    -0.204 F 
ATOM      9  F   UNL     1      29.898 -10.108 -20.841  0.00  0.00    -0.202 F 
ATOM     10  F   UNL     1      31.129  -8.263 -22.439  0.00  0.00    -0.202 F 
ATOM     11  C   UNL     1      32.307 -12.212 -22.565  0.00  0.00    +0.006 C 
ATOM     12  C   UNL     1      32.937 -11.277 -23.380  0.00  0.00    +0.138 C 
ATOM     13  C   UNL     1      31.282 -11.823 -21.707  0.00  0.00    +0.030 C 
ATOM     14  C   UNL     1      30.883 -10.487 -21.664  0.00  0.00    +0.167 C 
ATOM     15  C   UNL     1      32.539  -9.940 -23.338  0.00  0.00    +0.061 C 
ATOM     16  C   UNL     1      31.511  -9.546 -22.480  0.00  0.00    +0.170 C 
ENDBRANCH   3  11
BRANCH   4  17
ATOM     17  N   UNL     1      33.786 -13.610 -20.349  0.00  0.00    +0.383 N 
ATOM     18  H   UNL     1      32.984 -14.108 -19.964  0.00  0.00    -0.089 HD
ATOM     19  H   UNL     1      33.622 -12.604 -20.292  0.00  0.00    -0.089 HD
ATOM     20  H   UNL     1      34.623 -13.848 -19.816  0.00  0.00    -0.089 HD
ENDBRANCH   4  17
BRANCH   2  21
ATOM     21  C   UNL     1      34.832 -17.381 -23.292  0.00  0.00    +0.098 C 
BRANCH  21  22
ATOM     22  C   UNL     1      35.754 -17.732 -22.126  0.00  0.00    +0.048 C 
BRANCH  22  25
ATOM     23  O   UNL     1      36.081 -21.094 -18.525  0.00  0.00    -0.435 OA
ATOM     24  O   UNL     1      33.756 -21.697 -18.718  0.00  0.00    -0.435 OA
ATOM     25  C   UNL     1      35.182 -18.796 -21.223  0.00  0.00    -0.017 C 
ATOM     26  C   UNL     1      36.010 -19.412 -20.293  0.00  0.00    +0.036 C 
ATOM     27  C   UNL     1      33.833 -19.137 -21.347  0.00  0.00    -0.001 C 
ATOM     28  C   UNL     1      35.441 -20.380 -19.490  0.00  0.00    +0.176 C 
ATOM     29  C   UNL     1      34.113 -20.724 -19.601  0.00  0.00    +0.176 C 
ATOM     30  C   UNL     1      33.281 -20.120 -20.521  0.00  0.00    +0.040 C 
ATOM     31  C   UNL     1      35.008 -21.926 -18.040  0.00  0.00    +0.429 C 
ENDBRANCH  22  25
ENDBRANCH  21  22
ENDBRANCH   2  21
TORSDOF 5
ENDMDL
MODEL 7
REMARK VINA RESULT:     -12.3      3.760      6.336
REMARK  Name = 16040279
REMARK  5 active torsions:
REMARK  status: ('A' for Active; 'I' for Inactive)
REMARK    1  A    between atoms: N_2  and  C_21
REMARK    2  A    between atoms: C_3  and  C_11
REMARK    3  A    between atoms: C_4  and  N_17
REMARK    4  A    between atoms: C_21  and  C_22
REMARK    5  A    between atoms: C_22  and  C_25
REMARK                            x       y       z     vdW  Elec       q    Type
REMARK                         _______ _______ _______ _____ _____    ______ ____
ROOT
ATOM      1  O   UNL     1      32.039 -21.232 -19.398  0.00  0.00    -0.275 OA
ATOM      2  N   UNL     1      34.356 -21.188 -19.268  0.00  0.00    -0.281 N 
ATOM      3  C   UNL     1      34.353 -18.726 -20.749  0.00  0.00    +0.015 C 
ATOM      4  C   UNL     1      35.629 -19.585 -20.722  0.00  0.00    -0.041 C 
ATOM      5  C   UNL     1      35.603 -20.452 -19.465  0.00  0.00    +0.072 C 
ATOM      6  C   UNL     1      33.141 -19.660 -20.795  0.00  0.00    +0.088 C 
ATOM      7  C   UNL     1      33.121 -20.742 -19.732  0.00  0.00    +0.226 C 
ENDROOT
BRANCH   3  11
ATOM      8  F   UNL     1      34.037 -19.499 -23.462  0.00  0.00    -0.204 F 
ATOM      9  F   UNL     1      34.421 -14.140 -22.437  0.00  0.00    -0.202 F 
ATOM     10  F   UNL     1      34.115 -15.027 -25.005  0.00  0.00    -0.202 F 
ATOM     11  C   UNL     1      34.289 -17.731 -21.898  0.00  0.00    +0.006 C 
ATOM     12  C   UNL     1      34.133 -18.187 -23.203  0.00  0.00    +0.138 C 
ATOM     13  C   UNL     1      34.387 -16.368 -21.634  0.00  0.00    +0.030 C 
ATOM     14  C   UNL     1      34.328 -15.453 -22.686  0.00  0.00    +0.167 C 
ATOM     15  C   UNL     1      34.074 -17.272 -24.255  0.00  0.00    +0.061 C 
ATOM     16  C   UNL     1      34.171 -15.905 -23.996  0.00  0.00    +0.170 C 
ENDBRANCH   3  11
BRANCH   4  17
ATOM     17  N   UNL     1      36.843 -18.766 -20.692  0.00  0.00    +0.383 N 
ATOM     18  H   UNL     1      36.602 -17.793 -20.883  0.00  0.00    -0.089 HD
ATOM     19  H   UNL     1      37.497 -19.100 -21.402  0.00  0.00    -0.089 HD
ATOM     20  H   UNL     1      37.278 -18.834 -19.771  0.00  0.00    -0.089 HD
ENDBRANCH   4  17
BRANCH   2  21
ATOM     21  C   UNL     1      34.411 -22.291 -18.317  0.00  0.00    +0.098 C 
BRANCH  21  22
ATOM     22  C   UNL     1      34.930 -21.857 -16.947  0.00  0.00    +0.048 C 
BRANCH  22  25
ATOM     23  O   UNL     1      30.978 -23.828 -14.740  0.00  0.00    -0.435 OA
ATOM     24  O   UNL     1      32.237 -24.450 -12.782  0.00  0.00    -0.435 OA
ATOM     25  C   UNL     1      34.236 -22.558 -15.806  0.00  0.00    -0.017 C 
ATOM     26  C   UNL     1      32.879 -22.833 -15.905  0.00  0.00    +0.036 C 
ATOM     27  C   UNL     1      34.979 -22.912 -14.676  0.00  0.00    -0.001 C 
ATOM     28  C   UNL     1      32.288 -23.475 -14.836  0.00  0.00    +0.176 C 
ATOM     29  C   UNL     1      33.008 -23.829 -13.717  0.00  0.00    +0.176 C 
ATOM     30  C   UNL     1      34.357 -23.561 -13.607  0.00  0.00    +0.040 C 
ATOM     31  C   UNL     1      30.953 -24.446 -13.437  0.00  0.00    +0.429 C 
ENDBRANCH  22  25
ENDBRANCH  21  22
ENDBRANCH   2  21
TORSDOF 5
ENDMDL
MODEL 8
REMARK VINA RESULT:     -12.1      4.255      6.924
REMARK  Name = 16040279
REMARK  5 active torsions:
REMARK  status: ('A' for Active; 'I' for Inactive)
REMARK    1  A    between atoms: N_2  and  C_21
REMARK    2  A    between atoms: C_3  and  C_11
REMARK    3  A    between atoms: C_4  and  N_17
REMARK    4  A    between atoms: C_21  and  C_22
REMARK    5  A    between atoms: C_22  and  C_25
REMARK                            x       y       z     vdW  Elec       q    Type
REMARK                         _______ _______ _______ _____ _____    ______ ____
ROOT
ATOM      1  O   UNL     1      36.281 -21.703 -18.198  0.00  0.00    -0.275 OA
ATOM      2  N   UNL     1      33.983 -21.828 -18.500  0.00  0.00    -0.281 N 
ATOM      3  C   UNL     1      34.209 -19.970 -20.680  0.00  0.00    +0.015 C 
ATOM      4  C   UNL     1      32.853 -20.137 -19.972  0.00  0.00    -0.041 C 
ATOM      5  C   UNL     1      32.813 -21.517 -19.319  0.00  0.00    +0.072 C 
ATOM      6  C   UNL     1      35.319 -20.074 -19.631  0.00  0.00    +0.088 C 
ATOM      7  C   UNL     1      35.248 -21.296 -18.736  0.00  0.00    +0.226 C 
ENDROOT
BRANCH   3  11
ATOM      8  F   UNL     1      34.406 -19.882 -23.510  0.00  0.00    -0.204 F 
ATOM      9  F   UNL     1      34.563 -15.100 -20.861  0.00  0.00    -0.202 F 
ATOM     10  F   UNL     1      34.743 -15.163 -23.588  0.00  0.00    -0.202 F 
ATOM     11  C   UNL     1      34.353 -18.676 -21.466  0.00  0.00    +0.006 C 
ATOM     12  C   UNL     1      34.444 -18.714 -22.854  0.00  0.00    +0.138 C 
ATOM     13  C   UNL     1      34.393 -17.461 -20.790  0.00  0.00    +0.030 C 
ATOM     14  C   UNL     1      34.524 -16.271 -21.507  0.00  0.00    +0.167 C 
ATOM     15  C   UNL     1      34.577 -17.525 -23.573  0.00  0.00    +0.061 C 
ATOM     16  C   UNL     1      34.616 -16.304 -22.899  0.00  0.00    +0.170 C 
ENDBRANCH   3  11
BRANCH   4  17
ATOM     17  N   UNL     1      31.729 -20.036 -20.906  0.00  0.00    +0.383 N 
ATOM     18  H   UNL     1      30.937 -20.568 -20.544  0.00  0.00    -0.089 HD
ATOM     19  H   UNL     1      32.006 -20.413 -21.814  0.00  0.00    -0.089 HD
ATOM     20  H   UNL     1      31.460 -19.057 -21.012  0.00  0.00    -0.089 HD
ENDBRANCH   4  17
BRANCH   2  21
ATOM     21  C   UNL     1      33.833 -22.944 -17.576  0.00  0.00    +0.098 C 
BRANCH  21  22
ATOM     22  C   UNL     1      33.453 -22.491 -16.167  0.00  0.00    +0.048 C 
BRANCH  22  25
ATOM     23  O   UNL     1      28.569 -22.202 -16.829  0.00  0.00    -0.435 OA
ATOM     24  O   UNL     1      28.112 -23.627 -14.941  0.00  0.00    -0.435 OA
ATOM     25  C   UNL     1      32.025 -22.819 -15.808  0.00  0.00    -0.017 C 
ATOM     26  C   UNL     1      30.996 -22.290 -16.576  0.00  0.00    +0.036 C 
ATOM     27  C   UNL     1      31.775 -23.646 -14.710  0.00  0.00    -0.001 C 
ATOM     28  C   UNL     1      29.706 -22.618 -16.209  0.00  0.00    +0.176 C 
ATOM     29  C   UNL     1      29.445 -23.431 -15.130  0.00  0.00    +0.176 C 
ATOM     30  C   UNL     1      30.460 -23.962 -14.359  0.00  0.00    +0.040 C 
ATOM     31  C   UNL     1      27.563 -22.846 -16.021  0.00  0.00    +0.429 C 
ENDBRANCH  22  25
ENDBRANCH  21  22
ENDBRANCH   2  21
TORSDOF 5
ENDMDL
MODEL 9
REMARK VINA RESULT:     -12.1      3.152      5.511
REMARK  Name = 16040279
REMARK  5 active torsions:
REMARK  status: ('A' for Active; 'I' for Inactive)
REMARK    1  A    between atoms: N_2  and  C_21
REMARK    2  A    between atoms: C_3  and  C_11
REMARK    3  A    between atoms: C_4  and  N_17
REMARK    4  A    between atoms: C_21  and  C_22
REMARK    5  A    between atoms: C_22  and  C_25
REMARK                            x       y       z     vdW  Elec       q    Type
REMARK                         _______ _______ _______ _____ _____    ______ ____
ROOT
ATOM      1  O   UNL     1      32.759 -20.438 -19.521  0.00  0.00    -0.275 OA
ATOM      2  N   UNL     1      35.027 -20.425 -20.015  0.00  0.00    -0.281 N 
ATOM      3  C   UNL     1      34.749 -17.751 -21.031  0.00  0.00    +0.015 C 
ATOM      4  C   UNL     1      35.944 -18.607 -21.486  0.00  0.00    -0.041 C 
ATOM      5  C   UNL     1      36.211 -19.671 -20.423  0.00  0.00    +0.072 C 
ATOM      6  C   UNL     1      33.525 -18.661 -20.895  0.00  0.00    +0.088 C 
ATOM      7  C   UNL     1      33.736 -19.904 -20.052  0.00  0.00    +0.226 C 
ENDROOT
BRANCH   3  11
ATOM      8  F   UNL     1      34.185 -15.138 -20.077  0.00  0.00    -0.204 F 
ATOM      9  F   UNL     1      34.090 -15.877 -25.496  0.00  0.00    -0.202 F 
ATOM     10  F   UNL     1      33.565 -13.410 -24.439  0.00  0.00    -0.202 F 
ATOM     11  C   UNL     1      34.429 -16.580 -21.947  0.00  0.00    +0.006 C 
ATOM     12  C   UNL     1      34.163 -15.327 -21.404  0.00  0.00    +0.138 C 
ATOM     13  C   UNL     1      34.405 -16.771 -23.325  0.00  0.00    +0.030 C 
ATOM     14  C   UNL     1      34.113 -15.698 -24.169  0.00  0.00    +0.167 C 
ATOM     15  C   UNL     1      33.870 -14.254 -22.247  0.00  0.00    +0.061 C 
ATOM     16  C   UNL     1      33.846 -14.440 -23.630  0.00  0.00    +0.170 C 
ENDBRANCH   3  11
BRANCH   4  17
ATOM     17  N   UNL     1      37.160 -17.809 -21.656  0.00  0.00    +0.383 N 
ATOM     18  H   UNL     1      37.846 -18.343 -22.189  0.00  0.00    -0.089 HD
ATOM     19  H   UNL     1      37.546 -17.578 -20.739  0.00  0.00    -0.089 HD
ATOM     20  H   UNL     1      36.935 -16.948 -22.156  0.00  0.00    -0.089 HD
ENDBRANCH   4  17
BRANCH   2  21
ATOM     21  C   UNL     1      35.280 -21.670 -19.302  0.00  0.00    +0.098 C 
BRANCH  21  22
ATOM     22  C   UNL     1      36.004 -21.447 -17.975  0.00  0.00    +0.048 C 
BRANCH  22  25
ATOM     23  O   UNL     1      35.721 -22.975 -13.289  0.00  0.00    -0.435 OA
ATOM     24  O   UNL     1      33.435 -23.697 -13.541  0.00  0.00    -0.435 OA
ATOM     25  C   UNL     1      35.281 -22.058 -16.801  0.00  0.00    -0.017 C 
ATOM     26  C   UNL     1      35.949 -22.193 -15.591  0.00  0.00    +0.036 C 
ATOM     27  C   UNL     1      33.957 -22.473 -16.961  0.00  0.00    -0.001 C 
ATOM     28  C   UNL     1      35.246 -22.757 -14.545  0.00  0.00    +0.176 C 
ATOM     29  C   UNL     1      33.941 -23.170 -14.690  0.00  0.00    +0.176 C 
ATOM     30  C   UNL     1      33.267 -23.041 -15.887  0.00  0.00    +0.040 C 
ATOM     31  C   UNL     1      34.568 -23.570 -12.658  0.00  0.00    +0.429 C 
ENDBRANCH  22  25
ENDBRANCH  21  22
ENDBRANCH   2  21
TORSDOF 5
ENDMDL
