MODEL 1
REMARK VINA RESULT:     -11.0      0.000      0.000
REMARK  Name = 24771368
REMARK  4 active torsions:
REMARK  status: ('A' for Active; 'I' for Inactive)
REMARK    1  A    between atoms: N_2  and  C_25
REMARK    2  A    between atoms: C_9  and  C_12
REMARK    3  A    between atoms: C_16  and  O_17
REMARK    4  A    between atoms: O_17  and  C_19
REMARK                            x       y       z     vdW  Elec       q    Type
REMARK                         _______ _______ _______ _____ _____    ______ ____
ROOT
ATOM      1  O   UNL     1      35.729 -17.565 -20.266  0.00  0.00    -0.270 OA
ATOM      2  N   UNL     1      33.556 -16.069 -24.356  0.00  0.00    +0.389 N 
ATOM      3  N   UNL     1      34.959 -18.168 -22.394  0.00  0.00    -0.278 N 
ATOM      4  C   UNL     1      32.781 -17.317 -24.342  0.00  0.00    -0.075 C 
ATOM      5  C   UNL     1      34.412 -15.885 -23.176  0.00  0.00    -0.055 C 
ATOM      6  C   UNL     1      33.645 -18.565 -24.535  0.00  0.00    -0.001 C 
ATOM      7  C   UNL     1      35.491 -16.956 -23.016  0.00  0.00    +0.071 C 
ATOM      8  C   UNL     1      34.236 -19.122 -23.241  0.00  0.00    +0.091 C 
ATOM      9  C   UNL     1      35.132 -18.340 -21.011  0.00  0.00    +0.250 C 
ATOM     10  H   UNL     1      34.190 -16.146 -25.152  0.00  0.00    -0.080 HD
ENDROOT
BRANCH   9  12
ATOM     11  N   UNL     1      34.910 -21.644 -19.245  0.00  0.00    -0.210 NA
ATOM     12  C   UNL     1      34.559 -19.539 -20.380  0.00  0.00    +0.073 C 
ATOM     13  C   UNL     1      33.183 -19.724 -20.312  0.00  0.00    +0.011 C 
ATOM     14  C   UNL     1      35.373 -20.520 -19.836  0.00  0.00    +0.107 C 
ATOM     15  C   UNL     1      32.669 -20.867 -19.711  0.00  0.00    +0.058 C 
ATOM     16  C   UNL     1      33.567 -21.789 -19.197  0.00  0.00    +0.230 C 
BRANCH  16  17
ATOM     17  O   UNL     1      33.085 -22.924 -18.600  0.00  0.00    -0.436 OA
BRANCH  17  19
ATOM     18  F   UNL     1      31.732 -22.606 -13.269  0.00  0.00    -0.204 F 
ATOM     19  C   UNL     1      32.746 -22.843 -17.263  0.00  0.00    +0.147 C 
ATOM     20  C   UNL     1      31.417 -22.640 -16.893  0.00  0.00    +0.040 C 
ATOM     21  C   UNL     1      33.732 -22.967 -16.285  0.00  0.00    +0.040 C 
ATOM     22  C   UNL     1      31.074 -22.560 -15.543  0.00  0.00    +0.033 C 
ATOM     23  C   UNL     1      33.390 -22.887 -14.935  0.00  0.00    +0.033 C 
ATOM     24  C   UNL     1      32.060 -22.684 -14.565  0.00  0.00    +0.140 C 
ENDBRANCH  17  19
ENDBRANCH  16  17
ENDBRANCH   9  12
BRANCH   2  25
ATOM     25  C   UNL     1      32.664 -14.890 -24.545  0.00  0.00    -0.058 C 
ATOM     26  C   UNL     1      33.248 -13.969 -25.636  0.00  0.00    -0.021 C 
ATOM     27  C   UNL     1      33.035 -13.792 -23.527  0.00  0.00    -0.021 C 
ATOM     28  C   UNL     1      32.942 -12.787 -24.693  0.00  0.00    -0.004 C 
ENDBRANCH   2  25
TORSDOF 4
ENDMDL
MODEL 2
REMARK VINA RESULT:     -10.9      5.668      8.931
REMARK  Name = 24771368
REMARK  4 active torsions:
REMARK  status: ('A' for Active; 'I' for Inactive)
REMARK    1  A    between atoms: N_2  and  C_25
REMARK    2  A    between atoms: C_9  and  C_12
REMARK    3  A    between atoms: C_16  and  O_17
REMARK    4  A    between atoms: O_17  and  C_19
REMARK                            x       y       z     vdW  Elec       q    Type
REMARK                         _______ _______ _______ _____ _____    ______ ____
ROOT
ATOM      1  O   UNL     1      31.944 -10.927 -23.851  0.00  0.00    -0.270 OA
ATOM      2  N   UNL     1      31.306  -7.253 -20.723  0.00  0.00    +0.389 N 
ATOM      3  N   UNL     1      31.158 -10.280 -21.741  0.00  0.00    -0.278 N 
ATOM      4  C   UNL     1      31.761  -8.151 -19.652  0.00  0.00    -0.075 C 
ATOM      5  C   UNL     1      31.389  -7.839 -22.068  0.00  0.00    -0.055 C 
ATOM      6  C   UNL     1      30.814  -9.327 -19.408  0.00  0.00    -0.001 C 
ATOM      7  C   UNL     1      30.514  -9.077 -22.263  0.00  0.00    +0.071 C 
ATOM      8  C   UNL     1      31.080 -10.539 -20.300  0.00  0.00    +0.091 C 
ATOM      9  C   UNL     1      31.854 -11.108 -22.638  0.00  0.00    +0.250 C 
ATOM     10  H   UNL     1      30.314  -7.095 -20.547  0.00  0.00    -0.080 HD
ENDROOT
BRANCH   9  12
ATOM     11  N   UNL     1      34.285 -13.951 -22.330  0.00  0.00    -0.210 NA
ATOM     12  C   UNL     1      32.537 -12.296 -22.103  0.00  0.00    +0.073 C 
ATOM     13  C   UNL     1      32.122 -12.888 -20.915  0.00  0.00    +0.011 C 
ATOM     14  C   UNL     1      33.615 -12.861 -22.767  0.00  0.00    +0.107 C 
ATOM     15  C   UNL     1      32.786 -14.010 -20.434  0.00  0.00    +0.058 C 
ATOM     16  C   UNL     1      33.852 -14.499 -21.173  0.00  0.00    +0.230 C 
BRANCH  16  17
ATOM     17  O   UNL     1      34.522 -15.605 -20.720  0.00  0.00    -0.436 OA
BRANCH  17  19
ATOM     18  F   UNL     1      34.553 -20.053 -23.971  0.00  0.00    -0.204 F 
ATOM     19  C   UNL     1      34.531 -16.720 -21.535  0.00  0.00    +0.147 C 
ATOM     20  C   UNL     1      34.892 -17.962 -21.013  0.00  0.00    +0.040 C 
ATOM     21  C   UNL     1      34.177 -16.604 -22.879  0.00  0.00    +0.040 C 
ATOM     22  C   UNL     1      34.899 -19.088 -21.836  0.00  0.00    +0.033 C 
ATOM     23  C   UNL     1      34.184 -17.730 -23.702  0.00  0.00    +0.033 C 
ATOM     24  C   UNL     1      34.545 -18.972 -23.180  0.00  0.00    +0.140 C 
ENDBRANCH  17  19
ENDBRANCH  16  17
ENDBRANCH   9  12
BRANCH   2  25
ATOM     25  C   UNL     1      32.032  -5.952 -20.671  0.00  0.00    -0.058 C 
ATOM     26  C   UNL     1      31.020  -4.792 -20.759  0.00  0.00    -0.021 C 
ATOM     27  C   UNL     1      32.490  -5.560 -22.090  0.00  0.00    -0.021 C 
ATOM     28  C   UNL     1      31.974  -4.139 -21.781  0.00  0.00    -0.004 C 
ENDBRANCH   2  25
TORSDOF 4
ENDMDL
MODEL 3
REMARK VINA RESULT:     -10.2      3.159      9.516
REMARK  Name = 24771368
REMARK  4 active torsions:
REMARK  status: ('A' for Active; 'I' for Inactive)
REMARK    1  A    between atoms: N_2  and  C_25
REMARK    2  A    between atoms: C_9  and  C_12
REMARK    3  A    between atoms: C_16  and  O_17
REMARK    4  A    between atoms: O_17  and  C_19
REMARK                            x       y       z     vdW  Elec       q    Type
REMARK                         _______ _______ _______ _____ _____    ______ ____
ROOT
ATOM      1  O   UNL     1      32.146 -21.960 -19.704  0.00  0.00    -0.270 OA
ATOM      2  N   UNL     1      33.349 -22.907 -15.084  0.00  0.00    +0.389 N 
ATOM      3  N   UNL     1      33.888 -22.331 -18.182  0.00  0.00    -0.278 N 
ATOM      4  C   UNL     1      34.432 -21.922 -15.216  0.00  0.00    -0.075 C 
ATOM      5  C   UNL     1      32.476 -22.994 -16.263  0.00  0.00    -0.055 C 
ATOM      6  C   UNL     1      35.507 -22.341 -16.221  0.00  0.00    -0.001 C 
ATOM      7  C   UNL     1      33.192 -23.442 -17.537  0.00  0.00    +0.071 C 
ATOM      8  C   UNL     1      35.203 -21.941 -17.664  0.00  0.00    +0.091 C 
ATOM      9  C   UNL     1      33.247 -21.666 -19.241  0.00  0.00    +0.250 C 
ATOM     10  H   UNL     1      33.808 -23.814 -15.008  0.00  0.00    -0.080 HD
ENDROOT
BRANCH   9  12
ATOM     11  N   UNL     1      33.783 -18.451 -21.101  0.00  0.00    -0.210 NA
ATOM     12  C   UNL     1      33.931 -20.521 -19.861  0.00  0.00    +0.073 C 
ATOM     13  C   UNL     1      35.315 -20.402 -19.816  0.00  0.00    +0.011 C 
ATOM     14  C   UNL     1      33.216 -19.526 -20.510  0.00  0.00    +0.107 C 
ATOM     15  C   UNL     1      35.935 -19.310 -20.411  0.00  0.00    +0.058 C 
ATOM     16  C   UNL     1      35.131 -18.370 -21.036  0.00  0.00    +0.230 C 
BRANCH  16  17
ATOM     17  O   UNL     1      35.718 -17.285 -21.631  0.00  0.00    -0.436 OA
BRANCH  17  19
ATOM     18  F   UNL     1      32.460 -13.906 -24.517  0.00  0.00    -0.204 F 
ATOM     19  C   UNL     1      34.900 -16.438 -22.355  0.00  0.00    +0.147 C 
ATOM     20  C   UNL     1      34.415 -15.269 -21.768  0.00  0.00    +0.040 C 
ATOM     21  C   UNL     1      34.562 -16.751 -23.671  0.00  0.00    +0.040 C 
ATOM     22  C   UNL     1      33.590 -14.413 -22.499  0.00  0.00    +0.033 C 
ATOM     23  C   UNL     1      33.738 -15.895 -24.402  0.00  0.00    +0.033 C 
ATOM     24  C   UNL     1      33.252 -14.727 -23.815  0.00  0.00    +0.140 C 
ENDBRANCH  17  19
ENDBRANCH  16  17
ENDBRANCH   9  12
BRANCH   2  25
ATOM     25  C   UNL     1      32.546 -22.653 -13.854  0.00  0.00    -0.058 C 
ATOM     26  C   UNL     1      32.004 -23.988 -13.306  0.00  0.00    -0.021 C 
ATOM     27  C   UNL     1      31.094 -22.312 -14.246  0.00  0.00    -0.021 C 
ATOM     28  C   UNL     1      30.647 -23.276 -13.128  0.00  0.00    -0.004 C 
ENDBRANCH   2  25
TORSDOF 4
ENDMDL
MODEL 4
REMARK VINA RESULT:     -10.0      3.193      9.304
REMARK  Name = 24771368
REMARK  4 active torsions:
REMARK  status: ('A' for Active; 'I' for Inactive)
REMARK    1  A    between atoms: N_2  and  C_25
REMARK    2  A    between atoms: C_9  and  C_12
REMARK    3  A    between atoms: C_16  and  O_17
REMARK    4  A    between atoms: O_17  and  C_19
REMARK                            x       y       z     vdW  Elec       q    Type
REMARK                         _______ _______ _______ _____ _____    ______ ____
ROOT
ATOM      1  O   UNL     1      32.113 -21.044 -20.312  0.00  0.00    -0.270 OA
ATOM      2  N   UNL     1      34.657 -22.382 -16.384  0.00  0.00    +0.389 N 
ATOM      3  N   UNL     1      34.234 -21.499 -19.427  0.00  0.00    -0.278 N 
ATOM      4  C   UNL     1      35.646 -21.354 -16.734  0.00  0.00    -0.075 C 
ATOM      5  C   UNL     1      33.469 -22.388 -17.249  0.00  0.00    -0.055 C 
ATOM      6  C   UNL     1      36.369 -21.640 -18.053  0.00  0.00    -0.001 C 
ATOM      7  C   UNL     1      33.769 -22.689 -18.717  0.00  0.00    +0.071 C 
ATOM      8  C   UNL     1      35.643 -21.116 -19.290  0.00  0.00    +0.091 C 
ATOM      9  C   UNL     1      33.302 -20.759 -20.172  0.00  0.00    +0.250 C 
ATOM     10  H   UNL     1      35.121 -23.277 -16.540  0.00  0.00    -0.080 HD
ENDROOT
BRANCH   9  12
ATOM     11  N   UNL     1      34.930 -17.424 -20.735  0.00  0.00    -0.210 NA
ATOM     12  C   UNL     1      33.762 -19.538 -20.851  0.00  0.00    +0.073 C 
ATOM     13  C   UNL     1      33.491 -19.321 -22.198  0.00  0.00    +0.011 C 
ATOM     14  C   UNL     1      34.479 -18.567 -20.170  0.00  0.00    +0.107 C 
ATOM     15  C   UNL     1      33.938 -18.158 -22.813  0.00  0.00    +0.058 C 
ATOM     16  C   UNL     1      34.647 -17.249 -22.044  0.00  0.00    +0.230 C 
BRANCH  16  17
ATOM     17  O   UNL     1      35.097 -16.094 -22.628  0.00  0.00    -0.436 OA
BRANCH  17  19
ATOM     18  F   UNL     1      31.745 -11.723 -22.503  0.00  0.00    -0.204 F 
ATOM     19  C   UNL     1      34.257 -14.997 -22.597  0.00  0.00    +0.147 C 
ATOM     20  C   UNL     1      33.684 -14.525 -23.778  0.00  0.00    +0.040 C 
ATOM     21  C   UNL     1      33.982 -14.364 -21.385  0.00  0.00    +0.040 C 
ATOM     22  C   UNL     1      32.835 -13.419 -23.745  0.00  0.00    +0.033 C 
ATOM     23  C   UNL     1      33.133 -13.258 -21.353  0.00  0.00    +0.033 C 
ATOM     24  C   UNL     1      32.560 -12.786 -22.534  0.00  0.00    +0.140 C 
ENDBRANCH  17  19
ENDBRANCH  16  17
ENDBRANCH   9  12
BRANCH   2  25
ATOM     25  C   UNL     1      34.262 -22.273 -14.950  0.00  0.00    -0.058 C 
ATOM     26  C   UNL     1      34.740 -23.523 -14.185  0.00  0.00    -0.021 C 
ATOM     27  C   UNL     1      32.825 -22.806 -14.769  0.00  0.00    -0.021 C 
ATOM     28  C   UNL     1      33.345 -23.562 -13.529  0.00  0.00    -0.004 C 
ENDBRANCH   2  25
TORSDOF 4
ENDMDL
MODEL 5
REMARK VINA RESULT:      -9.8      7.495     11.585
REMARK  Name = 24771368
REMARK  4 active torsions:
REMARK  status: ('A' for Active; 'I' for Inactive)
REMARK    1  A    between atoms: N_2  and  C_25
REMARK    2  A    between atoms: C_9  and  C_12
REMARK    3  A    between atoms: C_16  and  O_17
REMARK    4  A    between atoms: O_17  and  C_19
REMARK                            x       y       z     vdW  Elec       q    Type
REMARK                         _______ _______ _______ _____ _____    ______ ____
ROOT
ATOM      1  O   UNL     1      30.102  -5.874 -21.759  0.00  0.00    -0.270 OA
ATOM      2  N   UNL     1      33.242  -4.681 -25.281  0.00  0.00    +0.389 N 
ATOM      3  N   UNL     1      32.319  -5.979 -22.508  0.00  0.00    -0.278 N 
ATOM      4  C   UNL     1      33.816  -6.028 -25.158  0.00  0.00    -0.075 C 
ATOM      5  C   UNL     1      32.056  -4.459 -24.443  0.00  0.00    -0.055 C 
ATOM      6  C   UNL     1      34.487  -6.276 -23.804  0.00  0.00    -0.001 C 
ATOM      7  C   UNL     1      32.320  -4.583 -22.943  0.00  0.00    +0.071 C 
ATOM      8  C   UNL     1      33.535  -6.771 -22.717  0.00  0.00    +0.091 C 
ATOM      9  C   UNL     1      31.142  -6.503 -21.950  0.00  0.00    +0.250 C 
ATOM     10  H   UNL     1      33.957  -4.044 -24.928  0.00  0.00    -0.080 HD
ENDROOT
BRANCH   9  12
ATOM     11  N   UNL     1      30.757 -10.231 -22.155  0.00  0.00    -0.210 NA
ATOM     12  C   UNL     1      31.129  -7.919 -21.553  0.00  0.00    +0.073 C 
ATOM     13  C   UNL     1      31.456  -8.303 -20.257  0.00  0.00    +0.011 C 
ATOM     14  C   UNL     1      30.789  -8.913 -22.457  0.00  0.00    +0.107 C 
ATOM     15  C   UNL     1      31.435  -9.649 -19.909  0.00  0.00    +0.058 C 
ATOM     16  C   UNL     1      31.081 -10.565 -20.887  0.00  0.00    +0.230 C 
BRANCH  16  17
ATOM     17  O   UNL     1      31.052 -11.897 -20.568  0.00  0.00    -0.436 OA
BRANCH  17  19
ATOM     18  F   UNL     1      34.886 -15.129 -22.853  0.00  0.00    -0.204 F 
ATOM     19  C   UNL     1      32.013 -12.708 -21.141  0.00  0.00    +0.147 C 
ATOM     20  C   UNL     1      32.283 -12.610 -22.506  0.00  0.00    +0.040 C 
ATOM     21  C   UNL     1      32.712 -13.624 -20.355  0.00  0.00    +0.040 C 
ATOM     22  C   UNL     1      33.255 -13.428 -23.084  0.00  0.00    +0.033 C 
ATOM     23  C   UNL     1      33.683 -14.441 -20.933  0.00  0.00    +0.033 C 
ATOM     24  C   UNL     1      33.954 -14.343 -22.298  0.00  0.00    +0.140 C 
ENDBRANCH  17  19
ENDBRANCH  16  17
ENDBRANCH   9  12
BRANCH   2  25
ATOM     25  C   UNL     1      32.948  -4.357 -26.706  0.00  0.00    -0.058 C 
ATOM     26  C   UNL     1      33.041  -5.639 -27.557  0.00  0.00    -0.021 C 
ATOM     27  C   UNL     1      34.240  -3.889 -27.406  0.00  0.00    -0.021 C 
ATOM     28  C   UNL     1      33.846  -4.809 -28.579  0.00  0.00    -0.004 C 
ENDBRANCH   2  25
TORSDOF 4
ENDMDL
MODEL 6
REMARK VINA RESULT:      -9.7      5.537      9.380
REMARK  Name = 24771368
REMARK  4 active torsions:
REMARK  status: ('A' for Active; 'I' for Inactive)
REMARK    1  A    between atoms: N_2  and  C_25
REMARK    2  A    between atoms: C_9  and  C_12
REMARK    3  A    between atoms: C_16  and  O_17
REMARK    4  A    between atoms: O_17  and  C_19
REMARK                            x       y       z     vdW  Elec       q    Type
REMARK                         _______ _______ _______ _____ _____    ______ ____
ROOT
ATOM      1  O   UNL     1      30.468 -10.817 -21.502  0.00  0.00    -0.270 OA
ATOM      2  N   UNL     1      31.609  -6.498 -23.434  0.00  0.00    +0.389 N 
ATOM      3  N   UNL     1      32.191  -9.370 -22.156  0.00  0.00    -0.278 N 
ATOM      4  C   UNL     1      32.650  -7.178 -24.217  0.00  0.00    -0.075 C 
ATOM      5  C   UNL     1      30.767  -7.407 -22.644  0.00  0.00    -0.055 C 
ATOM      6  C   UNL     1      33.765  -7.770 -23.351  0.00  0.00    -0.001 C 
ATOM      7  C   UNL     1      31.530  -8.199 -21.583  0.00  0.00    +0.071 C 
ATOM      8  C   UNL     1      33.475  -9.179 -22.837  0.00  0.00    +0.091 C 
ATOM      9  C   UNL     1      31.544 -10.614 -22.062  0.00  0.00    +0.250 C 
ATOM     10  H   UNL     1      32.107  -5.918 -22.758  0.00  0.00    -0.080 HD
ENDROOT
BRANCH   9  12
ATOM     11  N   UNL     1      32.782 -13.003 -24.678  0.00  0.00    -0.210 NA
ATOM     12  C   UNL     1      32.190 -11.784 -22.677  0.00  0.00    +0.073 C 
ATOM     13  C   UNL     1      32.803 -12.757 -21.895  0.00  0.00    +0.011 C 
ATOM     14  C   UNL     1      32.207 -11.952 -24.052  0.00  0.00    +0.107 C 
ATOM     15  C   UNL     1      33.405 -13.853 -22.503  0.00  0.00    +0.058 C 
ATOM     16  C   UNL     1      33.367 -13.928 -23.886  0.00  0.00    +0.230 C 
BRANCH  16  17
ATOM     17  O   UNL     1      33.953 -14.999 -24.509  0.00  0.00    -0.436 OA
BRANCH  17  19
ATOM     18  F   UNL     1      34.561 -19.615 -21.562  0.00  0.00    -0.204 F 
ATOM     19  C   UNL     1      34.106 -16.157 -23.770  0.00  0.00    +0.147 C 
ATOM     20  C   UNL     1      34.744 -16.113 -22.530  0.00  0.00    +0.040 C 
ATOM     21  C   UNL     1      33.622 -17.368 -24.264  0.00  0.00    +0.040 C 
ATOM     22  C   UNL     1      34.898 -17.281 -21.784  0.00  0.00    +0.033 C 
ATOM     23  C   UNL     1      33.776 -18.537 -23.517  0.00  0.00    +0.033 C 
ATOM     24  C   UNL     1      34.413 -18.492 -22.278  0.00  0.00    +0.140 C 
ENDBRANCH  17  19
ENDBRANCH  16  17
ENDBRANCH   9  12
BRANCH   2  25
ATOM     25  C   UNL     1      30.769  -5.630 -24.308  0.00  0.00    -0.058 C 
ATOM     26  C   UNL     1      31.676  -4.799 -25.237  0.00  0.00    -0.021 C 
ATOM     27  C   UNL     1      30.447  -4.314 -23.570  0.00  0.00    -0.021 C 
ATOM     28  C   UNL     1      30.795  -3.583 -24.884  0.00  0.00    -0.004 C 
ENDBRANCH   2  25
TORSDOF 4
ENDMDL
MODEL 7
REMARK VINA RESULT:      -9.5      8.097     14.042
REMARK  Name = 24771368
REMARK  4 active torsions:
REMARK  status: ('A' for Active; 'I' for Inactive)
REMARK    1  A    between atoms: N_2  and  C_25
REMARK    2  A    between atoms: C_9  and  C_12
REMARK    3  A    between atoms: C_16  and  O_17
REMARK    4  A    between atoms: O_17  and  C_19
REMARK                            x       y       z     vdW  Elec       q    Type
REMARK                         _______ _______ _______ _____ _____    ______ ____
ROOT
ATOM      1  O   UNL     1      30.811  -9.705 -19.527  0.00  0.00    -0.270 OA
ATOM      2  N   UNL     1      33.066 -13.292 -21.923  0.00  0.00    +0.389 N 
ATOM      3  N   UNL     1      31.306 -10.641 -21.617  0.00  0.00    -0.278 N 
ATOM      4  C   UNL     1      33.521 -12.290 -22.896  0.00  0.00    -0.075 C 
ATOM      5  C   UNL     1      32.340 -12.726 -20.778  0.00  0.00    -0.055 C 
ATOM      6  C   UNL     1      32.376 -11.656 -23.689  0.00  0.00    -0.001 C 
ATOM      7  C   UNL     1      31.047 -12.003 -21.156  0.00  0.00    +0.071 C 
ATOM      8  C   UNL     1      31.736 -10.448 -23.006  0.00  0.00    +0.091 C 
ATOM      9  C   UNL     1      31.168  -9.587 -20.698  0.00  0.00    +0.250 C 
ATOM     10  H   UNL     1      32.392 -13.874 -22.422  0.00  0.00    -0.080 HD
ENDROOT
BRANCH   9  12
ATOM     11  N   UNL     1      31.158  -6.473 -22.793  0.00  0.00    -0.210 NA
ATOM     12  C   UNL     1      31.471  -8.221 -21.153  0.00  0.00    +0.073 C 
ATOM     13  C   UNL     1      32.319  -7.395 -20.425  0.00  0.00    +0.011 C 
ATOM     14  C   UNL     1      30.920  -7.717 -22.320  0.00  0.00    +0.107 C 
ATOM     15  C   UNL     1      32.588  -6.109 -20.878  0.00  0.00    +0.058 C 
ATOM     16  C   UNL     1      31.988  -5.699 -22.058  0.00  0.00    +0.230 C 
BRANCH  16  17
ATOM     17  O   UNL     1      32.238  -4.436 -22.526  0.00  0.00    -0.436 OA
BRANCH  17  19
ATOM     18  F   UNL     1      34.177  -3.982 -27.664  0.00  0.00    -0.204 F 
ATOM     19  C   UNL     1      32.725  -4.322 -23.814  0.00  0.00    +0.147 C 
ATOM     20  C   UNL     1      33.917  -4.954 -24.167  0.00  0.00    +0.040 C 
ATOM     21  C   UNL     1      32.023  -3.575 -24.761  0.00  0.00    +0.040 C 
ATOM     22  C   UNL     1      34.407  -4.839 -25.468  0.00  0.00    +0.033 C 
ATOM     23  C   UNL     1      32.513  -3.461 -26.062  0.00  0.00    +0.033 C 
ATOM     24  C   UNL     1      33.705  -4.093 -26.415  0.00  0.00    +0.140 C 
ENDBRANCH  17  19
ENDBRANCH  16  17
ENDBRANCH   9  12
BRANCH   2  25
ATOM     25  C   UNL     1      34.203 -14.137 -21.458  0.00  0.00    -0.058 C 
ATOM     26  C   UNL     1      34.324 -15.382 -22.360  0.00  0.00    -0.021 C 
ATOM     27  C   UNL     1      33.718 -15.086 -20.343  0.00  0.00    -0.021 C 
ATOM     28  C   UNL     1      34.491 -16.207 -21.068  0.00  0.00    -0.004 C 
ENDBRANCH   2  25
TORSDOF 4
ENDMDL
MODEL 8
REMARK VINA RESULT:      -9.4      6.565     10.506
REMARK  Name = 24771368
REMARK  4 active torsions:
REMARK  status: ('A' for Active; 'I' for Inactive)
REMARK    1  A    between atoms: N_2  and  C_25
REMARK    2  A    between atoms: C_9  and  C_12
REMARK    3  A    between atoms: C_16  and  O_17
REMARK    4  A    between atoms: O_17  and  C_19
REMARK                            x       y       z     vdW  Elec       q    Type
REMARK                         _______ _______ _______ _____ _____    ______ ____
ROOT
ATOM      1  O   UNL     1      29.726  -9.129 -23.016  0.00  0.00    -0.270 OA
ATOM      2  N   UNL     1      32.434  -5.167 -23.824  0.00  0.00    +0.389 N 
ATOM      3  N   UNL     1      31.408  -7.720 -22.196  0.00  0.00    -0.278 N 
ATOM      4  C   UNL     1      33.590  -5.911 -23.305  0.00  0.00    -0.075 C 
ATOM      5  C   UNL     1      31.207  -5.969 -23.932  0.00  0.00    -0.055 C 
ATOM      6  C   UNL     1      33.461  -6.267 -21.822  0.00  0.00    -0.001 C 
ATOM      7  C   UNL     1      30.696  -6.508 -22.597  0.00  0.00    +0.071 C 
ATOM      8  C   UNL     1      32.719  -7.575 -21.556  0.00  0.00    +0.091 C 
ATOM      9  C   UNL     1      30.820  -8.964 -22.480  0.00  0.00    +0.250 C 
ATOM     10  H   UNL     1      32.236  -4.445 -23.131  0.00  0.00    -0.080 HD
ENDROOT
BRANCH   9  12
ATOM     11  N   UNL     1      33.312 -11.767 -22.624  0.00  0.00    -0.210 NA
ATOM     12  C   UNL     1      31.558 -10.183 -22.115  0.00  0.00    +0.073 C 
ATOM     13  C   UNL     1      31.234 -10.900 -20.969  0.00  0.00    +0.011 C 
ATOM     14  C   UNL     1      32.597 -10.654 -22.902  0.00  0.00    +0.107 C 
ATOM     15  C   UNL     1      31.947 -12.049 -20.649  0.00  0.00    +0.058 C 
ATOM     16  C   UNL     1      32.968 -12.437 -21.502  0.00  0.00    +0.230 C 
BRANCH  16  17
ATOM     17  O   UNL     1      33.686 -13.567 -21.208  0.00  0.00    -0.436 OA
BRANCH  17  19
ATOM     18  F   UNL     1      34.021 -17.439 -25.114  0.00  0.00    -0.204 F 
ATOM     19  C   UNL     1      33.769 -14.538 -22.188  0.00  0.00    +0.147 C 
ATOM     20  C   UNL     1      33.215 -14.307 -23.447  0.00  0.00    +0.040 C 
ATOM     21  C   UNL     1      34.407 -15.748 -21.917  0.00  0.00    +0.040 C 
ATOM     22  C   UNL     1      33.301 -15.287 -24.436  0.00  0.00    +0.033 C 
ATOM     23  C   UNL     1      34.493 -16.728 -22.906  0.00  0.00    +0.033 C 
ATOM     24  C   UNL     1      33.939 -16.497 -24.165  0.00  0.00    +0.140 C 
ENDBRANCH  17  19
ENDBRANCH  16  17
ENDBRANCH   9  12
BRANCH   2  25
ATOM     25  C   UNL     1      32.758  -4.524 -25.130  0.00  0.00    -0.058 C 
ATOM     26  C   UNL     1      32.168  -5.364 -26.280  0.00  0.00    -0.021 C 
ATOM     27  C   UNL     1      34.149  -4.992 -25.604  0.00  0.00    -0.021 C 
ATOM     28  C   UNL     1      33.522  -5.192 -26.999  0.00  0.00    -0.004 C 
ENDBRANCH   2  25
TORSDOF 4
ENDMDL
MODEL 9
REMARK VINA RESULT:      -9.4      6.996     10.969
REMARK  Name = 24771368
REMARK  4 active torsions:
REMARK  status: ('A' for Active; 'I' for Inactive)
REMARK    1  A    between atoms: N_2  and  C_25
REMARK    2  A    between atoms: C_9  and  C_12
REMARK    3  A    between atoms: C_16  and  O_17
REMARK    4  A    between atoms: O_17  and  C_19
REMARK                            x       y       z     vdW  Elec       q    Type
REMARK                         _______ _______ _______ _____ _____    ______ ____
ROOT
ATOM      1  O   UNL     1      30.682  -8.586 -20.197  0.00  0.00    -0.270 OA
ATOM      2  N   UNL     1      31.639  -4.428 -22.539  0.00  0.00    +0.389 N 
ATOM      3  N   UNL     1      32.270  -7.344 -21.392  0.00  0.00    -0.278 N 
ATOM      4  C   UNL     1      32.314  -5.223 -23.573  0.00  0.00    -0.075 C 
ATOM      5  C   UNL     1      30.983  -5.234 -21.500  0.00  0.00    -0.055 C 
ATOM      6  C   UNL     1      33.569  -5.935 -23.062  0.00  0.00    -0.001 C 
ATOM      7  C   UNL     1      31.943  -6.105 -20.689  0.00  0.00    +0.071 C 
ATOM      8  C   UNL     1      33.300  -7.301 -22.434  0.00  0.00    +0.091 C 
ATOM      9  C   UNL     1      31.553  -8.507 -21.062  0.00  0.00    +0.250 C 
ATOM     10  H   UNL     1      32.377  -3.907 -22.065  0.00  0.00    -0.080 HD
ENDROOT
BRANCH   9  12
ATOM     11  N   UNL     1      33.031 -10.839 -23.605  0.00  0.00    -0.210 NA
ATOM     12  C   UNL     1      31.854  -9.744 -21.800  0.00  0.00    +0.073 C 
ATOM     13  C   UNL     1      31.281 -10.956 -21.430  0.00  0.00    +0.011 C 
ATOM     14  C   UNL     1      32.715  -9.739 -22.885  0.00  0.00    +0.107 C 
ATOM     15  C   UNL     1      31.582 -12.108 -22.146  0.00  0.00    +0.058 C 
ATOM     16  C   UNL     1      32.455 -11.998 -23.216  0.00  0.00    +0.230 C 
BRANCH  16  17
ATOM     17  O   UNL     1      32.767 -13.120 -23.937  0.00  0.00    -0.436 OA
BRANCH  17  19
ATOM     18  F   UNL     1      35.191 -17.270 -21.243  0.00  0.00    -0.204 F 
ATOM     19  C   UNL     1      33.376 -14.160 -23.262  0.00  0.00    +0.147 C 
ATOM     20  C   UNL     1      33.601 -14.062 -21.889  0.00  0.00    +0.040 C 
ATOM     21  C   UNL     1      33.763 -15.308 -23.953  0.00  0.00    +0.040 C 
ATOM     22  C   UNL     1      34.214 -15.113 -21.207  0.00  0.00    +0.033 C 
ATOM     23  C   UNL     1      34.376 -16.359 -23.271  0.00  0.00    +0.033 C 
ATOM     24  C   UNL     1      34.601 -16.261 -21.898  0.00  0.00    +0.140 C 
ENDBRANCH  17  19
ENDBRANCH  16  17
ENDBRANCH   9  12
BRANCH   2  25
ATOM     25  C   UNL     1      30.671  -3.472 -23.150  0.00  0.00    -0.058 C 
ATOM     26  C   UNL     1      30.949  -3.351 -24.662  0.00  0.00    -0.021 C 
ATOM     27  C   UNL     1      31.210  -2.034 -23.013  0.00  0.00    -0.021 C 
ATOM     28  C   UNL     1      30.809  -1.825 -24.487  0.00  0.00    -0.004 C 
ENDBRANCH   2  25
TORSDOF 4
ENDMDL
