MODEL 1
REMARK VINA RESULT:     -12.2      0.000      0.000
REMARK  Name = 44556193
REMARK  4 active torsions:
REMARK  status: ('A' for Active; 'I' for Inactive)
REMARK    1  A    between atoms: N_3  and  C_22
REMARK    2  A    between atoms: C_10  and  C_14
REMARK    3  A    between atoms: C_16  and  C_19
REMARK    4  A    between atoms: C_22  and  C_24
REMARK                            x       y       z     vdW  Elec       q    Type
REMARK                         _______ _______ _______ _____ _____    ______ ____
ROOT
ATOM      1 CL   UNL     1      32.376 -23.103 -17.033  0.00  0.00    -0.082 Cl
ATOM      2  O   UNL     1      34.434 -23.766 -14.881  0.00  0.00    -0.270 OA
ATOM      3  N   UNL     1      36.558 -22.786 -15.124  0.00  0.00    -0.274 N 
ATOM      4  C   UNL     1      37.219 -21.892 -16.067  0.00  0.00    +0.121 C 
ATOM      5  C   UNL     1      35.239 -23.062 -15.465  0.00  0.00    +0.250 C 
ATOM      6  C   UNL     1      36.138 -21.635 -17.059  0.00  0.00    +0.003 C 
ATOM      7  C   UNL     1      34.976 -22.323 -16.704  0.00  0.00    +0.062 C 
ATOM      8  C   UNL     1      36.164 -20.851 -18.198  0.00  0.00    +0.001 C 
ATOM      9  C   UNL     1      33.816 -22.264 -17.451  0.00  0.00    +0.062 C 
ATOM     10  C   UNL     1      35.001 -20.774 -18.972  0.00  0.00    +0.038 C 
ATOM     11  C   UNL     1      33.837 -21.474 -18.601  0.00  0.00    +0.015 C 
ENDROOT
BRANCH  10  14
ATOM     12  O   UNL     1      36.159 -19.330 -20.454  0.00  0.00    -0.353 OA
ATOM     13  N   UNL     1      36.005 -18.596 -21.624  0.00  0.00    -0.072 NA
ATOM     14  C   UNL     1      34.994 -19.966 -20.167  0.00  0.00    +0.177 C 
ATOM     15  C   UNL     1      34.060 -19.672 -21.126  0.00  0.00    +0.067 C 
ATOM     16  C   UNL     1      34.744 -18.815 -22.006  0.00  0.00    +0.176 C 
BRANCH  16  19
ATOM     17  O   UNL     1      33.867 -18.948 -24.127  0.00  0.00    -0.268 OA
ATOM     18  N   UNL     1      34.171 -16.788 -23.286  0.00  0.00    -0.271 N 
ATOM     19  C   UNL     1      34.241 -18.200 -23.201  0.00  0.00    +0.270 C 
ATOM     20  C   UNL     1      34.610 -15.919 -22.196  0.00  0.00    +0.115 C 
ATOM     21  C   UNL     1      33.656 -16.107 -24.466  0.00  0.00    +0.115 C 
ENDBRANCH  16  19
ENDBRANCH  10  14
BRANCH   3  22
ATOM     22  C   UNL     1      37.253 -23.305 -13.965  0.00  0.00    +0.076 C 
ATOM     23  C   UNL     1      36.568 -22.853 -12.709  0.00  0.00    +0.022 C 
BRANCH  22  24
ATOM     24  C   UNL     1      37.347 -24.823 -14.039  0.00  0.00    +0.018 C 
ATOM     25  C   UNL     1      38.687 -25.485 -13.897  0.00  0.00    +0.002 C 
ATOM     26  C   UNL     1      37.674 -25.599 -12.796  0.00  0.00    +0.002 C 
ENDBRANCH  22  24
ENDBRANCH   3  22
TORSDOF 4
ENDMDL
MODEL 2
REMARK VINA RESULT:     -11.8      5.819     11.816
REMARK  Name = 44556193
REMARK  4 active torsions:
REMARK  status: ('A' for Active; 'I' for Inactive)
REMARK    1  A    between atoms: N_3  and  C_22
REMARK    2  A    between atoms: C_10  and  C_14
REMARK    3  A    between atoms: C_16  and  C_19
REMARK    4  A    between atoms: C_22  and  C_24
REMARK                            x       y       z     vdW  Elec       q    Type
REMARK                         _______ _______ _______ _____ _____    ______ ____
ROOT
ATOM      1 CL   UNL     1      32.777 -12.058 -25.257  0.00  0.00    -0.082 Cl
ATOM      2  O   UNL     1      31.577  -9.928 -23.432  0.00  0.00    -0.270 OA
ATOM      3  N   UNL     1      31.566 -10.407 -21.129  0.00  0.00    -0.274 N 
ATOM      4  C   UNL     1      31.995 -11.499 -20.264  0.00  0.00    +0.121 C 
ATOM      5  C   UNL     1      31.817 -10.644 -22.476  0.00  0.00    +0.250 C 
ATOM      6  C   UNL     1      32.559 -12.467 -21.246  0.00  0.00    +0.003 C 
ATOM      7  C   UNL     1      32.453 -11.964 -22.544  0.00  0.00    +0.062 C 
ATOM      8  C   UNL     1      33.127 -13.708 -21.023  0.00  0.00    +0.001 C 
ATOM      9  C   UNL     1      32.898 -12.658 -23.652  0.00  0.00    +0.062 C 
ATOM     10  C   UNL     1      33.586 -14.432 -22.129  0.00  0.00    +0.038 C 
ATOM     11  C   UNL     1      33.472 -13.910 -23.432  0.00  0.00    +0.015 C 
ENDROOT
BRANCH  10  14
ATOM     12  O   UNL     1      34.461 -16.429 -23.061  0.00  0.00    -0.353 OA
ATOM     13  N   UNL     1      35.030 -17.649 -22.719  0.00  0.00    -0.072 NA
ATOM     14  C   UNL     1      34.183 -15.730 -21.931  0.00  0.00    +0.177 C 
ATOM     15  C   UNL     1      34.557 -16.460 -20.834  0.00  0.00    +0.067 C 
ATOM     16  C   UNL     1      35.077 -17.646 -21.384  0.00  0.00    +0.176 C 
BRANCH  16  19
ATOM     17  O   UNL     1      36.827 -18.741 -20.372  0.00  0.00    -0.268 OA
ATOM     18  N   UNL     1      34.779 -19.868 -20.359  0.00  0.00    -0.271 N 
ATOM     19  C   UNL     1      35.619 -18.774 -20.683  0.00  0.00    +0.270 C 
ATOM     20  C   UNL     1      33.365 -19.899 -20.726  0.00  0.00    +0.115 C 
ATOM     21  C   UNL     1      35.269 -21.034 -19.636  0.00  0.00    +0.115 C 
ENDBRANCH  16  19
ENDBRANCH  10  14
BRANCH   3  22
ATOM     22  C   UNL     1      30.943  -9.218 -20.588  0.00  0.00    +0.076 C 
ATOM     23  C   UNL     1      30.745  -9.370 -19.108  0.00  0.00    +0.022 C 
BRANCH  22  24
ATOM     24  C   UNL     1      31.774  -7.985 -20.919  0.00  0.00    +0.018 C 
ATOM     25  C   UNL     1      31.128  -6.833 -21.632  0.00  0.00    +0.002 C 
ATOM     26  C   UNL     1      31.508  -6.703 -20.186  0.00  0.00    +0.002 C 
ENDBRANCH  22  24
ENDBRANCH   3  22
TORSDOF 4
ENDMDL
MODEL 3
REMARK VINA RESULT:     -11.4      2.598      3.802
REMARK  Name = 44556193
REMARK  4 active torsions:
REMARK  status: ('A' for Active; 'I' for Inactive)
REMARK    1  A    between atoms: N_3  and  C_22
REMARK    2  A    between atoms: C_10  and  C_14
REMARK    3  A    between atoms: C_16  and  C_19
REMARK    4  A    between atoms: C_22  and  C_24
REMARK                            x       y       z     vdW  Elec       q    Type
REMARK                         _______ _______ _______ _____ _____    ______ ____
ROOT
ATOM      1 CL   UNL     1      37.013 -21.956 -16.796  0.00  0.00    -0.082 Cl
ATOM      2  O   UNL     1      34.742 -23.292 -15.258  0.00  0.00    -0.270 OA
ATOM      3  N   UNL     1      32.577 -23.017 -16.135  0.00  0.00    -0.274 N 
ATOM      4  C   UNL     1      31.966 -22.349 -17.279  0.00  0.00    +0.121 C 
ATOM      5  C   UNL     1      33.957 -22.857 -16.083  0.00  0.00    +0.250 C 
ATOM      6  C   UNL     1      33.149 -21.741 -17.950  0.00  0.00    +0.003 C 
ATOM      7  C   UNL     1      34.317 -22.040 -17.247  0.00  0.00    +0.062 C 
ATOM      8  C   UNL     1      33.204 -20.976 -19.101  0.00  0.00    +0.001 C 
ATOM      9  C   UNL     1      35.563 -21.600 -17.648  0.00  0.00    +0.062 C 
ATOM     10  C   UNL     1      34.455 -20.518 -19.529  0.00  0.00    +0.038 C 
ATOM     11  C   UNL     1      35.624 -20.829 -18.808  0.00  0.00    +0.015 C 
ENDROOT
BRANCH  10  14
ATOM     12  O   UNL     1      35.802 -19.347 -21.091  0.00  0.00    -0.353 OA
ATOM     13  N   UNL     1      35.736 -18.586 -22.251  0.00  0.00    -0.072 NA
ATOM     14  C   UNL     1      34.548 -19.717 -20.725  0.00  0.00    +0.177 C 
ATOM     15  C   UNL     1      33.640 -19.219 -21.622  0.00  0.00    +0.067 C 
ATOM     16  C   UNL     1      34.436 -18.524 -22.550  0.00  0.00    +0.176 C 
BRANCH  16  19
ATOM     17  O   UNL     1      33.627 -18.466 -24.701  0.00  0.00    -0.268 OA
ATOM     18  N   UNL     1      33.999 -16.387 -23.700  0.00  0.00    -0.271 N 
ATOM     19  C   UNL     1      34.002 -17.803 -23.713  0.00  0.00    +0.270 C 
ATOM     20  C   UNL     1      34.439 -15.618 -22.537  0.00  0.00    +0.115 C 
ATOM     21  C   UNL     1      33.556 -15.601 -24.843  0.00  0.00    +0.115 C 
ENDBRANCH  16  19
ENDBRANCH  10  14
BRANCH   3  22
ATOM     22  C   UNL     1      31.780 -23.756 -15.181  0.00  0.00    +0.076 C 
ATOM     23  C   UNL     1      32.100 -23.308 -13.786  0.00  0.00    +0.022 C 
BRANCH  22  24
ATOM     24  C   UNL     1      30.297 -23.601 -15.495  0.00  0.00    +0.018 C 
ATOM     25  C   UNL     1      29.405 -24.807 -15.448  0.00  0.00    +0.002 C 
ATOM     26  C   UNL     1      29.294 -23.750 -14.389  0.00  0.00    +0.002 C 
ENDBRANCH  22  24
ENDBRANCH   3  22
TORSDOF 4
ENDMDL
MODEL 4
REMARK VINA RESULT:     -10.7      1.752      9.049
REMARK  Name = 44556193
REMARK  4 active torsions:
REMARK  status: ('A' for Active; 'I' for Inactive)
REMARK    1  A    between atoms: N_3  and  C_22
REMARK    2  A    between atoms: C_10  and  C_14
REMARK    3  A    between atoms: C_16  and  C_19
REMARK    4  A    between atoms: C_22  and  C_24
REMARK                            x       y       z     vdW  Elec       q    Type
REMARK                         _______ _______ _______ _____ _____    ______ ____
ROOT
ATOM      1 CL   UNL     1      31.801 -21.508 -18.930  0.00  0.00    -0.082 Cl
ATOM      2  O   UNL     1      32.637 -19.765 -21.290  0.00  0.00    -0.270 OA
ATOM      3  N   UNL     1      34.910 -19.173 -21.402  0.00  0.00    -0.274 N 
ATOM      4  C   UNL     1      36.116 -19.415 -20.619  0.00  0.00    +0.121 C 
ATOM      5  C   UNL     1      33.780 -19.781 -20.868  0.00  0.00    +0.250 C 
ATOM      6  C   UNL     1      35.599 -20.264 -19.510  0.00  0.00    +0.003 C 
ATOM      7  C   UNL     1      34.227 -20.479 -19.658  0.00  0.00    +0.062 C 
ATOM      8  C   UNL     1      36.280 -20.816 -18.440  0.00  0.00    +0.001 C 
ATOM      9  C   UNL     1      33.489 -21.233 -18.767  0.00  0.00    +0.062 C 
ATOM     10  C   UNL     1      35.555 -21.586 -17.524  0.00  0.00    +0.038 C 
ATOM     11  C   UNL     1      34.172 -21.793 -17.687  0.00  0.00    +0.015 C 
ENDROOT
BRANCH  10  14
ATOM     12  O   UNL     1      37.591 -22.159 -16.451  0.00  0.00    -0.353 OA
ATOM     13  N   UNL     1      38.105 -22.755 -15.307  0.00  0.00    -0.072 NA
ATOM     14  C   UNL     1      36.235 -22.175 -16.396  0.00  0.00    +0.177 C 
ATOM     15  C   UNL     1      35.828 -22.772 -15.231  0.00  0.00    +0.067 C 
ATOM     16  C   UNL     1      37.034 -23.113 -14.593  0.00  0.00    +0.176 C 
BRANCH  16  19
ATOM     17  O   UNL     1      37.515 -23.061 -12.346  0.00  0.00    -0.268 OA
ATOM     18  N   UNL     1      37.000 -25.164 -13.226  0.00  0.00    -0.271 N 
ATOM     19  C   UNL     1      37.203 -23.766 -13.327  0.00  0.00    +0.270 C 
ATOM     20  C   UNL     1      36.633 -25.983 -14.380  0.00  0.00    +0.115 C 
ATOM     21  C   UNL     1      37.142 -25.880 -11.966  0.00  0.00    +0.115 C 
ENDBRANCH  16  19
ENDBRANCH  10  14
BRANCH   3  22
ATOM     22  C   UNL     1      34.943 -18.370 -22.606  0.00  0.00    +0.076 C 
ATOM     23  C   UNL     1      34.472 -19.180 -23.778  0.00  0.00    +0.022 C 
BRANCH  22  24
ATOM     24  C   UNL     1      34.110 -17.108 -22.425  0.00  0.00    +0.018 C 
ATOM     25  C   UNL     1      34.606 -16.024 -21.512  0.00  0.00    +0.002 C 
ATOM     26  C   UNL     1      34.608 -15.813 -22.998  0.00  0.00    +0.002 C 
ENDBRANCH  22  24
ENDBRANCH   3  22
TORSDOF 4
ENDMDL
MODEL 5
REMARK VINA RESULT:     -10.2      7.789     14.139
REMARK  Name = 44556193
REMARK  4 active torsions:
REMARK  status: ('A' for Active; 'I' for Inactive)
REMARK    1  A    between atoms: N_3  and  C_22
REMARK    2  A    between atoms: C_10  and  C_14
REMARK    3  A    between atoms: C_16  and  C_19
REMARK    4  A    between atoms: C_22  and  C_24
REMARK                            x       y       z     vdW  Elec       q    Type
REMARK                         _______ _______ _______ _____ _____    ______ ____
ROOT
ATOM      1 CL   UNL     1      30.446 -10.035 -20.010  0.00  0.00    -0.082 Cl
ATOM      2  O   UNL     1      31.208  -7.189 -20.802  0.00  0.00    -0.270 OA
ATOM      3  N   UNL     1      32.619  -6.963 -22.669  0.00  0.00    -0.274 N 
ATOM      4  C   UNL     1      33.279  -7.848 -23.622  0.00  0.00    +0.121 C 
ATOM      5  C   UNL     1      31.868  -7.645 -21.719  0.00  0.00    +0.250 C 
ATOM      6  C   UNL     1      32.843  -9.191 -23.149  0.00  0.00    +0.003 C 
ATOM      7  C   UNL     1      32.014  -9.070 -22.031  0.00  0.00    +0.062 C 
ATOM      8  C   UNL     1      33.148 -10.440 -23.658  0.00  0.00    +0.001 C 
ATOM      9  C   UNL     1      31.466 -10.161 -21.386  0.00  0.00    +0.062 C 
ATOM     10  C   UNL     1      32.605 -11.562 -23.023  0.00  0.00    +0.038 C 
ATOM     11  C   UNL     1      31.771 -11.423 -21.897  0.00  0.00    +0.015 C 
ENDROOT
BRANCH  10  14
ATOM     12  O   UNL     1      32.702 -13.060 -24.859  0.00  0.00    -0.353 OA
ATOM     13  N   UNL     1      33.029 -14.365 -25.202  0.00  0.00    -0.072 NA
ATOM     14  C   UNL     1      32.904 -12.880 -23.529  0.00  0.00    +0.177 C 
ATOM     15  C   UNL     1      33.363 -14.044 -22.971  0.00  0.00    +0.067 C 
ATOM     16  C   UNL     1      33.422 -14.934 -24.058  0.00  0.00    +0.176 C 
BRANCH  16  19
ATOM     17  O   UNL     1      33.707 -16.964 -25.100  0.00  0.00    -0.268 OA
ATOM     18  N   UNL     1      34.395 -16.861 -22.868  0.00  0.00    -0.271 N 
ATOM     19  C   UNL     1      33.840 -16.307 -24.048  0.00  0.00    +0.270 C 
ATOM     20  C   UNL     1      34.549 -16.084 -21.640  0.00  0.00    +0.115 C 
ATOM     21  C   UNL     1      34.852 -18.243 -22.802  0.00  0.00    +0.115 C 
ENDBRANCH  16  19
ENDBRANCH  10  14
BRANCH   3  22
ATOM     22  C   UNL     1      32.768  -5.526 -22.751  0.00  0.00    +0.076 C 
ATOM     23  C   UNL     1      33.852  -5.175 -23.726  0.00  0.00    +0.022 C 
BRANCH  22  24
ATOM     24  C   UNL     1      31.442  -4.876 -23.127  0.00  0.00    +0.018 C 
ATOM     25  C   UNL     1      30.767  -3.962 -22.145  0.00  0.00    +0.002 C 
ATOM     26  C   UNL     1      31.398  -3.398 -23.385  0.00  0.00    +0.002 C 
ENDBRANCH  22  24
ENDBRANCH   3  22
TORSDOF 4
ENDMDL
MODEL 6
REMARK VINA RESULT:     -10.1      9.809     14.296
REMARK  Name = 44556193
REMARK  4 active torsions:
REMARK  status: ('A' for Active; 'I' for Inactive)
REMARK    1  A    between atoms: N_3  and  C_22
REMARK    2  A    between atoms: C_10  and  C_14
REMARK    3  A    between atoms: C_16  and  C_19
REMARK    4  A    between atoms: C_22  and  C_24
REMARK                            x       y       z     vdW  Elec       q    Type
REMARK                         _______ _______ _______ _____ _____    ______ ____
ROOT
ATOM      1 CL   UNL     1      30.830  -9.592 -19.033  0.00  0.00    -0.082 Cl
ATOM      2  O   UNL     1      31.670 -12.226 -20.323  0.00  0.00    -0.270 OA
ATOM      3  N   UNL     1      32.316 -12.128 -22.582  0.00  0.00    -0.274 N 
ATOM      4  C   UNL     1      32.440 -11.104 -23.613  0.00  0.00    +0.121 C 
ATOM      5  C   UNL     1      31.870 -11.627 -21.364  0.00  0.00    +0.250 C 
ATOM      6  C   UNL     1      32.013  -9.878 -22.884  0.00  0.00    +0.003 C 
ATOM      7  C   UNL     1      31.678 -10.186 -21.563  0.00  0.00    +0.062 C 
ATOM      8  C   UNL     1      31.921  -8.576 -23.340  0.00  0.00    +0.001 C 
ATOM      9  C   UNL     1      31.247  -9.234 -20.660  0.00  0.00    +0.062 C 
ATOM     10  C   UNL     1      31.486  -7.592 -22.445  0.00  0.00    +0.038 C 
ATOM     11  C   UNL     1      31.154  -7.919 -21.117  0.00  0.00    +0.015 C 
ENDROOT
BRANCH  10  14
ATOM     12  O   UNL     1      32.008  -5.302 -22.117  0.00  0.00    -0.353 OA
ATOM     13  N   UNL     1      31.821  -4.039 -22.663  0.00  0.00    -0.072 NA
ATOM     14  C   UNL     1      31.379  -6.224 -22.890  0.00  0.00    +0.177 C 
ATOM     15  C   UNL     1      30.772  -5.601 -23.948  0.00  0.00    +0.067 C 
ATOM     16  C   UNL     1      31.080  -4.242 -23.757  0.00  0.00    +0.176 C 
BRANCH  16  19
ATOM     17  O   UNL     1      29.786  -2.386 -24.162  0.00  0.00    -0.268 OA
ATOM     18  N   UNL     1      31.360  -2.906 -25.810  0.00  0.00    -0.271 N 
ATOM     19  C   UNL     1      30.696  -3.130 -24.578  0.00  0.00    +0.270 C 
ATOM     20  C   UNL     1      32.426  -3.783 -26.290  0.00  0.00    +0.115 C 
ATOM     21  C   UNL     1      31.025  -1.787 -26.679  0.00  0.00    +0.115 C 
ENDBRANCH  16  19
ENDBRANCH  10  14
BRANCH   3  22
ATOM     22  C   UNL     1      32.636 -13.513 -22.854  0.00  0.00    +0.076 C 
ATOM     23  C   UNL     1      32.726 -13.739 -24.335  0.00  0.00    +0.022 C 
BRANCH  22  24
ATOM     24  C   UNL     1      33.927 -13.908 -22.147  0.00  0.00    +0.018 C 
ATOM     25  C   UNL     1      33.863 -14.823 -20.959  0.00  0.00    +0.002 C 
ATOM     26  C   UNL     1      34.422 -15.320 -22.261  0.00  0.00    +0.002 C 
ENDBRANCH  22  24
ENDBRANCH   3  22
TORSDOF 4
ENDMDL
MODEL 7
REMARK VINA RESULT:     -10.1      7.189     13.779
REMARK  Name = 44556193
REMARK  4 active torsions:
REMARK  status: ('A' for Active; 'I' for Inactive)
REMARK    1  A    between atoms: N_3  and  C_22
REMARK    2  A    between atoms: C_10  and  C_14
REMARK    3  A    between atoms: C_16  and  C_19
REMARK    4  A    between atoms: C_22  and  C_24
REMARK                            x       y       z     vdW  Elec       q    Type
REMARK                         _______ _______ _______ _____ _____    ______ ____
ROOT
ATOM      1 CL   UNL     1      29.843 -10.232 -20.902  0.00  0.00    -0.082 Cl
ATOM      2  O   UNL     1      30.688  -7.595 -22.183  0.00  0.00    -0.270 OA
ATOM      3  N   UNL     1      32.660  -7.636 -23.464  0.00  0.00    -0.274 N 
ATOM      4  C   UNL     1      33.662  -8.624 -23.849  0.00  0.00    +0.121 C 
ATOM      5  C   UNL     1      31.656  -8.162 -22.660  0.00  0.00    +0.250 C 
ATOM      6  C   UNL     1      33.156  -9.854 -23.180  0.00  0.00    +0.003 C 
ATOM      7  C   UNL     1      31.978  -9.582 -22.482  0.00  0.00    +0.062 C 
ATOM      8  C   UNL     1      33.688 -11.131 -23.179  0.00  0.00    +0.001 C 
ATOM      9  C   UNL     1      31.293 -10.546 -21.768  0.00  0.00    +0.062 C 
ATOM     10  C   UNL     1      33.013 -12.126 -22.463  0.00  0.00    +0.038 C 
ATOM     11  C   UNL     1      31.826 -11.835 -21.765  0.00  0.00    +0.015 C 
ENDROOT
BRANCH  10  14
ATOM     12  O   UNL     1      34.099 -13.901 -23.601  0.00  0.00    -0.353 OA
ATOM     13  N   UNL     1      34.562 -15.200 -23.432  0.00  0.00    -0.072 NA
ATOM     14  C   UNL     1      33.541 -13.469 -22.442  0.00  0.00    +0.177 C 
ATOM     15  C   UNL     1      33.623 -14.456 -21.495  0.00  0.00    +0.067 C 
ATOM     16  C   UNL     1      34.267 -15.510 -22.167  0.00  0.00    +0.176 C 
BRANCH  16  19
ATOM     17  O   UNL     1      35.120 -16.853 -20.508  0.00  0.00    -0.268 OA
ATOM     18  N   UNL     1      34.361 -17.960 -22.421  0.00  0.00    -0.271 N 
ATOM     19  C   UNL     1      34.613 -16.801 -21.646  0.00  0.00    +0.270 C 
ATOM     20  C   UNL     1      33.766 -17.891 -23.754  0.00  0.00    +0.115 C 
ATOM     21  C   UNL     1      34.676 -19.298 -21.940  0.00  0.00    +0.115 C 
ENDBRANCH  16  19
ENDBRANCH  10  14
BRANCH   3  22
ATOM     22  C   UNL     1      32.753  -6.260 -23.902  0.00  0.00    +0.076 C 
ATOM     23  C   UNL     1      33.059  -5.369 -22.734  0.00  0.00    +0.022 C 
BRANCH  22  24
ATOM     24  C   UNL     1      33.797  -6.123 -25.002  0.00  0.00    +0.018 C 
ATOM     25  C   UNL     1      33.407  -5.503 -26.313  0.00  0.00    +0.002 C 
ATOM     26  C   UNL     1      34.302  -4.757 -25.367  0.00  0.00    +0.002 C 
ENDBRANCH  22  24
ENDBRANCH   3  22
TORSDOF 4
ENDMDL
MODEL 8
REMARK VINA RESULT:      -9.5      2.134      8.982
REMARK  Name = 44556193
REMARK  4 active torsions:
REMARK  status: ('A' for Active; 'I' for Inactive)
REMARK    1  A    between atoms: N_3  and  C_22
REMARK    2  A    between atoms: C_10  and  C_14
REMARK    3  A    between atoms: C_16  and  C_19
REMARK    4  A    between atoms: C_22  and  C_24
REMARK                            x       y       z     vdW  Elec       q    Type
REMARK                         _______ _______ _______ _____ _____    ______ ____
ROOT
ATOM      1 CL   UNL     1      31.683 -22.451 -17.060  0.00  0.00    -0.082 Cl
ATOM      2  O   UNL     1      32.204 -20.812 -19.579  0.00  0.00    -0.270 OA
ATOM      3  N   UNL     1      34.451 -20.302 -20.052  0.00  0.00    -0.274 N 
ATOM      4  C   UNL     1      35.754 -20.561 -19.450  0.00  0.00    +0.121 C 
ATOM      5  C   UNL     1      33.397 -20.854 -19.333  0.00  0.00    +0.250 C 
ATOM      6  C   UNL     1      35.385 -21.358 -18.247  0.00  0.00    +0.003 C 
ATOM      7  C   UNL     1      34.001 -21.529 -18.179  0.00  0.00    +0.062 C 
ATOM      8  C   UNL     1      36.203 -21.899 -17.272  0.00  0.00    +0.001 C 
ATOM      9  C   UNL     1      33.384 -22.230 -17.162  0.00  0.00    +0.062 C 
ATOM     10  C   UNL     1      35.602 -22.615 -16.230  0.00  0.00    +0.038 C 
ATOM     11  C   UNL     1      34.205 -22.779 -16.177  0.00  0.00    +0.015 C 
ENDROOT
BRANCH  10  14
ATOM     12  O   UNL     1      36.556 -22.455 -14.065  0.00  0.00    -0.353 OA
ATOM     13  N   UNL     1      37.371 -23.131 -13.166  0.00  0.00    -0.072 NA
ATOM     14  C   UNL     1      36.427 -23.192 -15.197  0.00  0.00    +0.177 C 
ATOM     15  C   UNL     1      37.141 -24.355 -15.073  0.00  0.00    +0.067 C 
ATOM     16  C   UNL     1      37.708 -24.263 -13.789  0.00  0.00    +0.176 C 
BRANCH  16  19
ATOM     17  O   UNL     1      38.181 -25.674 -12.037  0.00  0.00    -0.268 OA
ATOM     18  N   UNL     1      39.772 -25.611 -13.749  0.00  0.00    -0.271 N 
ATOM     19  C   UNL     1      38.558 -25.216 -13.135  0.00  0.00    +0.270 C 
ATOM     20  C   UNL     1      40.206 -25.070 -15.035  0.00  0.00    +0.115 C 
ATOM     21  C   UNL     1      40.667 -26.585 -13.140  0.00  0.00    +0.115 C 
ENDBRANCH  16  19
ENDBRANCH  10  14
BRANCH   3  22
ATOM     22  C   UNL     1      34.325 -19.539 -21.275  0.00  0.00    +0.076 C 
ATOM     23  C   UNL     1      32.877 -19.326 -21.603  0.00  0.00    +0.022 C 
BRANCH  22  24
ATOM     24  C   UNL     1      35.073 -18.217 -21.155  0.00  0.00    +0.018 C 
ATOM     25  C   UNL     1      36.377 -18.042 -21.878  0.00  0.00    +0.002 C 
ATOM     26  C   UNL     1      35.153 -17.309 -22.347  0.00  0.00    +0.002 C 
ENDBRANCH  22  24
ENDBRANCH   3  22
TORSDOF 4
ENDMDL
MODEL 9
REMARK VINA RESULT:      -9.4      9.042     13.512
REMARK  Name = 44556193
REMARK  4 active torsions:
REMARK  status: ('A' for Active; 'I' for Inactive)
REMARK    1  A    between atoms: N_3  and  C_22
REMARK    2  A    between atoms: C_10  and  C_14
REMARK    3  A    between atoms: C_16  and  C_19
REMARK    4  A    between atoms: C_22  and  C_24
REMARK                            x       y       z     vdW  Elec       q    Type
REMARK                         _______ _______ _______ _____ _____    ______ ____
ROOT
ATOM      1 CL   UNL     1      31.154 -10.514 -19.495  0.00  0.00    -0.082 Cl
ATOM      2  O   UNL     1      31.990 -13.186 -20.706  0.00  0.00    -0.270 OA
ATOM      3  N   UNL     1      32.798 -13.129 -22.914  0.00  0.00    -0.274 N 
ATOM      4  C   UNL     1      33.031 -12.119 -23.940  0.00  0.00    +0.121 C 
ATOM      5  C   UNL     1      32.285 -12.602 -21.734  0.00  0.00    +0.250 C 
ATOM      6  C   UNL     1      32.596 -10.872 -23.250  0.00  0.00    +0.003 C 
ATOM      7  C   UNL     1      32.158 -11.158 -21.955  0.00  0.00    +0.062 C 
ATOM      8  C   UNL     1      32.583  -9.572 -23.719  0.00  0.00    +0.001 C 
ATOM      9  C   UNL     1      31.698 -10.184 -21.091  0.00  0.00    +0.062 C 
ATOM     10  C   UNL     1      32.121  -8.566 -22.863  0.00  0.00    +0.038 C 
ATOM     11  C   UNL     1      31.684  -8.870 -21.560  0.00  0.00    +0.015 C 
ENDROOT
BRANCH  10  14
ATOM     12  O   UNL     1      33.154  -6.433 -22.957  0.00  0.00    -0.353 OA
ATOM     13  N   UNL     1      32.993  -5.151 -23.467  0.00  0.00    -0.072 NA
ATOM     14  C   UNL     1      32.094  -7.198 -23.322  0.00  0.00    +0.177 C 
ATOM     15  C   UNL     1      31.223  -6.452 -24.071  0.00  0.00    +0.067 C 
ATOM     16  C   UNL     1      31.833  -5.186 -24.129  0.00  0.00    +0.176 C 
BRANCH  16  19
ATOM     17  O   UNL     1      31.516  -3.929 -26.027  0.00  0.00    -0.268 OA
ATOM     18  N   UNL     1      30.703  -2.996 -24.044  0.00  0.00    -0.271 N 
ATOM     19  C   UNL     1      31.352  -4.009 -24.793  0.00  0.00    +0.270 C 
ATOM     20  C   UNL     1      30.514  -3.098 -22.599  0.00  0.00    +0.115 C 
ATOM     21  C   UNL     1      30.181  -1.787 -24.665  0.00  0.00    +0.115 C 
ENDBRANCH  16  19
ENDBRANCH  10  14
BRANCH   3  22
ATOM     22  C   UNL     1      33.087 -14.526 -23.155  0.00  0.00    +0.076 C 
ATOM     23  C   UNL     1      33.189 -14.784 -24.629  0.00  0.00    +0.022 C 
BRANCH  22  24
ATOM     24  C   UNL     1      34.359 -14.938 -22.424  0.00  0.00    +0.018 C 
ATOM     25  C   UNL     1      34.254 -15.761 -21.173  0.00  0.00    +0.002 C 
ATOM     26  C   UNL     1      34.778 -16.379 -22.437  0.00  0.00    +0.002 C 
ENDBRANCH  22  24
ENDBRANCH   3  22
TORSDOF 4
ENDMDL
