MODEL 1
REMARK VINA RESULT:     -13.8      0.000      0.000
REMARK  Name = 11634458
REMARK  5 active torsions:
REMARK  status: ('A' for Active; 'I' for Inactive)
REMARK    1  A    between atoms: N_3  and  C_11
REMARK    2  A    between atoms: C_4  and  C_19
REMARK    3  A    between atoms: C_5  and  O_35
REMARK    4  A    between atoms: N_18  and  C_22
REMARK    5  A    between atoms: C_25  and  N_29
REMARK                            x       y       z     vdW  Elec       q    Type
REMARK                         _______ _______ _______ _____ _____    ______ ____
ROOT
ATOM      1  O   UNL     1      31.612 -23.069 -12.855  0.00  0.00    -0.252 OA
ATOM      2  N   UNL     1      33.452 -23.529 -14.150  0.00  0.00    -0.255 N 
ATOM      3  N   UNL     1      31.392 -23.070 -15.175  0.00  0.00    -0.268 N 
ATOM      4  C   UNL     1      34.141 -23.884 -15.390  0.00  0.00    +0.156 C 
ATOM      5  C   UNL     1      35.716 -23.936 -13.570  0.00  0.00    +0.137 C 
ATOM      6  C   UNL     1      35.442 -24.549 -14.941  0.00  0.00    +0.061 C 
ATOM      7  C   UNL     1      34.328 -23.703 -12.993  0.00  0.00    +0.125 C 
ATOM      8  C   UNL     1      32.097 -23.210 -13.979  0.00  0.00    +0.308 C 
ATOM      9  H   UNL     1      31.910 -23.211 -16.001  0.00  0.00    +0.156 HD
ENDROOT
BRANCH   3  11
ATOM     10 CL   UNL     1      25.668 -21.724 -15.889  0.00  0.00    -0.082 Cl
ATOM     11  C   UNL     1      30.023 -22.748 -15.346  0.00  0.00    +0.052 C 
ATOM     12  C   UNL     1      29.347 -23.179 -16.484  0.00  0.00    +0.016 C 
ATOM     13  C   UNL     1      29.361 -22.002 -14.375  0.00  0.00    +0.016 C 
ATOM     14  C   UNL     1      27.998 -22.862 -16.653  0.00  0.00    +0.013 C 
ATOM     15  C   UNL     1      28.013 -21.685 -14.543  0.00  0.00    +0.013 C 
ATOM     16  C   UNL     1      27.332 -22.115 -15.682  0.00  0.00    +0.058 C 
ENDBRANCH   3  11
BRANCH   4  19
ATOM     17  O   UNL     1      34.979 -21.675 -15.629  0.00  0.00    -0.273 OA
ATOM     18  N   UNL     1      33.951 -22.728 -17.465  0.00  0.00    -0.281 N 
ATOM     19  C   UNL     1      34.415 -22.627 -16.160  0.00  0.00    +0.244 C 
ATOM     20  H   UNL     1      33.518 -23.578 -17.709  0.00  0.00    +0.155 HD
BRANCH  18  22
ATOM     21  F   UNL     1      36.400 -21.788 -18.377  0.00  0.00    -0.203 F 
ATOM     22  C   UNL     1      34.028 -21.750 -18.486  0.00  0.00    +0.078 C 
ATOM     23  C   UNL     1      35.268 -21.308 -18.913  0.00  0.00    +0.155 C 
ATOM     24  C   UNL     1      32.856 -21.256 -19.035  0.00  0.00    +0.018 C 
ATOM     25  C   UNL     1      34.169 -19.835 -20.481  0.00  0.00    +0.061 C 
ATOM     26  C   UNL     1      35.340 -20.343 -19.917  0.00  0.00    +0.046 C 
ATOM     27  C   UNL     1      32.928 -20.291 -20.040  0.00  0.00    +0.017 C 
BRANCH  25  29
ATOM     28  O   UNL     1      35.346 -17.208 -20.195  0.00  0.00    -0.269 OA
ATOM     29  N   UNL     1      34.244 -18.831 -21.526  0.00  0.00    -0.233 N 
ATOM     30  C   UNL     1      34.885 -17.591 -21.271  0.00  0.00    +0.257 C 
ATOM     31  C   UNL     1      33.671 -19.067 -22.777  0.00  0.00    +0.072 C 
ATOM     32  C   UNL     1      34.960 -16.633 -22.416  0.00  0.00    +0.059 C 
ATOM     33  C   UNL     1      33.722 -18.179 -23.775  0.00  0.00    +0.017 C 
ATOM     34  C   UNL     1      34.394 -16.929 -23.588  0.00  0.00    +0.006 C 
ENDBRANCH  25  29
ENDBRANCH  18  22
ENDBRANCH   4  19
BRANCH   5  35
ATOM     35  O   UNL     1      36.401 -22.698 -13.725  0.00  0.00    -0.352 OA
ATOM     36  C   UNL     1      37.127 -22.354 -12.553  0.00  0.00    +0.174 C 
ENDBRANCH   5  35
TORSDOF 5
ENDMDL
MODEL 2
REMARK VINA RESULT:     -12.8      9.956     15.803
REMARK  Name = 11634458
REMARK  5 active torsions:
REMARK  status: ('A' for Active; 'I' for Inactive)
REMARK    1  A    between atoms: N_3  and  C_11
REMARK    2  A    between atoms: C_4  and  C_19
REMARK    3  A    between atoms: C_5  and  O_35
REMARK    4  A    between atoms: N_18  and  C_22
REMARK    5  A    between atoms: C_25  and  N_29
REMARK                            x       y       z     vdW  Elec       q    Type
REMARK                         _______ _______ _______ _____ _____    ______ ____
ROOT
ATOM      1  O   UNL     1      33.370  -4.377 -23.587  0.00  0.00    -0.252 OA
ATOM      2  N   UNL     1      32.151  -6.162 -22.809  0.00  0.00    -0.255 N 
ATOM      3  N   UNL     1      32.941  -6.166 -25.019  0.00  0.00    -0.268 N 
ATOM      4  C   UNL     1      31.365  -7.387 -22.948  0.00  0.00    +0.156 C 
ATOM      5  C   UNL     1      31.259  -6.635 -20.663  0.00  0.00    +0.137 C 
ATOM      6  C   UNL     1      30.473  -7.424 -21.706  0.00  0.00    +0.061 C 
ATOM      7  C   UNL     1      31.988  -5.579 -21.480  0.00  0.00    +0.125 C 
ATOM      8  C   UNL     1      32.865  -5.480 -23.806  0.00  0.00    +0.308 C 
ATOM      9  H   UNL     1      32.490  -7.041 -25.049  0.00  0.00    +0.156 HD
ENDROOT
BRANCH   3  11
ATOM     10 CL   UNL     1      35.652  -4.458 -30.000  0.00  0.00    -0.082 Cl
ATOM     11  C   UNL     1      33.589  -5.758 -26.210  0.00  0.00    +0.052 C 
ATOM     12  C   UNL     1      34.962  -5.526 -26.207  0.00  0.00    +0.016 C 
ATOM     13  C   UNL     1      32.850  -5.590 -27.379  0.00  0.00    +0.016 C 
ATOM     14  C   UNL     1      35.601  -5.123 -27.381  0.00  0.00    +0.013 C 
ATOM     15  C   UNL     1      33.489  -5.188 -28.551  0.00  0.00    +0.013 C 
ATOM     16  C   UNL     1      34.864  -4.954 -28.552  0.00  0.00    +0.058 C 
ENDBRANCH   3  11
BRANCH   4  19
ATOM     17  O   UNL     1      33.497  -8.398 -23.208  0.00  0.00    -0.273 OA
ATOM     18  N   UNL     1      31.633  -9.743 -22.709  0.00  0.00    -0.281 N 
ATOM     19  C   UNL     1      32.304  -8.557 -22.973  0.00  0.00    +0.244 C 
ATOM     20  H   UNL     1      30.664  -9.669 -22.545  0.00  0.00    +0.155 HD
BRANCH  18  22
ATOM     21  F   UNL     1      31.156 -11.404 -20.535  0.00  0.00    -0.203 F 
ATOM     22  C   UNL     1      32.179 -11.047 -22.648  0.00  0.00    +0.078 C 
ATOM     23  C   UNL     1      31.917 -11.844 -21.547  0.00  0.00    +0.155 C 
ATOM     24  C   UNL     1      32.966 -11.498 -23.695  0.00  0.00    +0.018 C 
ATOM     25  C   UNL     1      33.253 -13.597 -22.536  0.00  0.00    +0.061 C 
ATOM     26  C   UNL     1      32.457 -13.128 -21.490  0.00  0.00    +0.046 C 
ATOM     27  C   UNL     1      33.507 -12.782 -23.638  0.00  0.00    +0.017 C 
BRANCH  25  29
ATOM     28  O   UNL     1      34.198 -14.908 -20.136  0.00  0.00    -0.269 OA
ATOM     29  N   UNL     1      33.815 -14.933 -22.476  0.00  0.00    -0.233 N 
ATOM     30  C   UNL     1      34.207 -15.480 -21.227  0.00  0.00    +0.257 C 
ATOM     31  C   UNL     1      33.996 -15.679 -23.643  0.00  0.00    +0.072 C 
ATOM     32  C   UNL     1      34.732 -16.880 -21.248  0.00  0.00    +0.059 C 
ATOM     33  C   UNL     1      34.500 -16.917 -23.639  0.00  0.00    +0.017 C 
ATOM     34  C   UNL     1      34.871 -17.536 -22.402  0.00  0.00    +0.006 C 
ENDBRANCH  25  29
ENDBRANCH  18  22
ENDBRANCH   4  19
BRANCH   5  35
ATOM     35  O   UNL     1      32.194  -7.492 -20.017  0.00  0.00    -0.352 OA
ATOM     36  C   UNL     1      31.541  -8.531 -19.302  0.00  0.00    +0.174 C 
ENDBRANCH   5  35
TORSDOF 5
ENDMDL
MODEL 3
REMARK VINA RESULT:     -12.5      1.318      1.671
REMARK  Name = 11634458
REMARK  5 active torsions:
REMARK  status: ('A' for Active; 'I' for Inactive)
REMARK    1  A    between atoms: N_3  and  C_11
REMARK    2  A    between atoms: C_4  and  C_19
REMARK    3  A    between atoms: C_5  and  O_35
REMARK    4  A    between atoms: N_18  and  C_22
REMARK    5  A    between atoms: C_25  and  N_29
REMARK                            x       y       z     vdW  Elec       q    Type
REMARK                         _______ _______ _______ _____ _____    ______ ____
ROOT
ATOM      1  O   UNL     1      32.290 -23.321 -12.411  0.00  0.00    -0.252 OA
ATOM      2  N   UNL     1      34.232 -23.884 -13.499  0.00  0.00    -0.255 N 
ATOM      3  N   UNL     1      32.260 -23.563 -14.729  0.00  0.00    -0.268 N 
ATOM      4  C   UNL     1      35.022 -24.353 -14.636  0.00  0.00    +0.156 C 
ATOM      5  C   UNL     1      36.443 -24.196 -12.699  0.00  0.00    +0.137 C 
ATOM      6  C   UNL     1      36.287 -24.949 -14.018  0.00  0.00    +0.061 C 
ATOM      7  C   UNL     1      35.012 -23.925 -12.264  0.00  0.00    +0.125 C 
ATOM      8  C   UNL     1      32.865 -23.569 -13.472  0.00  0.00    +0.308 C 
ATOM      9  H   UNL     1      32.844 -23.780 -15.491  0.00  0.00    +0.156 HD
ENDROOT
BRANCH   3  11
ATOM     10 CL   UNL     1      26.605 -22.382 -16.037  0.00  0.00    -0.082 Cl
ATOM     11  C   UNL     1      30.908 -23.280 -15.042  0.00  0.00    +0.052 C 
ATOM     12  C   UNL     1      29.900 -24.121 -14.579  0.00  0.00    +0.016 C 
ATOM     13  C   UNL     1      30.594 -22.163 -15.812  0.00  0.00    +0.016 C 
ATOM     14  C   UNL     1      28.567 -23.843 -14.887  0.00  0.00    +0.013 C 
ATOM     15  C   UNL     1      29.262 -21.885 -16.120  0.00  0.00    +0.013 C 
ATOM     16  C   UNL     1      28.249 -22.725 -15.657  0.00  0.00    +0.058 C 
ENDBRANCH   3  11
BRANCH   4  19
ATOM     17  O   UNL     1      36.193 -22.355 -15.161  0.00  0.00    -0.273 OA
ATOM     18  N   UNL     1      34.592 -23.189 -16.671  0.00  0.00    -0.281 N 
ATOM     19  C   UNL     1      35.351 -23.177 -15.508  0.00  0.00    +0.244 C 
ATOM     20  H   UNL     1      33.961 -23.937 -16.772  0.00  0.00    +0.155 HD
BRANCH  18  22
ATOM     21  F   UNL     1      32.313 -22.611 -18.147  0.00  0.00    -0.203 F 
ATOM     22  C   UNL     1      34.622 -22.249 -17.728  0.00  0.00    +0.078 C 
ATOM     23  C   UNL     1      33.463 -21.989 -18.439  0.00  0.00    +0.155 C 
ATOM     24  C   UNL     1      35.813 -21.609 -18.028  0.00  0.00    +0.018 C 
ATOM     25  C   UNL     1      34.688 -20.409 -19.797  0.00  0.00    +0.061 C 
ATOM     26  C   UNL     1      33.496 -21.062 -19.482  0.00  0.00    +0.046 C 
ATOM     27  C   UNL     1      35.846 -20.682 -19.071  0.00  0.00    +0.017 C 
BRANCH  25  29
ATOM     28  O   UNL     1      36.688 -18.348 -20.142  0.00  0.00    -0.269 OA
ATOM     29  N   UNL     1      34.722 -19.446 -20.882  0.00  0.00    -0.233 N 
ATOM     30  C   UNL     1      35.782 -18.507 -20.961  0.00  0.00    +0.257 C 
ATOM     31  C   UNL     1      33.705 -19.420 -21.838  0.00  0.00    +0.072 C 
ATOM     32  C   UNL     1      35.767 -17.582 -22.135  0.00  0.00    +0.059 C 
ATOM     33  C   UNL     1      33.696 -18.560 -22.861  0.00  0.00    +0.017 C 
ATOM     34  C   UNL     1      34.764 -17.619 -23.016  0.00  0.00    +0.006 C 
ENDBRANCH  25  29
ENDBRANCH  18  22
ENDBRANCH   4  19
BRANCH   5  35
ATOM     35  O   UNL     1      37.131 -22.971 -12.926  0.00  0.00    -0.352 OA
ATOM     36  C   UNL     1      37.049 -22.111 -11.797  0.00  0.00    +0.174 C 
ENDBRANCH   5  35
TORSDOF 5
ENDMDL
MODEL 4
REMARK VINA RESULT:     -12.1      2.010      2.868
REMARK  Name = 11634458
REMARK  5 active torsions:
REMARK  status: ('A' for Active; 'I' for Inactive)
REMARK    1  A    between atoms: N_3  and  C_11
REMARK    2  A    between atoms: C_4  and  C_19
REMARK    3  A    between atoms: C_5  and  O_35
REMARK    4  A    between atoms: N_18  and  C_22
REMARK    5  A    between atoms: C_25  and  N_29
REMARK                            x       y       z     vdW  Elec       q    Type
REMARK                         _______ _______ _______ _____ _____    ______ ____
ROOT
ATOM      1  O   UNL     1      33.490 -23.037 -11.726  0.00  0.00    -0.252 OA
ATOM      2  N   UNL     1      35.213 -24.273 -12.608  0.00  0.00    -0.255 N 
ATOM      3  N   UNL     1      33.143 -24.211 -13.710  0.00  0.00    -0.268 N 
ATOM      4  C   UNL     1      35.803 -25.279 -13.489  0.00  0.00    +0.156 C 
ATOM      5  C   UNL     1      37.466 -24.538 -11.913  0.00  0.00    +0.137 C 
ATOM      6  C   UNL     1      37.070 -25.740 -12.768  0.00  0.00    +0.061 C 
ATOM      7  C   UNL     1      36.134 -23.909 -11.533  0.00  0.00    +0.125 C 
ATOM      8  C   UNL     1      33.899 -23.783 -12.618  0.00  0.00    +0.308 C 
ATOM      9  H   UNL     1      33.602 -24.806 -14.346  0.00  0.00    +0.156 HD
ENDROOT
BRANCH   3  11
ATOM     10 CL   UNL     1      27.513 -22.882 -14.984  0.00  0.00    -0.082 Cl
ATOM     11  C   UNL     1      31.797 -23.893 -14.015  0.00  0.00    +0.052 C 
ATOM     12  C   UNL     1      30.791 -24.823 -13.763  0.00  0.00    +0.016 C 
ATOM     13  C   UNL     1      31.485 -22.653 -14.565  0.00  0.00    +0.016 C 
ATOM     14  C   UNL     1      29.465 -24.511 -14.063  0.00  0.00    +0.013 C 
ATOM     15  C   UNL     1      30.160 -22.340 -14.865  0.00  0.00    +0.013 C 
ATOM     16  C   UNL     1      29.149 -23.269 -14.614  0.00  0.00    +0.058 C 
ENDBRANCH   3  11
BRANCH   4  19
ATOM     17  O   UNL     1      37.071 -25.034 -15.481  0.00  0.00    -0.273 OA
ATOM     18  N   UNL     1      35.263 -23.584 -15.075  0.00  0.00    -0.281 N 
ATOM     19  C   UNL     1      36.133 -24.631 -14.800  0.00  0.00    +0.244 C 
ATOM     20  H   UNL     1      34.568 -23.407 -14.400  0.00  0.00    +0.155 HD
BRANCH  18  22
ATOM     21  F   UNL     1      37.431 -21.952 -15.661  0.00  0.00    -0.203 F 
ATOM     22  C   UNL     1      35.260 -22.741 -16.211  0.00  0.00    +0.078 C 
ATOM     23  C   UNL     1      36.361 -21.943 -16.469  0.00  0.00    +0.155 C 
ATOM     24  C   UNL     1      34.152 -22.734 -17.042  0.00  0.00    +0.018 C 
ATOM     25  C   UNL     1      35.246 -21.092 -18.436  0.00  0.00    +0.061 C 
ATOM     26  C   UNL     1      36.355 -21.112 -17.589  0.00  0.00    +0.046 C 
ATOM     27  C   UNL     1      34.145 -21.903 -18.163  0.00  0.00    +0.017 C 
BRANCH  25  29
ATOM     28  O   UNL     1      32.981 -20.655 -20.181  0.00  0.00    -0.269 OA
ATOM     29  N   UNL     1      35.240 -20.228 -19.602  0.00  0.00    -0.233 N 
ATOM     30  C   UNL     1      34.049 -20.066 -20.355  0.00  0.00    +0.257 C 
ATOM     31  C   UNL     1      36.404 -19.569 -20.002  0.00  0.00    +0.072 C 
ATOM     32  C   UNL     1      34.116 -19.121 -21.511  0.00  0.00    +0.059 C 
ATOM     33  C   UNL     1      36.446 -18.755 -21.061  0.00  0.00    +0.017 C 
ATOM     34  C   UNL     1      35.264 -18.520 -21.832  0.00  0.00    +0.006 C 
ENDBRANCH  25  29
ENDBRANCH  18  22
ENDBRANCH   4  19
BRANCH   5  35
ATOM     35  O   UNL     1      38.237 -23.630 -12.691  0.00  0.00    -0.352 OA
ATOM     36  C   UNL     1      39.351 -24.275 -13.293  0.00  0.00    +0.174 C 
ENDBRANCH   5  35
TORSDOF 5
ENDMDL
