MODEL 1
REMARK VINA RESULT:     -12.9      0.000      0.000
REMARK  Name = 16122642
REMARK  7 active torsions:
REMARK  status: ('A' for Active; 'I' for Inactive)
REMARK    1  A    between atoms: C_2  and  C_10
REMARK    2  A    between atoms: C_3  and  O_18
REMARK    3  A    between atoms: O_18  and  C_19
REMARK    4  A    between atoms: C_19  and  C_20
REMARK    5  A    between atoms: C_20  and  N_21
REMARK    6  A    between atoms: C_20  and  C_25
REMARK    7  A    between atoms: C_25  and  C_27
REMARK                            x       y       z     vdW  Elec       q    Type
REMARK                         _______ _______ _______ _____ _____    ______ ____
ROOT
ATOM      1  N   UNL     1      32.233 -21.758 -18.783  0.00  0.00    -0.239 NA
ATOM      2  C   UNL     1      34.379 -21.760 -17.684  0.00  0.00    +0.022 C 
ATOM      3  C   UNL     1      34.122 -20.631 -19.786  0.00  0.00    +0.158 C 
ATOM      4  C   UNL     1      34.925 -21.010 -18.715  0.00  0.00    +0.040 C 
ATOM      5  C   UNL     1      33.044 -22.107 -17.759  0.00  0.00    +0.099 C 
ATOM      6  C   UNL     1      32.794 -21.026 -19.771  0.00  0.00    +0.136 C 
ENDROOT
BRANCH   2  10
ATOM      7  N   UNL     1      36.351 -23.753 -12.607  0.00  0.00    -0.280 N 
ATOM      8  N   UNL     1      37.412 -23.347 -13.331  0.00  0.00    -0.173 NA
ATOM      9  C   UNL     1      35.451 -23.051 -14.439  0.00  0.00    +0.032 A 
ATOM     10  C   UNL     1      35.192 -22.170 -16.554  0.00  0.00    +0.002 C 
ATOM     11  C   UNL     1      36.886 -22.901 -14.486  0.00  0.00    +0.102 A 
ATOM     12  C   UNL     1      34.537 -22.711 -15.429  0.00  0.00    +0.003 C 
ATOM     13  C   UNL     1      35.145 -23.598 -13.226  0.00  0.00    +0.053 A 
ATOM     14  C   UNL     1      36.609 -22.002 -16.649  0.00  0.00    +0.002 C 
ATOM     15  C   UNL     1      37.512 -22.358 -15.623  0.00  0.00    +0.021 C 
ATOM     16  C   UNL     1      33.880 -23.990 -12.580  0.00  0.00    +0.051 C 
ATOM     17  H   UNL     1      36.439 -24.131 -11.703  0.00  0.00    +0.189 HD
ENDBRANCH   2  10
BRANCH   3  18
ATOM     18  O   UNL     1      34.623 -19.898 -20.809  0.00  0.00    -0.476 OA
BRANCH  18  19
ATOM     19  C   UNL     1      35.941 -19.367 -20.653  0.00  0.00    +0.184 C 
BRANCH  19  20
ATOM     20  C   UNL     1      36.089 -18.066 -21.452  0.00  0.00    -0.017 C 
BRANCH  20  21
ATOM     21  N   UNL     1      37.431 -18.036 -22.039  0.00  0.00    +0.384 N 
ATOM     22  H   UNL     1      37.449 -17.370 -22.811  0.00  0.00    -0.089 HD
ATOM     23  H   UNL     1      37.671 -18.965 -22.387  0.00  0.00    -0.089 HD
ATOM     24  H   UNL     1      38.107 -17.754 -21.330  0.00  0.00    -0.089 HD
ENDBRANCH  20  21
BRANCH  20  25
ATOM     25  C   UNL     1      35.058 -17.934 -22.592  0.00  0.00    +0.008 C 
BRANCH  25  27
ATOM     26 BR   UNL     1      32.774 -12.253 -23.359  0.00  0.00    -0.049 Br
ATOM     27  C   UNL     1      34.500 -16.544 -22.779  0.00  0.00    -0.024 C 
ATOM     28  C   UNL     1      34.413 -15.694 -21.688  0.00  0.00    -0.004 C 
ATOM     29  C   UNL     1      34.084 -16.145 -24.039  0.00  0.00    -0.004 C 
ATOM     30  C   UNL     1      33.897 -14.410 -21.862  0.00  0.00    +0.006 C 
ATOM     31  C   UNL     1      33.568 -14.861 -24.212  0.00  0.00    +0.006 C 
ATOM     32  C   UNL     1      33.475 -13.993 -23.124  0.00  0.00    +0.035 C 
ENDBRANCH  25  27
ENDBRANCH  20  25
ENDBRANCH  19  20
ENDBRANCH  18  19
ENDBRANCH   3  18
TORSDOF 7
ENDMDL
MODEL 2
REMARK VINA RESULT:     -12.6      4.982     11.491
REMARK  Name = 16122642
REMARK  7 active torsions:
REMARK  status: ('A' for Active; 'I' for Inactive)
REMARK    1  A    between atoms: C_2  and  C_10
REMARK    2  A    between atoms: C_3  and  O_18
REMARK    3  A    between atoms: O_18  and  C_19
REMARK    4  A    between atoms: C_19  and  C_20
REMARK    5  A    between atoms: C_20  and  N_21
REMARK    6  A    between atoms: C_20  and  C_25
REMARK    7  A    between atoms: C_25  and  C_27
REMARK                            x       y       z     vdW  Elec       q    Type
REMARK                         _______ _______ _______ _____ _____    ______ ____
ROOT
ATOM      1  N   UNL     1      33.097 -14.460 -25.415  0.00  0.00    -0.239 NA
ATOM      2  C   UNL     1      32.940 -13.027 -23.482  0.00  0.00    +0.022 C 
ATOM      3  C   UNL     1      34.162 -15.087 -23.337  0.00  0.00    +0.158 C 
ATOM      4  C   UNL     1      33.700 -13.919 -22.740  0.00  0.00    +0.040 C 
ATOM      5  C   UNL     1      32.667 -13.335 -24.801  0.00  0.00    +0.099 C 
ATOM      6  C   UNL     1      33.836 -15.309 -24.665  0.00  0.00    +0.136 C 
ENDROOT
BRANCH   2  10
ATOM      7  N   UNL     1      31.919  -7.516 -21.991  0.00  0.00    -0.280 N 
ATOM      8  N   UNL     1      31.103  -8.300 -21.259  0.00  0.00    -0.173 NA
ATOM      9  C   UNL     1      32.423  -9.505 -22.661  0.00  0.00    +0.032 A 
ATOM     10  C   UNL     1      32.445 -11.799 -22.888  0.00  0.00    +0.002 C 
ATOM     11  C   UNL     1      31.391  -9.553 -21.654  0.00  0.00    +0.102 A 
ATOM     12  C   UNL     1      33.001 -10.580 -23.325  0.00  0.00    +0.003 C 
ATOM     13  C   UNL     1      32.736  -8.189 -22.852  0.00  0.00    +0.053 A 
ATOM     14  C   UNL     1      31.422 -11.900 -21.893  0.00  0.00    +0.002 C 
ATOM     15  C   UNL     1      30.854 -10.786 -21.237  0.00  0.00    +0.021 C 
ATOM     16  C   UNL     1      33.691  -7.491 -23.728  0.00  0.00    +0.051 C 
ATOM     17  H   UNL     1      31.926  -6.536 -21.910  0.00  0.00    +0.189 HD
ENDBRANCH   2  10
BRANCH   3  18
ATOM     18  O   UNL     1      34.907 -15.980 -22.641  0.00  0.00    -0.476 OA
BRANCH  18  19
ATOM     19  C   UNL     1      34.813 -17.353 -23.024  0.00  0.00    +0.184 C 
BRANCH  19  20
ATOM     20  C   UNL     1      34.907 -18.258 -21.789  0.00  0.00    -0.017 C 
BRANCH  20  21
ATOM     21  N   UNL     1      34.903 -17.409 -20.594  0.00  0.00    +0.384 N 
ATOM     22  H   UNL     1      35.862 -17.176 -20.341  0.00  0.00    -0.089 HD
ATOM     23  H   UNL     1      34.460 -17.909 -19.824  0.00  0.00    -0.089 HD
ATOM     24  H   UNL     1      34.384 -16.552 -20.787  0.00  0.00    -0.089 HD
ENDBRANCH  20  21
BRANCH  20  25
ATOM     25  C   UNL     1      33.735 -19.256 -21.678  0.00  0.00    +0.008 C 
BRANCH  25  27
ATOM     26 BR   UNL     1      33.874 -22.831 -16.650  0.00  0.00    -0.049 Br
ATOM     27  C   UNL     1      33.768 -20.131 -20.448  0.00  0.00    -0.024 C 
ATOM     28  C   UNL     1      32.578 -20.482 -19.831  0.00  0.00    -0.004 C 
ATOM     29  C   UNL     1      34.989 -20.567 -19.960  0.00  0.00    -0.004 C 
ATOM     30  C   UNL     1      32.610 -21.290 -18.694  0.00  0.00    +0.006 C 
ATOM     31  C   UNL     1      35.021 -21.375 -18.823  0.00  0.00    +0.006 C 
ATOM     32  C   UNL     1      33.831 -21.737 -18.191  0.00  0.00    +0.035 C 
ENDBRANCH  25  27
ENDBRANCH  20  25
ENDBRANCH  19  20
ENDBRANCH  18  19
ENDBRANCH   3  18
TORSDOF 7
ENDMDL
MODEL 3
REMARK VINA RESULT:     -12.4      0.997      2.103
REMARK  Name = 16122642
REMARK  7 active torsions:
REMARK  status: ('A' for Active; 'I' for Inactive)
REMARK    1  A    between atoms: C_2  and  C_10
REMARK    2  A    between atoms: C_3  and  O_18
REMARK    3  A    between atoms: O_18  and  C_19
REMARK    4  A    between atoms: C_19  and  C_20
REMARK    5  A    between atoms: C_20  and  N_21
REMARK    6  A    between atoms: C_20  and  C_25
REMARK    7  A    between atoms: C_25  and  C_27
REMARK                            x       y       z     vdW  Elec       q    Type
REMARK                         _______ _______ _______ _____ _____    ______ ____
ROOT
ATOM      1  N   UNL     1      31.936 -21.884 -18.345  0.00  0.00    -0.239 NA
ATOM      2  C   UNL     1      33.817 -22.382 -16.922  0.00  0.00    +0.022 C 
ATOM      3  C   UNL     1      34.168 -21.216 -18.989  0.00  0.00    +0.158 C 
ATOM      4  C   UNL     1      34.679 -21.773 -17.822  0.00  0.00    +0.040 C 
ATOM      5  C   UNL     1      32.469 -22.414 -17.221  0.00  0.00    +0.099 C 
ATOM      6  C   UNL     1      32.801 -21.297 -19.202  0.00  0.00    +0.136 C 
ENDROOT
BRANCH   2  10
ATOM      7  N   UNL     1      37.082 -24.681 -12.716  0.00  0.00    -0.280 N 
ATOM      8  N   UNL     1      35.811 -24.632 -12.271  0.00  0.00    -0.173 NA
ATOM      9  C   UNL     1      36.017 -23.813 -14.380  0.00  0.00    +0.032 A 
ATOM     10  C   UNL     1      34.320 -22.971 -15.694  0.00  0.00    +0.002 C 
ATOM     11  C   UNL     1      35.116 -24.092 -13.288  0.00  0.00    +0.102 A 
ATOM     12  C   UNL     1      35.698 -23.254 -15.612  0.00  0.00    +0.003 C 
ATOM     13  C   UNL     1      37.264 -24.201 -13.980  0.00  0.00    +0.053 A 
ATOM     14  C   UNL     1      33.387 -23.230 -14.642  0.00  0.00    +0.002 C 
ATOM     15  C   UNL     1      33.744 -23.799 -13.400  0.00  0.00    +0.021 C 
ATOM     16  C   UNL     1      38.588 -24.178 -14.624  0.00  0.00    +0.051 C 
ATOM     17  H   UNL     1      37.821 -25.036 -12.172  0.00  0.00    +0.189 HD
ENDBRANCH   2  10
BRANCH   3  18
ATOM     18  O   UNL     1      34.982 -20.613 -19.890  0.00  0.00    -0.476 OA
BRANCH  18  19
ATOM     19  C   UNL     1      34.371 -19.747 -20.849  0.00  0.00    +0.184 C 
BRANCH  19  20
ATOM     20  C   UNL     1      35.182 -18.453 -20.990  0.00  0.00    -0.017 C 
BRANCH  20  21
ATOM     21  N   UNL     1      36.560 -18.725 -20.572  0.00  0.00    +0.384 N 
ATOM     22  H   UNL     1      37.051 -19.216 -21.318  0.00  0.00    -0.089 HD
ATOM     23  H   UNL     1      36.553 -19.304 -19.732  0.00  0.00    -0.089 HD
ATOM     24  H   UNL     1      37.036 -17.845 -20.374  0.00  0.00    -0.089 HD
ENDBRANCH  20  21
BRANCH  20  25
ATOM     25  C   UNL     1      35.213 -17.911 -22.435  0.00  0.00    +0.008 C 
BRANCH  25  27
ATOM     26 BR   UNL     1      32.705 -12.316 -23.135  0.00  0.00    -0.049 Br
ATOM     27  C   UNL     1      34.598 -16.543 -22.607  0.00  0.00    -0.024 C 
ATOM     28  C   UNL     1      34.201 -16.129 -23.868  0.00  0.00    -0.004 C 
ATOM     29  C   UNL     1      34.444 -15.725 -21.499  0.00  0.00    -0.004 C 
ATOM     30  C   UNL     1      33.635 -14.865 -24.026  0.00  0.00    +0.006 C 
ATOM     31  C   UNL     1      33.878 -14.460 -21.657  0.00  0.00    +0.006 C 
ATOM     32  C   UNL     1      33.472 -14.030 -22.920  0.00  0.00    +0.035 C 
ENDBRANCH  25  27
ENDBRANCH  20  25
ENDBRANCH  19  20
ENDBRANCH  18  19
ENDBRANCH   3  18
TORSDOF 7
ENDMDL
MODEL 4
REMARK VINA RESULT:     -12.3      4.397      7.318
REMARK  Name = 16122642
REMARK  7 active torsions:
REMARK  status: ('A' for Active; 'I' for Inactive)
REMARK    1  A    between atoms: C_2  and  C_10
REMARK    2  A    between atoms: C_3  and  O_18
REMARK    3  A    between atoms: O_18  and  C_19
REMARK    4  A    between atoms: C_19  and  C_20
REMARK    5  A    between atoms: C_20  and  N_21
REMARK    6  A    between atoms: C_20  and  C_25
REMARK    7  A    between atoms: C_25  and  C_27
REMARK                            x       y       z     vdW  Elec       q    Type
REMARK                         _______ _______ _______ _____ _____    ______ ____
ROOT
ATOM      1  N   UNL     1      33.378 -16.212 -25.120  0.00  0.00    -0.239 NA
ATOM      2  C   UNL     1      34.295 -16.759 -22.957  0.00  0.00    +0.022 C 
ATOM      3  C   UNL     1      33.906 -14.463 -23.536  0.00  0.00    +0.158 C 
ATOM      4  C   UNL     1      34.342 -15.415 -22.621  0.00  0.00    +0.040 C 
ATOM      5  C   UNL     1      33.810 -17.108 -24.203  0.00  0.00    +0.099 C 
ATOM      6  C   UNL     1      33.437 -14.910 -24.761  0.00  0.00    +0.136 C 
ENDROOT
BRANCH   2  10
ATOM      7  N   UNL     1      34.679 -21.119 -19.153  0.00  0.00    -0.280 N 
ATOM      8  N   UNL     1      35.925 -20.659 -19.380  0.00  0.00    -0.173 NA
ATOM      9  C   UNL     1      34.358 -19.523 -20.570  0.00  0.00    +0.032 A 
ATOM     10  C   UNL     1      34.742 -17.775 -22.022  0.00  0.00    +0.002 C 
ATOM     11  C   UNL     1      35.762 -19.658 -20.264  0.00  0.00    +0.102 A 
ATOM     12  C   UNL     1      33.770 -18.610 -21.436  0.00  0.00    +0.003 C 
ATOM     13  C   UNL     1      33.697 -20.472 -19.843  0.00  0.00    +0.053 A 
ATOM     14  C   UNL     1      36.143 -17.869 -21.752  0.00  0.00    +0.002 C 
ATOM     15  C   UNL     1      36.710 -18.810 -20.865  0.00  0.00    +0.021 C 
ATOM     16  C   UNL     1      32.278 -20.845 -19.716  0.00  0.00    +0.051 C 
ATOM     17  H   UNL     1      34.493 -21.864 -18.537  0.00  0.00    +0.189 HD
ENDBRANCH   2  10
BRANCH   3  18
ATOM     18  O   UNL     1      33.939 -13.141 -23.239  0.00  0.00    -0.476 OA
BRANCH  18  19
ATOM     19  C   UNL     1      32.691 -12.445 -23.210  0.00  0.00    +0.184 C 
BRANCH  19  20
ATOM     20  C   UNL     1      31.972 -12.699 -21.879  0.00  0.00    -0.017 C 
BRANCH  20  21
ATOM     21  N   UNL     1      32.926 -12.478 -20.789  0.00  0.00    +0.384 N 
ATOM     22  H   UNL     1      32.867 -13.248 -20.124  0.00  0.00    -0.089 HD
ATOM     23  H   UNL     1      32.704 -11.603 -20.315  0.00  0.00    -0.089 HD
ATOM     24  H   UNL     1      33.872 -12.429 -21.169  0.00  0.00    -0.089 HD
ENDBRANCH  20  21
BRANCH  20  25
ATOM     25  C   UNL     1      30.759 -11.770 -21.657  0.00  0.00    +0.008 C 
BRANCH  25  27
ATOM     26 BR   UNL     1      32.205  -6.030 -19.913  0.00  0.00    -0.049 Br
ATOM     27  C   UNL     1      31.112 -10.366 -21.231  0.00  0.00    -0.024 C 
ATOM     28  C   UNL     1      31.459  -9.430 -22.193  0.00  0.00    -0.004 C 
ATOM     29  C   UNL     1      31.084 -10.038 -19.885  0.00  0.00    -0.004 C 
ATOM     30  C   UNL     1      31.786  -8.133 -21.799  0.00  0.00    +0.006 C 
ATOM     31  C   UNL     1      31.411  -8.741 -19.491  0.00  0.00    +0.006 C 
ATOM     32  C   UNL     1      31.761  -7.788 -20.447  0.00  0.00    +0.035 C 
ENDBRANCH  25  27
ENDBRANCH  20  25
ENDBRANCH  19  20
ENDBRANCH  18  19
ENDBRANCH   3  18
TORSDOF 7
ENDMDL
MODEL 5
REMARK VINA RESULT:     -11.9      3.796     10.121
REMARK  Name = 16122642
REMARK  7 active torsions:
REMARK  status: ('A' for Active; 'I' for Inactive)
REMARK    1  A    between atoms: C_2  and  C_10
REMARK    2  A    between atoms: C_3  and  O_18
REMARK    3  A    between atoms: O_18  and  C_19
REMARK    4  A    between atoms: C_19  and  C_20
REMARK    5  A    between atoms: C_20  and  N_21
REMARK    6  A    between atoms: C_20  and  C_25
REMARK    7  A    between atoms: C_25  and  C_27
REMARK                            x       y       z     vdW  Elec       q    Type
REMARK                         _______ _______ _______ _____ _____    ______ ____
ROOT
ATOM      1  N   UNL     1      36.630 -19.050 -19.981  0.00  0.00    -0.239 NA
ATOM      2  C   UNL     1      34.857 -18.475 -21.510  0.00  0.00    +0.022 C 
ATOM      3  C   UNL     1      34.612 -20.378 -20.069  0.00  0.00    +0.158 C 
ATOM      4  C   UNL     1      34.102 -19.549 -21.062  0.00  0.00    +0.040 C 
ATOM      5  C   UNL     1      36.101 -18.266 -20.947  0.00  0.00    +0.099 C 
ATOM      6  C   UNL     1      35.870 -20.087 -19.566  0.00  0.00    +0.136 C 
ENDROOT
BRANCH   2  10
ATOM      7  N   UNL     1      33.095 -13.934 -24.658  0.00  0.00    -0.280 N 
ATOM      8  N   UNL     1      32.937 -15.042 -25.408  0.00  0.00    -0.173 NA
ATOM      9  C   UNL     1      33.788 -15.508 -23.354  0.00  0.00    +0.032 A 
ATOM     10  C   UNL     1      34.351 -17.592 -22.545  0.00  0.00    +0.002 C 
ATOM     11  C   UNL     1      33.362 -16.048 -24.622  0.00  0.00    +0.102 A 
ATOM     12  C   UNL     1      34.293 -16.212 -22.268  0.00  0.00    +0.003 C 
ATOM     13  C   UNL     1      33.604 -14.156 -23.412  0.00  0.00    +0.053 A 
ATOM     14  C   UNL     1      33.940 -18.176 -23.784  0.00  0.00    +0.002 C 
ATOM     15  C   UNL     1      33.431 -17.431 -24.871  0.00  0.00    +0.021 C 
ATOM     16  C   UNL     1      33.843 -13.058 -22.459  0.00  0.00    +0.051 C 
ATOM     17  H   UNL     1      32.861 -13.036 -24.983  0.00  0.00    +0.189 HD
ENDBRANCH   2  10
BRANCH   3  18
ATOM     18  O   UNL     1      33.901 -21.436 -19.609  0.00  0.00    -0.476 OA
BRANCH  18  19
ATOM     19  C   UNL     1      32.596 -21.173 -19.090  0.00  0.00    +0.184 C 
BRANCH  19  20
ATOM     20  C   UNL     1      32.465 -21.734 -17.669  0.00  0.00    -0.017 C 
BRANCH  20  21
ATOM     21  N   UNL     1      31.073 -22.144 -17.460  0.00  0.00    +0.384 N 
ATOM     22  H   UNL     1      31.052 -23.039 -16.973  0.00  0.00    -0.089 HD
ATOM     23  H   UNL     1      30.608 -22.237 -18.363  0.00  0.00    -0.089 HD
ATOM     24  H   UNL     1      30.592 -21.440 -16.900  0.00  0.00    -0.089 HD
ENDBRANCH  20  21
BRANCH  20  25
ATOM     25  C   UNL     1      33.373 -22.955 -17.413  0.00  0.00    +0.008 C 
BRANCH  25  27
ATOM     26 BR   UNL     1      36.384 -22.838 -12.028  0.00  0.00    -0.049 Br
ATOM     27  C   UNL     1      34.109 -22.928 -16.095  0.00  0.00    -0.024 C 
ATOM     28  C   UNL     1      33.482 -23.406 -14.956  0.00  0.00    -0.004 C 
ATOM     29  C   UNL     1      35.398 -22.423 -16.050  0.00  0.00    -0.004 C 
ATOM     30  C   UNL     1      34.163 -23.379 -13.739  0.00  0.00    +0.006 C 
ATOM     31  C   UNL     1      36.079 -22.396 -14.833  0.00  0.00    +0.006 C 
ATOM     32  C   UNL     1      35.462 -22.875 -13.677  0.00  0.00    +0.035 C 
ENDBRANCH  25  27
ENDBRANCH  20  25
ENDBRANCH  19  20
ENDBRANCH  18  19
ENDBRANCH   3  18
TORSDOF 7
ENDMDL
MODEL 6
REMARK VINA RESULT:     -11.9      2.501      3.844
REMARK  Name = 16122642
REMARK  7 active torsions:
REMARK  status: ('A' for Active; 'I' for Inactive)
REMARK    1  A    between atoms: C_2  and  C_10
REMARK    2  A    between atoms: C_3  and  O_18
REMARK    3  A    between atoms: O_18  and  C_19
REMARK    4  A    between atoms: C_19  and  C_20
REMARK    5  A    between atoms: C_20  and  N_21
REMARK    6  A    between atoms: C_20  and  C_25
REMARK    7  A    between atoms: C_25  and  C_27
REMARK                            x       y       z     vdW  Elec       q    Type
REMARK                         _______ _______ _______ _____ _____    ______ ____
ROOT
ATOM      1  N   UNL     1      36.542 -21.555 -16.514  0.00  0.00    -0.239 NA
ATOM      2  C   UNL     1      34.261 -22.336 -16.504  0.00  0.00    +0.022 C 
ATOM      3  C   UNL     1      35.220 -21.494 -18.536  0.00  0.00    +0.158 C 
ATOM      4  C   UNL     1      34.137 -22.037 -17.853  0.00  0.00    +0.040 C 
ATOM      5  C   UNL     1      35.469 -22.082 -15.883  0.00  0.00    +0.099 C 
ATOM      6  C   UNL     1      36.390 -21.275 -17.827  0.00  0.00    +0.136 C 
ENDROOT
BRANCH   2  10
ATOM      7  N   UNL     1      29.039 -23.918 -14.540  0.00  0.00    -0.280 N 
ATOM      8  N   UNL     1      29.967 -24.466 -13.731  0.00  0.00    -0.173 NA
ATOM      9  C   UNL     1      30.898 -23.238 -15.401  0.00  0.00    +0.032 A 
ATOM     10  C   UNL     1      33.149 -22.904 -15.764  0.00  0.00    +0.002 C 
ATOM     11  C   UNL     1      31.144 -24.062 -14.242  0.00  0.00    +0.102 A 
ATOM     12  C   UNL     1      31.843 -22.625 -16.213  0.00  0.00    +0.003 C 
ATOM     13  C   UNL     1      29.543 -23.168 -15.562  0.00  0.00    +0.053 A 
ATOM     14  C   UNL     1      33.446 -23.712 -14.622  0.00  0.00    +0.002 C 
ATOM     15  C   UNL     1      32.460 -24.323 -13.816  0.00  0.00    +0.021 C 
ATOM     16  C   UNL     1      28.672 -22.497 -16.541  0.00  0.00    +0.051 C 
ATOM     17  H   UNL     1      28.073 -24.048 -14.403  0.00  0.00    +0.189 HD
ENDBRANCH   2  10
BRANCH   3  18
ATOM     18  O   UNL     1      35.133 -21.190 -19.854  0.00  0.00    -0.476 OA
BRANCH  18  19
ATOM     19  C   UNL     1      34.231 -20.146 -20.228  0.00  0.00    +0.184 C 
BRANCH  19  20
ATOM     20  C   UNL     1      35.011 -18.889 -20.632  0.00  0.00    -0.017 C 
BRANCH  20  21
ATOM     21  N   UNL     1      36.429 -19.111 -20.337  0.00  0.00    +0.384 N 
ATOM     22  H   UNL     1      36.718 -18.496 -19.577  0.00  0.00    -0.089 HD
ATOM     23  H   UNL     1      36.985 -18.909 -21.168  0.00  0.00    -0.089 HD
ATOM     24  H   UNL     1      36.571 -20.083 -20.060  0.00  0.00    -0.089 HD
ENDBRANCH  20  21
BRANCH  20  25
ATOM     25  C   UNL     1      34.876 -18.547 -22.131  0.00  0.00    +0.008 C 
BRANCH  25  27
ATOM     26 BR   UNL     1      33.361 -12.682 -23.305  0.00  0.00    -0.049 Br
ATOM     27  C   UNL     1      34.505 -17.113 -22.419  0.00  0.00    -0.024 C 
ATOM     28  C   UNL     1      34.203 -16.736 -23.718  0.00  0.00    -0.004 C 
ATOM     29  C   UNL     1      34.474 -16.199 -21.379  0.00  0.00    -0.004 C 
ATOM     30  C   UNL     1      33.860 -15.410 -23.983  0.00  0.00    +0.006 C 
ATOM     31  C   UNL     1      34.132 -14.873 -21.644  0.00  0.00    +0.006 C 
ATOM     32  C   UNL     1      33.825 -14.479 -22.946  0.00  0.00    +0.035 C 
ENDBRANCH  25  27
ENDBRANCH  20  25
ENDBRANCH  19  20
ENDBRANCH  18  19
ENDBRANCH   3  18
TORSDOF 7
ENDMDL
MODEL 7
REMARK VINA RESULT:     -11.8      3.865      9.736
REMARK  Name = 16122642
REMARK  7 active torsions:
REMARK  status: ('A' for Active; 'I' for Inactive)
REMARK    1  A    between atoms: C_2  and  C_10
REMARK    2  A    between atoms: C_3  and  O_18
REMARK    3  A    between atoms: O_18  and  C_19
REMARK    4  A    between atoms: C_19  and  C_20
REMARK    5  A    between atoms: C_20  and  N_21
REMARK    6  A    between atoms: C_20  and  C_25
REMARK    7  A    between atoms: C_25  and  C_27
REMARK                            x       y       z     vdW  Elec       q    Type
REMARK                         _______ _______ _______ _____ _____    ______ ____
ROOT
ATOM      1  N   UNL     1      35.973 -20.915 -19.058  0.00  0.00    -0.239 NA
ATOM      2  C   UNL     1      34.554 -19.633 -20.526  0.00  0.00    +0.022 C 
ATOM      3  C   UNL     1      33.587 -21.307 -19.106  0.00  0.00    +0.158 C 
ATOM      4  C   UNL     1      33.438 -20.318 -20.072  0.00  0.00    +0.040 C 
ATOM      5  C   UNL     1      35.787 -19.960 -19.997  0.00  0.00    +0.099 C 
ATOM      6  C   UNL     1      34.865 -21.565 -18.635  0.00  0.00    +0.136 C 
ENDROOT
BRANCH   2  10
ATOM      7  N   UNL     1      34.032 -14.623 -23.401  0.00  0.00    -0.280 N 
ATOM      8  N   UNL     1      34.074 -15.617 -24.309  0.00  0.00    -0.173 NA
ATOM      9  C   UNL     1      34.224 -16.391 -22.179  0.00  0.00    +0.032 A 
ATOM     10  C   UNL     1      34.429 -18.595 -21.533  0.00  0.00    +0.002 C 
ATOM     11  C   UNL     1      34.195 -16.740 -23.579  0.00  0.00    +0.102 A 
ATOM     12  C   UNL     1      34.339 -17.257 -21.099  0.00  0.00    +0.003 C 
ATOM     13  C   UNL     1      34.118 -15.032 -22.102  0.00  0.00    +0.053 A 
ATOM     14  C   UNL     1      34.404 -18.992 -22.907  0.00  0.00    +0.002 C 
ATOM     15  C   UNL     1      34.286 -18.085 -23.983  0.00  0.00    +0.021 C 
ATOM     16  C   UNL     1      34.089 -14.079 -20.980  0.00  0.00    +0.051 C 
ATOM     17  H   UNL     1      33.944 -13.676 -23.655  0.00  0.00    +0.189 HD
ENDBRANCH   2  10
BRANCH   3  18
ATOM     18  O   UNL     1      32.518 -21.997 -18.639  0.00  0.00    -0.476 OA
BRANCH  18  19
ATOM     19  C   UNL     1      32.748 -22.925 -17.577  0.00  0.00    +0.184 C 
BRANCH  19  20
ATOM     20  C   UNL     1      32.196 -22.370 -16.258  0.00  0.00    -0.017 C 
BRANCH  20  21
ATOM     21  N   UNL     1      30.732 -22.419 -16.314  0.00  0.00    +0.384 N 
ATOM     22  H   UNL     1      30.362 -21.471 -16.368  0.00  0.00    -0.089 HD
ATOM     23  H   UNL     1      30.375 -22.875 -15.474  0.00  0.00    -0.089 HD
ATOM     24  H   UNL     1      30.440 -22.946 -17.137  0.00  0.00    -0.089 HD
ENDBRANCH  20  21
BRANCH  20  25
ATOM     25  C   UNL     1      32.660 -23.170 -15.022  0.00  0.00    +0.008 C 
BRANCH  25  27
ATOM     26 BR   UNL     1      38.755 -24.067 -14.677  0.00  0.00    -0.049 Br
ATOM     27  C   UNL     1      34.151 -23.388 -14.937  0.00  0.00    -0.024 C 
ATOM     28  C   UNL     1      35.003 -22.297 -15.006  0.00  0.00    -0.004 C 
ATOM     29  C   UNL     1      34.640 -24.676 -14.792  0.00  0.00    -0.004 C 
ATOM     30  C   UNL     1      36.381 -22.500 -14.928  0.00  0.00    +0.006 C 
ATOM     31  C   UNL     1      36.017 -24.879 -14.715  0.00  0.00    +0.006 C 
ATOM     32  C   UNL     1      36.888 -23.792 -14.782  0.00  0.00    +0.035 C 
ENDBRANCH  25  27
ENDBRANCH  20  25
ENDBRANCH  19  20
ENDBRANCH  18  19
ENDBRANCH   3  18
TORSDOF 7
ENDMDL
MODEL 8
REMARK VINA RESULT:     -11.8      4.562      7.747
REMARK  Name = 16122642
REMARK  7 active torsions:
REMARK  status: ('A' for Active; 'I' for Inactive)
REMARK    1  A    between atoms: C_2  and  C_10
REMARK    2  A    between atoms: C_3  and  O_18
REMARK    3  A    between atoms: O_18  and  C_19
REMARK    4  A    between atoms: C_19  and  C_20
REMARK    5  A    between atoms: C_20  and  N_21
REMARK    6  A    between atoms: C_20  and  C_25
REMARK    7  A    between atoms: C_25  and  C_27
REMARK                            x       y       z     vdW  Elec       q    Type
REMARK                         _______ _______ _______ _____ _____    ______ ____
ROOT
ATOM      1  N   UNL     1      33.491 -15.924 -25.157  0.00  0.00    -0.239 NA
ATOM      2  C   UNL     1      34.256 -16.565 -22.961  0.00  0.00    +0.022 C 
ATOM      3  C   UNL     1      33.672 -14.278 -23.395  0.00  0.00    +0.158 C 
ATOM      4  C   UNL     1      34.123 -15.258 -22.517  0.00  0.00    +0.040 C 
ATOM      5  C   UNL     1      33.931 -16.849 -24.274  0.00  0.00    +0.099 C 
ATOM      6  C   UNL     1      33.372 -14.660 -24.693  0.00  0.00    +0.136 C 
ENDROOT
BRANCH   2  10
ATOM      7  N   UNL     1      34.721 -21.042 -19.304  0.00  0.00    -0.280 N 
ATOM      8  N   UNL     1      35.962 -20.573 -19.542  0.00  0.00    -0.173 NA
ATOM      9  C   UNL     1      34.370 -19.403 -20.664  0.00  0.00    +0.032 A 
ATOM     10  C   UNL     1      34.723 -17.609 -22.068  0.00  0.00    +0.002 C 
ATOM     11  C   UNL     1      35.780 -19.545 -20.390  0.00  0.00    +0.102 A 
ATOM     12  C   UNL     1      33.764 -18.464 -21.489  0.00  0.00    +0.003 C 
ATOM     13  C   UNL     1      33.724 -20.375 -19.954  0.00  0.00    +0.053 A 
ATOM     14  C   UNL     1      36.130 -17.709 -21.829  0.00  0.00    +0.002 C 
ATOM     15  C   UNL     1      36.715 -18.677 -20.984  0.00  0.00    +0.021 C 
ATOM     16  C   UNL     1      32.309 -20.754 -19.810  0.00  0.00    +0.051 C 
ATOM     17  H   UNL     1      34.548 -21.806 -18.708  0.00  0.00    +0.189 HD
ENDBRANCH   2  10
BRANCH   3  18
ATOM     18  O   UNL     1      33.530 -12.992 -22.993  0.00  0.00    -0.476 OA
BRANCH  18  19
ATOM     19  C   UNL     1      32.466 -12.702 -22.084  0.00  0.00    +0.184 C 
BRANCH  19  20
ATOM     20  C   UNL     1      31.672 -11.482 -22.567  0.00  0.00    -0.017 C 
BRANCH  20  21
ATOM     21  N   UNL     1      30.743 -11.086 -21.504  0.00  0.00    +0.384 N 
ATOM     22  H   UNL     1      29.845 -10.832 -21.915  0.00  0.00    -0.089 HD
ATOM     23  H   UNL     1      31.124 -10.286 -21.000  0.00  0.00    -0.089 HD
ATOM     24  H   UNL     1      30.613 -11.865 -20.858  0.00  0.00    -0.089 HD
ENDBRANCH  20  21
BRANCH  20  25
ATOM     25  C   UNL     1      32.567 -10.270 -22.903  0.00  0.00    +0.008 C 
BRANCH  25  27
ATOM     26 BR   UNL     1      29.963  -4.777 -21.843  0.00  0.00    -0.049 Br
ATOM     27  C   UNL     1      31.931  -8.926 -22.643  0.00  0.00    -0.024 C 
ATOM     28  C   UNL     1      32.065  -8.340 -21.394  0.00  0.00    -0.004 C 
ATOM     29  C   UNL     1      31.224  -8.303 -23.659  0.00  0.00    -0.004 C 
ATOM     30  C   UNL     1      31.476  -7.099 -21.155  0.00  0.00    +0.006 C 
ATOM     31  C   UNL     1      30.635  -7.062 -23.419  0.00  0.00    +0.006 C 
ATOM     32  C   UNL     1      30.761  -6.459 -22.168  0.00  0.00    +0.035 C 
ENDBRANCH  25  27
ENDBRANCH  20  25
ENDBRANCH  19  20
ENDBRANCH  18  19
ENDBRANCH   3  18
TORSDOF 7
ENDMDL
MODEL 9
REMARK VINA RESULT:     -11.7      7.231     13.632
REMARK  Name = 16122642
REMARK  7 active torsions:
REMARK  status: ('A' for Active; 'I' for Inactive)
REMARK    1  A    between atoms: C_2  and  C_10
REMARK    2  A    between atoms: C_3  and  O_18
REMARK    3  A    between atoms: O_18  and  C_19
REMARK    4  A    between atoms: C_19  and  C_20
REMARK    5  A    between atoms: C_20  and  N_21
REMARK    6  A    between atoms: C_20  and  C_25
REMARK    7  A    between atoms: C_25  and  C_27
REMARK                            x       y       z     vdW  Elec       q    Type
REMARK                         _______ _______ _______ _____ _____    ______ ____
ROOT
ATOM      1  N   UNL     1      31.039 -11.156 -21.028  0.00  0.00    -0.239 NA
ATOM      2  C   UNL     1      31.430  -9.358 -22.588  0.00  0.00    +0.022 C 
ATOM      3  C   UNL     1      32.593 -11.440 -22.859  0.00  0.00    +0.158 C 
ATOM      4  C   UNL     1      32.334 -10.143 -23.289  0.00  0.00    +0.040 C 
ATOM      5  C   UNL     1      30.813  -9.900 -21.477  0.00  0.00    +0.099 C 
ATOM      6  C   UNL     1      31.925 -11.895 -21.733  0.00  0.00    +0.136 C 
ENDROOT
BRANCH   2  10
ATOM      7  N   UNL     1      30.119  -3.716 -22.872  0.00  0.00    -0.280 N 
ATOM      8  N   UNL     1      30.308  -4.160 -24.130  0.00  0.00    -0.173 NA
ATOM      9  C   UNL     1      30.591  -5.803 -22.587  0.00  0.00    +0.032 A 
ATOM     10  C   UNL     1      31.139  -8.001 -23.012  0.00  0.00    +0.002 C 
ATOM     11  C   UNL     1      30.606  -5.464 -23.990  0.00  0.00    +0.102 A 
ATOM     12  C   UNL     1      30.847  -7.045 -22.020  0.00  0.00    +0.003 C 
ATOM     13  C   UNL     1      30.277  -4.663 -21.903  0.00  0.00    +0.053 A 
ATOM     14  C   UNL     1      31.166  -7.716 -24.414  0.00  0.00    +0.002 C 
ATOM     15  C   UNL     1      30.902  -6.440 -24.959  0.00  0.00    +0.021 C 
ATOM     16  C   UNL     1      30.109  -4.353 -20.473  0.00  0.00    +0.051 C 
ATOM     17  H   UNL     1      29.884  -2.783 -22.668  0.00  0.00    +0.189 HD
ENDBRANCH   2  10
BRANCH   3  18
ATOM     18  O   UNL     1      33.470 -12.233 -23.521  0.00  0.00    -0.476 OA
BRANCH  18  19
ATOM     19  C   UNL     1      33.702 -13.540 -22.990  0.00  0.00    +0.184 C 
BRANCH  19  20
ATOM     20  C   UNL     1      33.184 -14.608 -23.962  0.00  0.00    -0.017 C 
BRANCH  20  21
ATOM     21  N   UNL     1      32.782 -13.944 -25.205  0.00  0.00    +0.384 N 
ATOM     22  H   UNL     1      33.581 -13.891 -25.836  0.00  0.00    -0.089 HD
ATOM     23  H   UNL     1      32.452 -13.002 -24.996  0.00  0.00    -0.089 HD
ATOM     24  H   UNL     1      32.033 -14.477 -25.648  0.00  0.00    -0.089 HD
ENDBRANCH  20  21
BRANCH  20  25
ATOM     25  C   UNL     1      34.241 -15.679 -24.305  0.00  0.00    +0.008 C 
BRANCH  25  27
ATOM     26 BR   UNL     1      34.705 -20.255 -20.191  0.00  0.00    -0.049 Br
ATOM     27  C   UNL     1      34.354 -16.797 -23.298  0.00  0.00    -0.024 C 
ATOM     28  C   UNL     1      34.914 -16.541 -22.056  0.00  0.00    -0.004 C 
ATOM     29  C   UNL     1      33.896 -18.061 -23.634  0.00  0.00    -0.004 C 
ATOM     30  C   UNL     1      35.019 -17.575 -21.127  0.00  0.00    +0.006 C 
ATOM     31  C   UNL     1      34.001 -19.095 -22.704  0.00  0.00    +0.006 C 
ATOM     32  C   UNL     1      34.562 -18.852 -21.451  0.00  0.00    +0.035 C 
ENDBRANCH  25  27
ENDBRANCH  20  25
ENDBRANCH  19  20
ENDBRANCH  18  19
ENDBRANCH   3  18
TORSDOF 7
ENDMDL
