MODEL 1
REMARK VINA RESULT:     -12.9      0.000      0.000
REMARK  Name = 24875320
REMARK  6 active torsions:
REMARK  status: ('A' for Active; 'I' for Inactive)
REMARK    1  A    between atoms: C_1  and  N_22
REMARK    2  A    between atoms: C_3  and  C_10
REMARK    3  A    between atoms: N_9  and  C_12
REMARK    4  A    between atoms: C_14  and  C_21
REMARK    5  A    between atoms: N_22  and  C_25
REMARK    6  A    between atoms: C_28  and  C_32
REMARK                            x       y       z     vdW  Elec       q    Type
REMARK                         _______ _______ _______ _____ _____    ______ ____
ROOT
ATOM      1  C   UNL     1      34.588 -22.616 -16.525  0.00  0.00    +0.044 C 
ATOM      2  C   UNL     1      35.918 -22.365 -16.190  0.00  0.00    -0.008 C 
ATOM      3  C   UNL     1      34.802 -21.173 -18.452  0.00  0.00    +0.055 C 
ATOM      4  C   UNL     1      34.030 -22.019 -17.656  0.00  0.00    +0.019 C 
ATOM      5  C   UNL     1      36.691 -21.519 -16.985  0.00  0.00    -0.003 C 
ATOM      6  C   UNL     1      36.132 -20.922 -18.116  0.00  0.00    +0.004 C 
ATOM      7  C   UNL     1      36.543 -22.990 -14.985  0.00  0.00    +0.032 C 
ENDROOT
BRANCH   3  10
ATOM      8  O   UNL     1      33.114 -20.945 -20.036  0.00  0.00    -0.270 OA
ATOM      9  N   UNL     1      34.988 -19.547 -20.235  0.00  0.00    -0.280 N 
ATOM     10  C   UNL     1      34.219 -20.551 -19.630  0.00  0.00    +0.250 C 
ATOM     11  H   UNL     1      35.846 -19.342 -19.797  0.00  0.00    +0.155 HD
BRANCH   9  12
ATOM     12  C   UNL     1      34.693 -18.790 -21.395  0.00  0.00    +0.050 C 
ATOM     13  C   UNL     1      34.572 -17.402 -21.311  0.00  0.00    +0.019 C 
ATOM     14  C   UNL     1      34.282 -16.657 -22.453  0.00  0.00    +0.073 C 
ATOM     15  C   UNL     1      34.523 -19.431 -22.622  0.00  0.00    +0.015 C 
ATOM     16  C   UNL     1      34.112 -17.299 -23.681  0.00  0.00    +0.004 C 
ATOM     17  C   UNL     1      34.233 -18.685 -23.764  0.00  0.00    +0.001 C 
BRANCH  14  21
ATOM     18  F   UNL     1      32.886 -14.719 -22.596  0.00  0.00    -0.166 F 
ATOM     19  F   UNL     1      34.494 -14.669 -21.142  0.00  0.00    -0.166 F 
ATOM     20  F   UNL     1      34.945 -14.523 -23.264  0.00  0.00    -0.166 F 
ATOM     21  C   UNL     1      34.152 -15.174 -22.364  0.00  0.00    +0.419 C 
ENDBRANCH  14  21
ENDBRANCH   9  12
ENDBRANCH   3  10
BRANCH   1  22
ATOM     22  N   UNL     1      33.792 -23.470 -15.731  0.00  0.00    -0.312 N 
ATOM     23  H   UNL     1      34.170 -24.372 -15.617  0.00  0.00    +0.152 HD
BRANCH  22  25
ATOM     24  N   UNL     1      31.333 -23.152 -12.994  0.00  0.00    -0.241 NA
ATOM     25  C   UNL     1      32.562 -23.285 -15.071  0.00  0.00    +0.068 C 
ATOM     26  C   UNL     1      31.392 -23.060 -15.787  0.00  0.00    +0.022 C 
ATOM     27  C   UNL     1      32.480 -23.322 -13.689  0.00  0.00    +0.113 C 
ATOM     28  C   UNL     1      30.192 -22.879 -15.108  0.00  0.00    +0.073 C 
ATOM     29  C   UNL     1      30.216 -22.935 -13.724  0.00  0.00    +0.103 C 
BRANCH  28  32
ATOM     30  O   UNL     1      28.917 -21.928 -16.845  0.00  0.00    -0.270 OA
ATOM     31  N   UNL     1      27.797 -23.256 -15.348  0.00  0.00    -0.325 N 
ATOM     32  C   UNL     1      28.952 -22.642 -15.826  0.00  0.00    +0.244 C 
ATOM     33  H   UNL     1      26.939 -23.118 -15.810  0.00  0.00    +0.145 HD
ATOM     34  H   UNL     1      27.839 -23.830 -14.549  0.00  0.00    +0.145 HD
ENDBRANCH  28  32
ENDBRANCH  22  25
ENDBRANCH   1  22
TORSDOF 6
ENDMDL
MODEL 2
REMARK VINA RESULT:     -12.7      3.298      5.354
REMARK  Name = 24875320
REMARK  6 active torsions:
REMARK  status: ('A' for Active; 'I' for Inactive)
REMARK    1  A    between atoms: C_1  and  N_22
REMARK    2  A    between atoms: C_3  and  C_10
REMARK    3  A    between atoms: N_9  and  C_12
REMARK    4  A    between atoms: C_14  and  C_21
REMARK    5  A    between atoms: N_22  and  C_25
REMARK    6  A    between atoms: C_28  and  C_32
REMARK                            x       y       z     vdW  Elec       q    Type
REMARK                         _______ _______ _______ _____ _____    ______ ____
ROOT
ATOM      1  C   UNL     1      34.417 -22.669 -15.076  0.00  0.00    +0.044 C 
ATOM      2  C   UNL     1      33.121 -23.146 -15.270  0.00  0.00    -0.008 C 
ATOM      3  C   UNL     1      34.505 -21.974 -17.389  0.00  0.00    +0.055 C 
ATOM      4  C   UNL     1      35.109 -22.084 -16.136  0.00  0.00    +0.019 C 
ATOM      5  C   UNL     1      32.516 -23.037 -16.522  0.00  0.00    -0.003 C 
ATOM      6  C   UNL     1      33.209 -22.451 -17.582  0.00  0.00    +0.004 C 
ATOM      7  C   UNL     1      32.355 -23.778 -14.152  0.00  0.00    +0.032 C 
ENDROOT
BRANCH   3  10
ATOM      8  O   UNL     1      36.418 -21.667 -18.677  0.00  0.00    -0.270 OA
ATOM      9  N   UNL     1      34.503 -20.444 -19.264  0.00  0.00    -0.280 N 
ATOM     10  C   UNL     1      35.228 -21.364 -18.493  0.00  0.00    +0.250 C 
ATOM     11  H   UNL     1      33.565 -20.306 -18.997  0.00  0.00    +0.155 HD
BRANCH   9  12
ATOM     12  C   UNL     1      34.944 -19.684 -20.375  0.00  0.00    +0.050 C 
ATOM     13  C   UNL     1      34.148 -19.589 -21.517  0.00  0.00    +0.019 C 
ATOM     14  C   UNL     1      34.582 -18.841 -22.611  0.00  0.00    +0.073 C 
ATOM     15  C   UNL     1      36.176 -19.031 -20.329  0.00  0.00    +0.015 C 
ATOM     16  C   UNL     1      35.815 -18.188 -22.564  0.00  0.00    +0.004 C 
ATOM     17  C   UNL     1      36.611 -18.283 -21.423  0.00  0.00    +0.001 C 
BRANCH  14  21
ATOM     18  F   UNL     1      32.399 -18.901 -23.585  0.00  0.00    -0.166 F 
ATOM     19  F   UNL     1      33.832 -17.534 -24.468  0.00  0.00    -0.166 F 
ATOM     20  F   UNL     1      34.048 -19.677 -24.771  0.00  0.00    -0.166 F 
ATOM     21  C   UNL     1      33.732 -18.739 -23.831  0.00  0.00    +0.419 C 
ENDBRANCH  14  21
ENDBRANCH   9  12
ENDBRANCH   3  10
BRANCH   1  22
ATOM     22  N   UNL     1      35.044 -22.771 -13.815  0.00  0.00    -0.312 N 
ATOM     23  H   UNL     1      34.795 -22.053 -13.190  0.00  0.00    +0.152 HD
BRANCH  22  25
ATOM     24  N   UNL     1      36.435 -25.410 -11.638  0.00  0.00    -0.241 NA
ATOM     25  C   UNL     1      35.956 -23.699 -13.277  0.00  0.00    +0.068 C 
ATOM     26  C   UNL     1      37.233 -23.839 -13.808  0.00  0.00    +0.022 C 
ATOM     27  C   UNL     1      35.609 -24.501 -12.202  0.00  0.00    +0.113 C 
ATOM     28  C   UNL     1      38.112 -24.765 -13.257  0.00  0.00    +0.073 C 
ATOM     29  C   UNL     1      37.669 -25.519 -12.182  0.00  0.00    +0.103 C 
BRANCH  28  32
ATOM     30  O   UNL     1      40.132 -23.963 -14.163  0.00  0.00    -0.270 OA
ATOM     31  N   UNL     1      39.966 -26.229 -13.850  0.00  0.00    -0.325 N 
ATOM     32  C   UNL     1      39.452 -24.936 -13.788  0.00  0.00    +0.244 C 
ATOM     33  H   UNL     1      40.872 -26.382 -14.205  0.00  0.00    +0.145 HD
ATOM     34  H   UNL     1      39.425 -26.990 -13.539  0.00  0.00    +0.145 HD
ENDBRANCH  28  32
ENDBRANCH  22  25
ENDBRANCH   1  22
TORSDOF 6
ENDMDL
MODEL 3
REMARK VINA RESULT:     -12.7      6.112     11.268
REMARK  Name = 24875320
REMARK  6 active torsions:
REMARK  status: ('A' for Active; 'I' for Inactive)
REMARK    1  A    between atoms: C_1  and  N_22
REMARK    2  A    between atoms: C_3  and  C_10
REMARK    3  A    between atoms: N_9  and  C_12
REMARK    4  A    between atoms: C_14  and  C_21
REMARK    5  A    between atoms: N_22  and  C_25
REMARK    6  A    between atoms: C_28  and  C_32
REMARK                            x       y       z     vdW  Elec       q    Type
REMARK                         _______ _______ _______ _____ _____    ______ ____
ROOT
ATOM      1  C   UNL     1      33.498 -13.056 -23.646  0.00  0.00    +0.044 C 
ATOM      2  C   UNL     1      33.179 -13.599 -24.890  0.00  0.00    -0.008 C 
ATOM      3  C   UNL     1      33.932 -15.274 -22.790  0.00  0.00    +0.055 C 
ATOM      4  C   UNL     1      33.874 -13.894 -22.596  0.00  0.00    +0.019 C 
ATOM      5  C   UNL     1      33.237 -14.979 -25.085  0.00  0.00    -0.003 C 
ATOM      6  C   UNL     1      33.613 -15.817 -24.035  0.00  0.00    +0.004 C 
ATOM      7  C   UNL     1      32.774 -12.726 -26.033  0.00  0.00    +0.032 C 
ENDROOT
BRANCH   3  10
ATOM      8  O   UNL     1      34.528 -15.654 -20.574  0.00  0.00    -0.270 OA
ATOM      9  N   UNL     1      34.461 -17.505 -22.014  0.00  0.00    -0.280 N 
ATOM     10  C   UNL     1      34.324 -16.147 -21.695  0.00  0.00    +0.250 C 
ATOM     11  H   UNL     1      34.263 -17.747 -22.948  0.00  0.00    +0.155 HD
BRANCH   9  12
ATOM     12  C   UNL     1      34.848 -18.574 -21.170  0.00  0.00    +0.050 C 
ATOM     13  C   UNL     1      33.892 -19.476 -20.702  0.00  0.00    +0.019 C 
ATOM     14  C   UNL     1      34.273 -20.529 -19.871  0.00  0.00    +0.073 C 
ATOM     15  C   UNL     1      36.186 -18.725 -20.805  0.00  0.00    +0.015 C 
ATOM     16  C   UNL     1      35.612 -20.680 -19.506  0.00  0.00    +0.004 C 
ATOM     17  C   UNL     1      36.567 -19.778 -19.974  0.00  0.00    +0.001 C 
BRANCH  14  21
ATOM     18  F   UNL     1      33.613 -22.801 -19.521  0.00  0.00    -0.166 F 
ATOM     19  F   UNL     1      32.973 -21.352 -18.041  0.00  0.00    -0.166 F 
ATOM     20  F   UNL     1      32.054 -21.368 -20.012  0.00  0.00    -0.166 F 
ATOM     21  C   UNL     1      33.252 -21.493 -19.370  0.00  0.00    +0.419 C 
ENDBRANCH  14  21
ENDBRANCH   9  12
ENDBRANCH   3  10
BRANCH   1  22
ATOM     22  N   UNL     1      33.446 -11.661 -23.431  0.00  0.00    -0.312 N 
ATOM     23  H   UNL     1      34.260 -11.186 -23.715  0.00  0.00    +0.152 HD
BRANCH  22  25
ATOM     24  N   UNL     1      30.566 -10.537 -21.412  0.00  0.00    -0.241 NA
ATOM     25  C   UNL     1      32.458 -10.817 -22.890  0.00  0.00    +0.068 C 
ATOM     26  C   UNL     1      32.376  -9.480 -23.262  0.00  0.00    +0.022 C 
ATOM     27  C   UNL     1      31.538 -11.293 -21.970  0.00  0.00    +0.113 C 
ATOM     28  C   UNL     1      31.390  -8.670 -22.710  0.00  0.00    +0.073 C 
ATOM     29  C   UNL     1      30.517  -9.241 -21.798  0.00  0.00    +0.103 C 
BRANCH  28  32
ATOM     30  O   UNL     1      31.760  -6.835 -24.139  0.00  0.00    -0.270 OA
ATOM     31  N   UNL     1      30.590  -6.424 -22.211  0.00  0.00    -0.325 N 
ATOM     32  C   UNL     1      31.277  -7.270 -23.078  0.00  0.00    +0.244 C 
ATOM     33  H   UNL     1      30.494  -5.468 -22.428  0.00  0.00    +0.145 HD
ATOM     34  H   UNL     1      30.200  -6.781 -21.380  0.00  0.00    +0.145 HD
ENDBRANCH  28  32
ENDBRANCH  22  25
ENDBRANCH   1  22
TORSDOF 6
ENDMDL
MODEL 4
REMARK VINA RESULT:     -12.5      4.455      9.426
REMARK  Name = 24875320
REMARK  6 active torsions:
REMARK  status: ('A' for Active; 'I' for Inactive)
REMARK    1  A    between atoms: C_1  and  N_22
REMARK    2  A    between atoms: C_3  and  C_10
REMARK    3  A    between atoms: N_9  and  C_12
REMARK    4  A    between atoms: C_14  and  C_21
REMARK    5  A    between atoms: N_22  and  C_25
REMARK    6  A    between atoms: C_28  and  C_32
REMARK                            x       y       z     vdW  Elec       q    Type
REMARK                         _______ _______ _______ _____ _____    ______ ____
ROOT
ATOM      1  C   UNL     1      34.643 -19.183 -21.757  0.00  0.00    +0.044 C 
ATOM      2  C   UNL     1      35.948 -19.040 -21.285  0.00  0.00    -0.008 C 
ATOM      3  C   UNL     1      34.084 -20.500 -19.809  0.00  0.00    +0.055 C 
ATOM      4  C   UNL     1      33.712 -19.914 -21.019  0.00  0.00    +0.019 C 
ATOM      5  C   UNL     1      36.321 -19.627 -20.076  0.00  0.00    -0.003 C 
ATOM      6  C   UNL     1      35.389 -20.357 -19.338  0.00  0.00    +0.004 C 
ATOM      7  C   UNL     1      36.966 -18.262 -22.053  0.00  0.00    +0.032 C 
ENDROOT
BRANCH   3  10
ATOM      8  O   UNL     1      32.001 -21.499 -19.540  0.00  0.00    -0.270 OA
ATOM      9  N   UNL     1      33.521 -21.657 -17.760  0.00  0.00    -0.280 N 
ATOM     10  C   UNL     1      33.113 -21.263 -19.042  0.00  0.00    +0.250 C 
ATOM     11  H   UNL     1      34.435 -21.397 -17.502  0.00  0.00    +0.155 HD
BRANCH   9  12
ATOM     12  C   UNL     1      32.789 -22.380 -16.785  0.00  0.00    +0.050 C 
ATOM     13  C   UNL     1      31.395 -22.325 -16.775  0.00  0.00    +0.019 C 
ATOM     14  C   UNL     1      30.676 -23.037 -15.816  0.00  0.00    +0.073 C 
ATOM     15  C   UNL     1      33.463 -23.148 -15.836  0.00  0.00    +0.015 C 
ATOM     16  C   UNL     1      31.350 -23.805 -14.866  0.00  0.00    +0.004 C 
ATOM     17  C   UNL     1      32.744 -23.860 -14.877  0.00  0.00    +0.001 C 
BRANCH  14  21
ATOM     18  F   UNL     1      28.588 -24.204 -15.883  0.00  0.00    -0.166 F 
ATOM     19  F   UNL     1      28.671 -22.402 -14.678  0.00  0.00    -0.166 F 
ATOM     20  F   UNL     1      28.681 -22.258 -16.848  0.00  0.00    -0.166 F 
ATOM     21  C   UNL     1      29.186 -22.979 -15.805  0.00  0.00    +0.419 C 
ENDBRANCH  14  21
ENDBRANCH   9  12
ENDBRANCH   3  10
BRANCH   1  22
ATOM     22  N   UNL     1      34.248 -18.595 -22.978  0.00  0.00    -0.312 N 
ATOM     23  H   UNL     1      34.118 -19.245 -23.706  0.00  0.00    +0.152 HD
BRANCH  22  25
ATOM     24  N   UNL     1      33.416 -15.685 -25.093  0.00  0.00    -0.241 NA
ATOM     25  C   UNL     1      34.004 -17.262 -23.359  0.00  0.00    +0.068 C 
ATOM     26  C   UNL     1      34.098 -16.225 -22.437  0.00  0.00    +0.022 C 
ATOM     27  C   UNL     1      33.663 -16.942 -24.662  0.00  0.00    +0.113 C 
ATOM     28  C   UNL     1      33.850 -14.918 -22.841  0.00  0.00    +0.073 C 
ATOM     29  C   UNL     1      33.516 -14.702 -24.169  0.00  0.00    +0.103 C 
BRANCH  28  32
ATOM     30  O   UNL     1      34.100 -14.006 -20.684  0.00  0.00    -0.270 OA
ATOM     31  N   UNL     1      33.859 -12.520 -22.414  0.00  0.00    -0.325 N 
ATOM     32  C   UNL     1      33.940 -13.814 -21.903  0.00  0.00    +0.244 C 
ATOM     33  H   UNL     1      33.916 -11.746 -21.807  0.00  0.00    +0.145 HD
ATOM     34  H   UNL     1      33.746 -12.378 -23.382  0.00  0.00    +0.145 HD
ENDBRANCH  28  32
ENDBRANCH  22  25
ENDBRANCH   1  22
TORSDOF 6
ENDMDL
MODEL 5
REMARK VINA RESULT:     -12.4      4.554      8.116
REMARK  Name = 24875320
REMARK  6 active torsions:
REMARK  status: ('A' for Active; 'I' for Inactive)
REMARK    1  A    between atoms: C_1  and  N_22
REMARK    2  A    between atoms: C_3  and  C_10
REMARK    3  A    between atoms: N_9  and  C_12
REMARK    4  A    between atoms: C_14  and  C_21
REMARK    5  A    between atoms: N_22  and  C_25
REMARK    6  A    between atoms: C_28  and  C_32
REMARK                            x       y       z     vdW  Elec       q    Type
REMARK                         _______ _______ _______ _____ _____    ______ ____
ROOT
ATOM      1  C   UNL     1      34.735 -16.816 -22.636  0.00  0.00    +0.044 C 
ATOM      2  C   UNL     1      34.139 -17.126 -23.858  0.00  0.00    -0.008 C 
ATOM      3  C   UNL     1      33.691 -14.637 -22.680  0.00  0.00    +0.055 C 
ATOM      4  C   UNL     1      34.511 -15.571 -22.047  0.00  0.00    +0.019 C 
ATOM      5  C   UNL     1      33.319 -16.193 -24.492  0.00  0.00    -0.003 C 
ATOM      6  C   UNL     1      33.096 -14.948 -23.903  0.00  0.00    +0.004 C 
ATOM      7  C   UNL     1      34.361 -18.452 -24.511  0.00  0.00    +0.032 C 
ENDROOT
BRANCH   3  10
ATOM      8  O   UNL     1      34.135 -13.009 -21.080  0.00  0.00    -0.270 OA
ATOM      9  N   UNL     1      32.447 -12.562 -22.647  0.00  0.00    -0.280 N 
ATOM     10  C   UNL     1      33.458 -13.340 -22.067  0.00  0.00    +0.250 C 
ATOM     11  H   UNL     1      31.996 -12.958 -23.428  0.00  0.00    +0.155 HD
BRANCH   9  12
ATOM     12  C   UNL     1      31.986 -11.280 -22.255  0.00  0.00    +0.050 C 
ATOM     13  C   UNL     1      32.380 -10.148 -22.968  0.00  0.00    +0.019 C 
ATOM     14  C   UNL     1      31.927  -8.887 -22.583  0.00  0.00    +0.073 C 
ATOM     15  C   UNL     1      31.138 -11.151 -21.155  0.00  0.00    +0.015 C 
ATOM     16  C   UNL     1      31.078  -8.758 -21.482  0.00  0.00    +0.004 C 
ATOM     17  C   UNL     1      30.684  -9.890 -20.770  0.00  0.00    +0.001 C 
BRANCH  14  21
ATOM     18  F   UNL     1      31.583  -7.430 -24.448  0.00  0.00    -0.166 F 
ATOM     19  F   UNL     1      32.299  -6.525 -22.611  0.00  0.00    -0.166 F 
ATOM     20  F   UNL     1      33.632  -7.765 -23.801  0.00  0.00    -0.166 F 
ATOM     21  C   UNL     1      32.348  -7.677 -23.344  0.00  0.00    +0.419 C 
ENDBRANCH  14  21
ENDBRANCH   9  12
ENDBRANCH   3  10
BRANCH   1  22
ATOM     22  N   UNL     1      35.567 -17.750 -21.980  0.00  0.00    -0.312 N 
ATOM     23  H   UNL     1      36.522 -17.650 -22.198  0.00  0.00    +0.152 HD
BRANCH  22  25
ATOM     24  N   UNL     1      36.130 -20.409 -19.480  0.00  0.00    -0.241 NA
ATOM     25  C   UNL     1      35.298 -18.794 -21.075  0.00  0.00    +0.068 C 
ATOM     26  C   UNL     1      34.000 -19.248 -20.870  0.00  0.00    +0.022 C 
ATOM     27  C   UNL     1      36.319 -19.403 -20.363  0.00  0.00    +0.113 C 
ATOM     28  C   UNL     1      33.765 -20.281 -19.969  0.00  0.00    +0.073 C 
ATOM     29  C   UNL     1      34.854 -20.823 -19.306  0.00  0.00    +0.103 C 
BRANCH  28  32
ATOM     30  O   UNL     1      31.470 -20.456 -20.467  0.00  0.00    -0.270 OA
ATOM     31  N   UNL     1      32.229 -21.644 -18.658  0.00  0.00    -0.325 N 
ATOM     32  C   UNL     1      32.422 -20.777 -19.731  0.00  0.00    +0.244 C 
ATOM     33  H   UNL     1      31.331 -22.000 -18.467  0.00  0.00    +0.145 HD
ATOM     34  H   UNL     1      32.991 -21.901 -18.090  0.00  0.00    +0.145 HD
ENDBRANCH  28  32
ENDBRANCH  22  25
ENDBRANCH   1  22
TORSDOF 6
ENDMDL
MODEL 6
REMARK VINA RESULT:     -12.4      2.081      3.010
REMARK  Name = 24875320
REMARK  6 active torsions:
REMARK  status: ('A' for Active; 'I' for Inactive)
REMARK    1  A    between atoms: C_1  and  N_22
REMARK    2  A    between atoms: C_3  and  C_10
REMARK    3  A    between atoms: N_9  and  C_12
REMARK    4  A    between atoms: C_14  and  C_21
REMARK    5  A    between atoms: N_22  and  C_25
REMARK    6  A    between atoms: C_28  and  C_32
REMARK                            x       y       z     vdW  Elec       q    Type
REMARK                         _______ _______ _______ _____ _____    ______ ____
ROOT
ATOM      1  C   UNL     1      35.186 -23.781 -14.419  0.00  0.00    +0.044 C 
ATOM      2  C   UNL     1      36.470 -24.142 -14.011  0.00  0.00    -0.008 C 
ATOM      3  C   UNL     1      36.131 -22.302 -16.081  0.00  0.00    +0.055 C 
ATOM      4  C   UNL     1      35.017 -22.861 -15.454  0.00  0.00    +0.019 C 
ATOM      5  C   UNL     1      37.584 -23.584 -14.638  0.00  0.00    -0.003 C 
ATOM      6  C   UNL     1      37.415 -22.664 -15.672  0.00  0.00    +0.004 C 
ATOM      7  C   UNL     1      36.681 -25.126 -12.906  0.00  0.00    +0.032 C 
ENDROOT
BRANCH   3  10
ATOM      8  O   UNL     1      36.726 -20.373 -17.236  0.00  0.00    -0.270 OA
ATOM      9  N   UNL     1      34.883 -21.591 -18.029  0.00  0.00    -0.280 N 
ATOM     10  C   UNL     1      35.954 -21.343 -17.159  0.00  0.00    +0.250 C 
ATOM     11  H   UNL     1      34.358 -22.403 -17.841  0.00  0.00    +0.155 HD
BRANCH   9  12
ATOM     12  C   UNL     1      34.457 -20.826 -19.143  0.00  0.00    +0.050 C 
ATOM     13  C   UNL     1      35.372 -20.034 -19.838  0.00  0.00    +0.019 C 
ATOM     14  C   UNL     1      34.952 -19.282 -20.934  0.00  0.00    +0.073 C 
ATOM     15  C   UNL     1      33.122 -20.864 -19.544  0.00  0.00    +0.015 C 
ATOM     16  C   UNL     1      33.615 -19.320 -21.335  0.00  0.00    +0.004 C 
ATOM     17  C   UNL     1      32.702 -20.111 -20.641  0.00  0.00    +0.001 C 
BRANCH  14  21
ATOM     18  F   UNL     1      37.229 -18.664 -21.328  0.00  0.00    -0.166 F 
ATOM     19  F   UNL     1      35.886 -18.613 -23.031  0.00  0.00    -0.166 F 
ATOM     20  F   UNL     1      35.725 -17.100 -21.477  0.00  0.00    -0.166 F 
ATOM     21  C   UNL     1      35.928 -18.435 -21.677  0.00  0.00    +0.419 C 
ENDBRANCH  14  21
ENDBRANCH   9  12
ENDBRANCH   3  10
BRANCH   1  22
ATOM     22  N   UNL     1      34.047 -24.337 -13.797  0.00  0.00    -0.312 N 
ATOM     23  H   UNL     1      34.260 -25.006 -13.106  0.00  0.00    +0.152 HD
BRANCH  22  25
ATOM     24  N   UNL     1      30.411 -24.437 -13.162  0.00  0.00    -0.241 NA
ATOM     25  C   UNL     1      32.667 -24.121 -13.970  0.00  0.00    +0.068 C 
ATOM     26  C   UNL     1      32.184 -23.412 -15.064  0.00  0.00    +0.022 C 
ATOM     27  C   UNL     1      31.747 -24.608 -13.056  0.00  0.00    +0.113 C 
ATOM     28  C   UNL     1      30.815 -23.214 -15.208  0.00  0.00    +0.073 C 
ATOM     29  C   UNL     1      29.978 -23.742 -14.239  0.00  0.00    +0.103 C 
BRANCH  28  32
ATOM     30  O   UNL     1      31.023 -21.997 -17.214  0.00  0.00    -0.270 OA
ATOM     31  N   UNL     1      28.896 -22.341 -16.429  0.00  0.00    -0.325 N 
ATOM     32  C   UNL     1      30.280 -22.478 -16.339  0.00  0.00    +0.244 C 
ATOM     33  H   UNL     1      28.498 -21.848 -17.183  0.00  0.00    +0.145 HD
ATOM     34  H   UNL     1      28.316 -22.737 -15.739  0.00  0.00    +0.145 HD
ENDBRANCH  28  32
ENDBRANCH  22  25
ENDBRANCH   1  22
TORSDOF 6
ENDMDL
MODEL 7
REMARK VINA RESULT:     -12.4      4.738      9.785
REMARK  Name = 24875320
REMARK  6 active torsions:
REMARK  status: ('A' for Active; 'I' for Inactive)
REMARK    1  A    between atoms: C_1  and  N_22
REMARK    2  A    between atoms: C_3  and  C_10
REMARK    3  A    between atoms: N_9  and  C_12
REMARK    4  A    between atoms: C_14  and  C_21
REMARK    5  A    between atoms: N_22  and  C_25
REMARK    6  A    between atoms: C_28  and  C_32
REMARK                            x       y       z     vdW  Elec       q    Type
REMARK                         _______ _______ _______ _____ _____    ______ ____
ROOT
ATOM      1  C   UNL     1      34.515 -16.638 -22.386  0.00  0.00    +0.044 C 
ATOM      2  C   UNL     1      34.071 -17.204 -23.581  0.00  0.00    -0.008 C 
ATOM      3  C   UNL     1      34.669 -18.840 -21.402  0.00  0.00    +0.055 C 
ATOM      4  C   UNL     1      34.813 -17.456 -21.296  0.00  0.00    +0.019 C 
ATOM      5  C   UNL     1      33.926 -18.587 -23.687  0.00  0.00    -0.003 C 
ATOM      6  C   UNL     1      34.225 -19.405 -22.598  0.00  0.00    +0.004 C 
ATOM      7  C   UNL     1      33.745 -16.351 -24.764  0.00  0.00    +0.032 C 
ENDROOT
BRANCH   3  10
ATOM      8  O   UNL     1      36.158 -19.784 -19.884  0.00  0.00    -0.270 OA
ATOM      9  N   UNL     1      33.894 -20.374 -19.698  0.00  0.00    -0.280 N 
ATOM     10  C   UNL     1      34.980 -19.692 -20.266  0.00  0.00    +0.250 C 
ATOM     11  H   UNL     1      33.017 -20.200 -20.109  0.00  0.00    +0.155 HD
BRANCH   9  12
ATOM     12  C   UNL     1      33.895 -21.281 -18.609  0.00  0.00    +0.050 C 
ATOM     13  C   UNL     1      35.033 -21.417 -17.814  0.00  0.00    +0.019 C 
ATOM     14  C   UNL     1      35.033 -22.310 -16.743  0.00  0.00    +0.073 C 
ATOM     15  C   UNL     1      32.757 -22.039 -18.333  0.00  0.00    +0.015 C 
ATOM     16  C   UNL     1      33.894 -23.068 -16.467  0.00  0.00    +0.004 C 
ATOM     17  C   UNL     1      32.757 -22.932 -17.262  0.00  0.00    +0.001 C 
BRANCH  14  21
ATOM     18  F   UNL     1      37.408 -22.121 -16.531  0.00  0.00    -0.166 F 
ATOM     19  F   UNL     1      36.225 -21.680 -14.768  0.00  0.00    -0.166 F 
ATOM     20  F   UNL     1      36.430 -23.735 -15.451  0.00  0.00    -0.166 F 
ATOM     21  C   UNL     1      36.249 -22.456 -15.892  0.00  0.00    +0.419 C 
ENDBRANCH  14  21
ENDBRANCH   9  12
ENDBRANCH   3  10
BRANCH   1  22
ATOM     22  N   UNL     1      34.668 -15.240 -22.261  0.00  0.00    -0.312 N 
ATOM     23  H   UNL     1      35.574 -14.920 -22.473  0.00  0.00    +0.152 HD
BRANCH  22  25
ATOM     24  N   UNL     1      32.096 -13.390 -20.363  0.00  0.00    -0.241 NA
ATOM     25  C   UNL     1      33.778 -14.214 -21.892  0.00  0.00    +0.068 C 
ATOM     26  C   UNL     1      33.682 -13.045 -22.639  0.00  0.00    +0.022 C 
ATOM     27  C   UNL     1      32.970 -14.336 -20.773  0.00  0.00    +0.113 C 
ATOM     28  C   UNL     1      32.794 -12.048 -22.249  0.00  0.00    +0.073 C 
ATOM     29  C   UNL     1      32.030 -12.267 -21.114  0.00  0.00    +0.103 C 
BRANCH  28  32
ATOM     30  O   UNL     1      31.615 -10.157 -23.011  0.00  0.00    -0.270 OA
ATOM     31  N   UNL     1      33.783 -10.380 -23.724  0.00  0.00    -0.325 N 
ATOM     32  C   UNL     1      32.671 -10.817 -23.008  0.00  0.00    +0.244 C 
ATOM     33  H   UNL     1      33.736  -9.549 -24.250  0.00  0.00    +0.145 HD
ATOM     34  H   UNL     1      34.618 -10.902 -23.704  0.00  0.00    +0.145 HD
ENDBRANCH  28  32
ENDBRANCH  22  25
ENDBRANCH   1  22
TORSDOF 6
ENDMDL
MODEL 8
REMARK VINA RESULT:     -12.2      4.474      8.174
REMARK  Name = 24875320
REMARK  6 active torsions:
REMARK  status: ('A' for Active; 'I' for Inactive)
REMARK    1  A    between atoms: C_1  and  N_22
REMARK    2  A    between atoms: C_3  and  C_10
REMARK    3  A    between atoms: N_9  and  C_12
REMARK    4  A    between atoms: C_14  and  C_21
REMARK    5  A    between atoms: N_22  and  C_25
REMARK    6  A    between atoms: C_28  and  C_32
REMARK                            x       y       z     vdW  Elec       q    Type
REMARK                         _______ _______ _______ _____ _____    ______ ____
ROOT
ATOM      1  C   UNL     1      34.671 -16.750 -22.741  0.00  0.00    +0.044 C 
ATOM      2  C   UNL     1      34.014 -17.075 -23.927  0.00  0.00    -0.008 C 
ATOM      3  C   UNL     1      33.659 -14.556 -22.783  0.00  0.00    +0.055 C 
ATOM      4  C   UNL     1      34.494 -15.490 -22.169  0.00  0.00    +0.019 C 
ATOM      5  C   UNL     1      33.180 -16.142 -24.542  0.00  0.00    -0.003 C 
ATOM      6  C   UNL     1      33.002 -14.882 -23.970  0.00  0.00    +0.004 C 
ATOM      7  C   UNL     1      34.185 -18.418 -24.562  0.00  0.00    +0.032 C 
ENDROOT
BRANCH   3  10
ATOM      8  O   UNL     1      34.139 -12.937 -21.184  0.00  0.00    -0.270 OA
ATOM      9  N   UNL     1      32.521 -12.420 -22.803  0.00  0.00    -0.280 N 
ATOM     10  C   UNL     1      33.475 -13.243 -22.187  0.00  0.00    +0.250 C 
ATOM     11  H   UNL     1      32.074 -12.800 -23.593  0.00  0.00    +0.155 HD
BRANCH   9  12
ATOM     12  C   UNL     1      32.115 -11.113 -22.435  0.00  0.00    +0.050 C 
ATOM     13  C   UNL     1      31.763 -10.837 -21.113  0.00  0.00    +0.019 C 
ATOM     14  C   UNL     1      31.364  -9.551 -20.752  0.00  0.00    +0.073 C 
ATOM     15  C   UNL     1      32.067 -10.102 -23.395  0.00  0.00    +0.015 C 
ATOM     16  C   UNL     1      31.316  -8.540 -21.713  0.00  0.00    +0.004 C 
ATOM     17  C   UNL     1      31.668  -8.816 -23.033  0.00  0.00    +0.001 C 
BRANCH  14  21
ATOM     18  F   UNL     1      31.709  -9.961 -18.421  0.00  0.00    -0.166 F 
ATOM     19  F   UNL     1      31.153  -7.944 -18.993  0.00  0.00    -0.166 F 
ATOM     20  F   UNL     1      29.679  -9.541 -19.075  0.00  0.00    -0.166 F 
ATOM     21  C   UNL     1      30.987  -9.255 -19.340  0.00  0.00    +0.419 C 
ENDBRANCH  14  21
ENDBRANCH   9  12
ENDBRANCH   3  10
BRANCH   1  22
ATOM     22  N   UNL     1      35.518 -17.683 -22.105  0.00  0.00    -0.312 N 
ATOM     23  H   UNL     1      36.464 -17.603 -22.368  0.00  0.00    +0.152 HD
BRANCH  22  25
ATOM     24  N   UNL     1      36.145 -20.230 -19.505  0.00  0.00    -0.241 NA
ATOM     25  C   UNL     1      35.276 -18.706 -21.168  0.00  0.00    +0.068 C 
ATOM     26  C   UNL     1      33.994 -19.201 -20.964  0.00  0.00    +0.022 C 
ATOM     27  C   UNL     1      36.308 -19.249 -20.420  0.00  0.00    +0.113 C 
ATOM     28  C   UNL     1      33.785 -20.211 -20.030  0.00  0.00    +0.073 C 
ATOM     29  C   UNL     1      34.884 -20.687 -19.333  0.00  0.00    +0.103 C 
BRANCH  28  32
ATOM     30  O   UNL     1      31.478 -20.390 -20.472  0.00  0.00    -0.270 OA
ATOM     31  N   UNL     1      32.313 -21.704 -18.789  0.00  0.00    -0.325 N 
ATOM     32  C   UNL     1      32.458 -20.750 -19.793  0.00  0.00    +0.244 C 
ATOM     33  H   UNL     1      31.428 -22.091 -18.601  0.00  0.00    +0.145 HD
ATOM     34  H   UNL     1      33.097 -21.991 -18.267  0.00  0.00    +0.145 HD
ENDBRANCH  28  32
ENDBRANCH  22  25
ENDBRANCH   1  22
TORSDOF 6
ENDMDL
MODEL 9
REMARK VINA RESULT:     -12.1      2.968      4.688
REMARK  Name = 24875320
REMARK  6 active torsions:
REMARK  status: ('A' for Active; 'I' for Inactive)
REMARK    1  A    between atoms: C_1  and  N_22
REMARK    2  A    between atoms: C_3  and  C_10
REMARK    3  A    between atoms: N_9  and  C_12
REMARK    4  A    between atoms: C_14  and  C_21
REMARK    5  A    between atoms: N_22  and  C_25
REMARK    6  A    between atoms: C_28  and  C_32
REMARK                            x       y       z     vdW  Elec       q    Type
REMARK                         _______ _______ _______ _____ _____    ______ ____
ROOT
ATOM      1  C   UNL     1      33.229 -23.212 -16.158  0.00  0.00    +0.044 C 
ATOM      2  C   UNL     1      31.925 -23.217 -15.665  0.00  0.00    -0.008 C 
ATOM      3  C   UNL     1      32.528 -21.807 -17.995  0.00  0.00    +0.055 C 
ATOM      4  C   UNL     1      33.531 -22.508 -17.324  0.00  0.00    +0.019 C 
ATOM      5  C   UNL     1      30.922 -22.517 -16.335  0.00  0.00    -0.003 C 
ATOM      6  C   UNL     1      31.224 -21.812 -17.501  0.00  0.00    +0.004 C 
ATOM      7  C   UNL     1      31.574 -23.962 -14.418  0.00  0.00    +0.032 C 
ENDROOT
BRANCH   3  10
ATOM      8  O   UNL     1      31.988 -20.999 -20.108  0.00  0.00    -0.270 OA
ATOM      9  N   UNL     1      34.127 -20.517 -19.274  0.00  0.00    -0.280 N 
ATOM     10  C   UNL     1      32.842 -21.074 -19.210  0.00  0.00    +0.250 C 
ATOM     11  H   UNL     1      34.695 -20.658 -18.482  0.00  0.00    +0.155 HD
BRANCH   9  12
ATOM     12  C   UNL     1      34.717 -19.777 -20.329  0.00  0.00    +0.050 C 
ATOM     13  C   UNL     1      34.016 -19.579 -21.519  0.00  0.00    +0.019 C 
ATOM     14  C   UNL     1      34.597 -18.851 -22.558  0.00  0.00    +0.073 C 
ATOM     15  C   UNL     1      35.998 -19.248 -20.178  0.00  0.00    +0.015 C 
ATOM     16  C   UNL     1      35.879 -18.322 -22.406  0.00  0.00    +0.004 C 
ATOM     17  C   UNL     1      36.579 -18.520 -21.217  0.00  0.00    +0.001 C 
BRANCH  14  21
ATOM     18  F   UNL     1      32.492 -18.652 -23.677  0.00  0.00    -0.166 F 
ATOM     19  F   UNL     1      34.128 -17.446 -24.435  0.00  0.00    -0.166 F 
ATOM     20  F   UNL     1      34.121 -19.596 -24.764  0.00  0.00    -0.166 F 
ATOM     21  C   UNL     1      33.849 -18.639 -23.829  0.00  0.00    +0.419 C 
ENDBRANCH  14  21
ENDBRANCH   9  12
ENDBRANCH   3  10
BRANCH   1  22
ATOM     22  N   UNL     1      34.257 -23.915 -15.492  0.00  0.00    -0.312 N 
ATOM     23  H   UNL     1      34.358 -24.847 -15.792  0.00  0.00    +0.152 HD
BRANCH  22  25
ATOM     24  N   UNL     1      37.248 -22.483 -13.867  0.00  0.00    -0.241 NA
ATOM     25  C   UNL     1      35.165 -23.543 -14.482  0.00  0.00    +0.068 C 
ATOM     26  C   UNL     1      34.913 -23.842 -13.148  0.00  0.00    +0.022 C 
ATOM     27  C   UNL     1      36.336 -22.869 -14.787  0.00  0.00    +0.113 C 
ATOM     28  C   UNL     1      35.828 -23.461 -12.172  0.00  0.00    +0.073 C 
ATOM     29  C   UNL     1      36.970 -22.790 -12.580  0.00  0.00    +0.103 C 
BRANCH  28  32
ATOM     30  O   UNL     1      34.844 -24.685 -10.417  0.00  0.00    -0.270 OA
ATOM     31  N   UNL     1      36.257 -22.980  -9.822  0.00  0.00    -0.325 N 
ATOM     32  C   UNL     1      35.595 -23.757 -10.770  0.00  0.00    +0.244 C 
ATOM     33  H   UNL     1      36.123 -23.153  -8.862  0.00  0.00    +0.145 HD
ATOM     34  H   UNL     1      36.860 -22.257 -10.113  0.00  0.00    +0.145 HD
ENDBRANCH  28  32
ENDBRANCH  22  25
ENDBRANCH   1  22
TORSDOF 6
ENDMDL
