MODEL 1
REMARK VINA RESULT:     -11.4      0.000      0.000
REMARK  Name = 9994897
REMARK  8 active torsions:
REMARK  status: ('A' for Active; 'I' for Inactive)
REMARK    1  A    between atoms: N_2  and  C_17
REMARK    2  A    between atoms: C_3  and  C_5
REMARK    3  A    between atoms: C_6  and  C_7
REMARK    4  A    between atoms: C_10  and  O_13
REMARK    5  A    between atoms: C_11  and  O_15
REMARK    6  A    between atoms: C_17  and  C_18
REMARK    7  A    between atoms: C_18  and  C_19
REMARK    8  A    between atoms: C_24  and  O_25
REMARK                            x       y       z     vdW  Elec       q    Type
REMARK                         _______ _______ _______ _____ _____    ______ ____
ROOT
ATOM      1  O   UNL     1      36.560 -18.680 -20.139  0.00  0.00    -0.270 OA
ATOM      2  N   UNL     1      34.823 -20.146 -20.624  0.00  0.00    -0.301 N 
ATOM      3  C   UNL     1      35.509 -18.948 -20.714  0.00  0.00    +0.246 C 
ATOM      4  H   UNL     1      33.986 -20.247 -21.133  0.00  0.00    +0.150 HD
ENDROOT
BRANCH   3   5
ATOM      5  C   UNL     1      34.819 -17.980 -21.614  0.00  0.00    +0.058 C 
ATOM      6  C   UNL     1      34.923 -16.662 -21.385  0.00  0.00    +0.005 C 
BRANCH   6   7
ATOM      7  C   UNL     1      34.292 -15.618 -22.211  0.00  0.00    +0.003 C 
ATOM      8  C   UNL     1      34.046 -15.871 -23.551  0.00  0.00    +0.040 C 
ATOM      9  C   UNL     1      33.958 -14.404 -21.632  0.00  0.00    +0.003 C 
ATOM     10  C   UNL     1      33.449 -14.881 -24.334  0.00  0.00    +0.167 C 
ATOM     11  C   UNL     1      33.107 -13.654 -23.765  0.00  0.00    +0.167 C 
ATOM     12  C   UNL     1      33.361 -13.416 -22.415  0.00  0.00    +0.040 C 
BRANCH  10  13
ATOM     13  O   UNL     1      33.204 -15.126 -25.651  0.00  0.00    -0.503 OA
ATOM     14  H   UNL     1      33.644 -14.625 -26.310  0.00  0.00    +0.292 HD
ENDBRANCH  10  13
BRANCH  11  15
ATOM     15  O   UNL     1      32.521 -12.682 -24.519  0.00  0.00    -0.503 OA
ATOM     16  H   UNL     1      32.124 -11.942 -24.103  0.00  0.00    +0.292 HD
ENDBRANCH  11  15
ENDBRANCH   6   7
ENDBRANCH   3   5
BRANCH   2  17
ATOM     17  C   UNL     1      35.277 -21.257 -19.818  0.00  0.00    +0.094 C 
BRANCH  17  18
ATOM     18  C   UNL     1      34.332 -21.503 -18.642  0.00  0.00    +0.048 C 
BRANCH  18  19
ATOM     19  C   UNL     1      35.091 -21.787 -17.371  0.00  0.00    -0.020 C 
ATOM     20  C   UNL     1      36.418 -21.398 -17.269  0.00  0.00    -0.001 C 
ATOM     21  C   UNL     1      34.450 -22.431 -16.324  0.00  0.00    -0.001 C 
ATOM     22  C   UNL     1      37.120 -21.660 -16.093  0.00  0.00    +0.036 C 
ATOM     23  C   UNL     1      35.152 -22.693 -15.147  0.00  0.00    +0.036 C 
ATOM     24  C   UNL     1      36.487 -22.308 -15.032  0.00  0.00    +0.134 C 
BRANCH  24  25
ATOM     25  O   UNL     1      37.173 -22.563 -13.885  0.00  0.00    -0.506 OA
ATOM     26  H   UNL     1      38.072 -22.310 -13.810  0.00  0.00    +0.292 HD
ENDBRANCH  24  25
ENDBRANCH  18  19
ENDBRANCH  17  18
ENDBRANCH   2  17
TORSDOF 8
ENDMDL
MODEL 2
REMARK VINA RESULT:     -11.0      2.641      4.311
REMARK  Name = 9994897
REMARK  8 active torsions:
REMARK  status: ('A' for Active; 'I' for Inactive)
REMARK    1  A    between atoms: N_2  and  C_17
REMARK    2  A    between atoms: C_3  and  C_5
REMARK    3  A    between atoms: C_6  and  C_7
REMARK    4  A    between atoms: C_10  and  O_13
REMARK    5  A    between atoms: C_11  and  O_15
REMARK    6  A    between atoms: C_17  and  C_18
REMARK    7  A    between atoms: C_18  and  C_19
REMARK    8  A    between atoms: C_24  and  O_25
REMARK                            x       y       z     vdW  Elec       q    Type
REMARK                         _______ _______ _______ _____ _____    ______ ____
ROOT
ATOM      1  O   UNL     1      34.567 -16.038 -23.350  0.00  0.00    -0.270 OA
ATOM      2  N   UNL     1      34.761 -16.681 -21.125  0.00  0.00    -0.301 N 
ATOM      3  C   UNL     1      34.404 -15.826 -22.152  0.00  0.00    +0.246 C 
ATOM      4  H   UNL     1      34.579 -16.402 -20.198  0.00  0.00    +0.150 HD
ENDROOT
BRANCH   3   5
ATOM      5  C   UNL     1      33.776 -14.575 -21.639  0.00  0.00    +0.058 C 
ATOM      6  C   UNL     1      33.232 -13.698 -22.497  0.00  0.00    +0.005 C 
BRANCH   6   7
ATOM      7  C   UNL     1      32.580 -12.437 -22.102  0.00  0.00    +0.003 C 
ATOM      8  C   UNL     1      32.527 -11.389 -23.006  0.00  0.00    +0.040 C 
ATOM      9  C   UNL     1      32.033 -12.325 -20.833  0.00  0.00    +0.003 C 
ATOM     10  C   UNL     1      31.910 -10.195 -22.631  0.00  0.00    +0.167 C 
ATOM     11  C   UNL     1      31.354 -10.067 -21.358  0.00  0.00    +0.167 C 
ATOM     12  C   UNL     1      31.416 -11.132 -20.460  0.00  0.00    +0.040 C 
BRANCH  10  13
ATOM     13  O   UNL     1      31.854  -9.162 -23.518  0.00  0.00    -0.503 OA
ATOM     14  H   UNL     1      32.492  -9.098 -24.202  0.00  0.00    +0.292 HD
ENDBRANCH  10  13
BRANCH  11  15
ATOM     15  O   UNL     1      30.747  -8.907 -20.982  0.00  0.00    -0.503 OA
ATOM     16  H   UNL     1      29.990  -8.602 -21.444  0.00  0.00    +0.292 HD
ENDBRANCH  11  15
ENDBRANCH   6   7
ENDBRANCH   3   5
BRANCH   2  17
ATOM     17  C   UNL     1      35.388 -17.964 -21.348  0.00  0.00    +0.094 C 
BRANCH  17  18
ATOM     18  C   UNL     1      34.341 -19.049 -21.608  0.00  0.00    +0.048 C 
BRANCH  18  19
ATOM     19  C   UNL     1      34.244 -20.013 -20.454  0.00  0.00    -0.020 C 
ATOM     20  C   UNL     1      32.995 -20.399 -19.993  0.00  0.00    -0.001 C 
ATOM     21  C   UNL     1      35.406 -20.498 -19.872  0.00  0.00    -0.001 C 
ATOM     22  C   UNL     1      32.905 -21.292 -18.925  0.00  0.00    +0.036 C 
ATOM     23  C   UNL     1      35.316 -21.391 -18.804  0.00  0.00    +0.036 C 
ATOM     24  C   UNL     1      34.066 -21.787 -18.330  0.00  0.00    +0.134 C 
BRANCH  24  25
ATOM     25  O   UNL     1      33.977 -22.658 -17.288  0.00  0.00    -0.506 OA
ATOM     26  H   UNL     1      33.448 -22.446 -16.543  0.00  0.00    +0.292 HD
ENDBRANCH  24  25
ENDBRANCH  18  19
ENDBRANCH  17  18
ENDBRANCH   2  17
TORSDOF 8
ENDMDL
MODEL 3
REMARK VINA RESULT:     -10.9      1.380      9.898
REMARK  Name = 9994897
REMARK  8 active torsions:
REMARK  status: ('A' for Active; 'I' for Inactive)
REMARK    1  A    between atoms: N_2  and  C_17
REMARK    2  A    between atoms: C_3  and  C_5
REMARK    3  A    between atoms: C_6  and  C_7
REMARK    4  A    between atoms: C_10  and  O_13
REMARK    5  A    between atoms: C_11  and  O_15
REMARK    6  A    between atoms: C_17  and  C_18
REMARK    7  A    between atoms: C_18  and  C_19
REMARK    8  A    between atoms: C_24  and  O_25
REMARK                            x       y       z     vdW  Elec       q    Type
REMARK                         _______ _______ _______ _____ _____    ______ ____
ROOT
ATOM      1  O   UNL     1      33.849 -20.357 -20.634  0.00  0.00    -0.270 OA
ATOM      2  N   UNL     1      35.986 -19.599 -20.125  0.00  0.00    -0.301 N 
ATOM      3  C   UNL     1      34.866 -20.392 -19.949  0.00  0.00    +0.246 C 
ATOM      4  H   UNL     1      36.746 -19.717 -19.510  0.00  0.00    +0.150 HD
ENDROOT
BRANCH   3   5
ATOM      5  C   UNL     1      35.027 -21.330 -18.801  0.00  0.00    +0.058 C 
ATOM      6  C   UNL     1      35.875 -21.032 -17.806  0.00  0.00    +0.005 C 
BRANCH   6   7
ATOM      7  C   UNL     1      36.106 -21.879 -16.622  0.00  0.00    +0.003 C 
ATOM      8  C   UNL     1      37.399 -22.265 -16.308  0.00  0.00    +0.040 C 
ATOM      9  C   UNL     1      35.026 -22.272 -15.848  0.00  0.00    +0.003 C 
ATOM     10  C   UNL     1      37.617 -23.068 -15.187  0.00  0.00    +0.167 C 
ATOM     11  C   UNL     1      36.540 -23.472 -14.398  0.00  0.00    +0.167 C 
ATOM     12  C   UNL     1      35.245 -23.074 -14.729  0.00  0.00    +0.040 C 
BRANCH  10  13
ATOM     13  O   UNL     1      38.887 -23.450 -14.873  0.00  0.00    -0.503 OA
ATOM     14  H   UNL     1      39.605 -22.875 -15.051  0.00  0.00    +0.292 HD
ENDBRANCH  10  13
BRANCH  11  15
ATOM     15  O   UNL     1      36.741 -24.254 -13.300  0.00  0.00    -0.503 OA
ATOM     16  H   UNL     1      36.844 -23.859 -12.456  0.00  0.00    +0.292 HD
ENDBRANCH  11  15
ENDBRANCH   6   7
ENDBRANCH   3   5
BRANCH   2  17
ATOM     17  C   UNL     1      36.092 -18.604 -21.169  0.00  0.00    +0.094 C 
BRANCH  17  18
ATOM     18  C   UNL     1      35.188 -17.405 -20.878  0.00  0.00    +0.048 C 
BRANCH  18  19
ATOM     19  C   UNL     1      34.626 -16.815 -22.146  0.00  0.00    -0.020 C 
ATOM     20  C   UNL     1      34.317 -17.651 -23.208  0.00  0.00    -0.001 C 
ATOM     21  C   UNL     1      34.426 -15.445 -22.230  0.00  0.00    -0.001 C 
ATOM     22  C   UNL     1      33.796 -17.105 -24.380  0.00  0.00    +0.036 C 
ATOM     23  C   UNL     1      33.905 -14.900 -23.402  0.00  0.00    +0.036 C 
ATOM     24  C   UNL     1      33.591 -15.729 -24.478  0.00  0.00    +0.134 C 
BRANCH  24  25
ATOM     25  O   UNL     1      33.083 -15.197 -25.623  0.00  0.00    -0.506 OA
ATOM     26  H   UNL     1      33.651 -15.002 -26.342  0.00  0.00    +0.292 HD
ENDBRANCH  24  25
ENDBRANCH  18  19
ENDBRANCH  17  18
ENDBRANCH   2  17
TORSDOF 8
ENDMDL
MODEL 4
REMARK VINA RESULT:     -10.8      2.750      9.167
REMARK  Name = 9994897
REMARK  8 active torsions:
REMARK  status: ('A' for Active; 'I' for Inactive)
REMARK    1  A    between atoms: N_2  and  C_17
REMARK    2  A    between atoms: C_3  and  C_5
REMARK    3  A    between atoms: C_6  and  C_7
REMARK    4  A    between atoms: C_10  and  O_13
REMARK    5  A    between atoms: C_11  and  O_15
REMARK    6  A    between atoms: C_17  and  C_18
REMARK    7  A    between atoms: C_18  and  C_19
REMARK    8  A    between atoms: C_24  and  O_25
REMARK                            x       y       z     vdW  Elec       q    Type
REMARK                         _______ _______ _______ _____ _____    ______ ____
ROOT
ATOM      1  O   UNL     1      33.502 -18.479 -24.739  0.00  0.00    -0.270 OA
ATOM      2  N   UNL     1      34.104 -16.931 -23.114  0.00  0.00    -0.301 N 
ATOM      3  C   UNL     1      33.872 -18.205 -23.602  0.00  0.00    +0.246 C 
ATOM      4  H   UNL     1      34.401 -16.833 -22.180  0.00  0.00    +0.150 HD
ENDROOT
BRANCH   3   5
ATOM      5  C   UNL     1      34.129 -19.249 -22.569  0.00  0.00    +0.058 C 
ATOM      6  C   UNL     1      33.591 -19.128 -21.346  0.00  0.00    +0.005 C 
BRANCH   6   7
ATOM      7  C   UNL     1      33.770 -20.100 -20.254  0.00  0.00    +0.003 C 
ATOM      8  C   UNL     1      32.654 -20.617 -19.616  0.00  0.00    +0.040 C 
ATOM      9  C   UNL     1      35.052 -20.478 -19.886  0.00  0.00    +0.003 C 
ATOM     10  C   UNL     1      32.824 -21.537 -18.581  0.00  0.00    +0.167 C 
ATOM     11  C   UNL     1      34.108 -21.928 -18.199  0.00  0.00    +0.167 C 
ATOM     12  C   UNL     1      35.221 -21.398 -18.852  0.00  0.00    +0.040 C 
BRANCH  10  13
ATOM     13  O   UNL     1      31.729 -22.049 -17.952  0.00  0.00    -0.503 OA
ATOM     14  H   UNL     1      31.331 -22.835 -18.271  0.00  0.00    +0.292 HD
ENDBRANCH  10  13
BRANCH  11  15
ATOM     15  O   UNL     1      34.286 -22.828 -17.192  0.00  0.00    -0.503 OA
ATOM     16  H   UNL     1      34.412 -23.735 -17.391  0.00  0.00    +0.292 HD
ENDBRANCH  11  15
ENDBRANCH   6   7
ENDBRANCH   3   5
BRANCH   2  17
ATOM     17  C   UNL     1      33.931 -15.737 -23.911  0.00  0.00    +0.094 C 
BRANCH  17  18
ATOM     18  C   UNL     1      34.547 -14.521 -23.219  0.00  0.00    +0.048 C 
BRANCH  18  19
ATOM     19  C   UNL     1      33.489 -13.623 -22.630  0.00  0.00    -0.020 C 
ATOM     20  C   UNL     1      32.972 -12.588 -23.394  0.00  0.00    -0.001 C 
ATOM     21  C   UNL     1      33.049 -13.847 -21.334  0.00  0.00    -0.001 C 
ATOM     22  C   UNL     1      31.992 -11.758 -22.850  0.00  0.00    +0.036 C 
ATOM     23  C   UNL     1      32.069 -13.018 -20.790  0.00  0.00    +0.036 C 
ATOM     24  C   UNL     1      31.541 -11.973 -21.548  0.00  0.00    +0.134 C 
BRANCH  24  25
ATOM     25  O   UNL     1      30.586 -11.162 -21.017  0.00  0.00    -0.506 OA
ATOM     26  H   UNL     1      30.124 -10.558 -21.566  0.00  0.00    +0.292 HD
ENDBRANCH  24  25
ENDBRANCH  18  19
ENDBRANCH  17  18
ENDBRANCH   2  17
TORSDOF 8
ENDMDL
MODEL 5
REMARK VINA RESULT:     -10.7      2.317     10.685
REMARK  Name = 9994897
REMARK  8 active torsions:
REMARK  status: ('A' for Active; 'I' for Inactive)
REMARK    1  A    between atoms: N_2  and  C_17
REMARK    2  A    between atoms: C_3  and  C_5
REMARK    3  A    between atoms: C_6  and  C_7
REMARK    4  A    between atoms: C_10  and  O_13
REMARK    5  A    between atoms: C_11  and  O_15
REMARK    6  A    between atoms: C_17  and  C_18
REMARK    7  A    between atoms: C_18  and  C_19
REMARK    8  A    between atoms: C_24  and  O_25
REMARK                            x       y       z     vdW  Elec       q    Type
REMARK                         _______ _______ _______ _____ _____    ______ ____
ROOT
ATOM      1  O   UNL     1      36.962 -19.917 -17.270  0.00  0.00    -0.270 OA
ATOM      2  N   UNL     1      35.695 -21.295 -18.647  0.00  0.00    -0.301 N 
ATOM      3  C   UNL     1      36.314 -20.941 -17.461  0.00  0.00    +0.246 C 
ATOM      4  H   UNL     1      35.199 -22.145 -18.682  0.00  0.00    +0.150 HD
ENDROOT
BRANCH   3   5
ATOM      5  C   UNL     1      36.105 -21.967 -16.399  0.00  0.00    +0.058 C 
ATOM      6  C   UNL     1      37.140 -22.377 -15.651  0.00  0.00    +0.005 C 
BRANCH   6   7
ATOM      7  C   UNL     1      37.048 -23.376 -14.573  0.00  0.00    +0.003 C 
ATOM      8  C   UNL     1      35.871 -23.485 -13.849  0.00  0.00    +0.040 C 
ATOM      9  C   UNL     1      38.139 -24.186 -14.303  0.00  0.00    +0.003 C 
ATOM     10  C   UNL     1      35.785 -24.431 -12.826  0.00  0.00    +0.167 C 
ATOM     11  C   UNL     1      36.875 -25.254 -12.543  0.00  0.00    +0.167 C 
ATOM     12  C   UNL     1      38.052 -25.131 -13.281  0.00  0.00    +0.040 C 
BRANCH  10  13
ATOM     13  O   UNL     1      34.629 -24.543 -12.113  0.00  0.00    -0.503 OA
ATOM     14  H   UNL     1      34.317 -23.815 -11.612  0.00  0.00    +0.292 HD
ENDBRANCH  10  13
BRANCH  11  15
ATOM     15  O   UNL     1      36.801 -26.183 -11.549  0.00  0.00    -0.503 OA
ATOM     16  H   UNL     1      37.428 -26.879 -11.510  0.00  0.00    +0.292 HD
ENDBRANCH  11  15
ENDBRANCH   6   7
ENDBRANCH   3   5
BRANCH   2  17
ATOM     17  C   UNL     1      35.741 -20.474 -19.836  0.00  0.00    +0.094 C 
BRANCH  17  18
ATOM     18  C   UNL     1      34.338 -20.032 -20.253  0.00  0.00    +0.048 C 
BRANCH  18  19
ATOM     19  C   UNL     1      34.386 -18.941 -21.291  0.00  0.00    -0.020 C 
ATOM     20  C   UNL     1      33.898 -19.191 -22.565  0.00  0.00    -0.001 C 
ATOM     21  C   UNL     1      34.917 -17.705 -20.956  0.00  0.00    -0.001 C 
ATOM     22  C   UNL     1      33.942 -18.181 -23.525  0.00  0.00    +0.036 C 
ATOM     23  C   UNL     1      34.961 -16.694 -21.917  0.00  0.00    +0.036 C 
ATOM     24  C   UNL     1      34.474 -16.933 -23.201  0.00  0.00    +0.134 C 
BRANCH  24  25
ATOM     25  O   UNL     1      34.517 -15.948 -24.140  0.00  0.00    -0.506 OA
ATOM     26  H   UNL     1      34.753 -15.075 -23.894  0.00  0.00    +0.292 HD
ENDBRANCH  24  25
ENDBRANCH  18  19
ENDBRANCH  17  18
ENDBRANCH   2  17
TORSDOF 8
ENDMDL
MODEL 6
REMARK VINA RESULT:     -10.7      2.243      3.093
REMARK  Name = 9994897
REMARK  8 active torsions:
REMARK  status: ('A' for Active; 'I' for Inactive)
REMARK    1  A    between atoms: N_2  and  C_17
REMARK    2  A    between atoms: C_3  and  C_5
REMARK    3  A    between atoms: C_6  and  C_7
REMARK    4  A    between atoms: C_10  and  O_13
REMARK    5  A    between atoms: C_11  and  O_15
REMARK    6  A    between atoms: C_17  and  C_18
REMARK    7  A    between atoms: C_18  and  C_19
REMARK    8  A    between atoms: C_24  and  O_25
REMARK                            x       y       z     vdW  Elec       q    Type
REMARK                         _______ _______ _______ _____ _____    ______ ____
ROOT
ATOM      1  O   UNL     1      35.986 -20.152 -19.576  0.00  0.00    -0.270 OA
ATOM      2  N   UNL     1      33.856 -21.069 -19.428  0.00  0.00    -0.301 N 
ATOM      3  C   UNL     1      34.822 -20.231 -19.956  0.00  0.00    +0.246 C 
ATOM      4  H   UNL     1      32.952 -21.046 -19.816  0.00  0.00    +0.150 HD
ENDROOT
BRANCH   3   5
ATOM      5  C   UNL     1      34.287 -19.404 -21.075  0.00  0.00    +0.058 C 
ATOM      6  C   UNL     1      34.896 -18.257 -21.411  0.00  0.00    +0.005 C 
BRANCH   6   7
ATOM      7  C   UNL     1      34.461 -17.368 -22.502  0.00  0.00    +0.003 C 
ATOM      8  C   UNL     1      34.555 -15.996 -22.336  0.00  0.00    +0.040 C 
ATOM      9  C   UNL     1      33.965 -17.922 -23.671  0.00  0.00    +0.003 C 
ATOM     10  C   UNL     1      34.141 -15.154 -23.369  0.00  0.00    +0.167 C 
ATOM     11  C   UNL     1      33.640 -15.696 -24.553  0.00  0.00    +0.167 C 
ATOM     12  C   UNL     1      33.552 -17.080 -24.703  0.00  0.00    +0.040 C 
BRANCH  10  13
ATOM     13  O   UNL     1      34.233 -13.804 -23.211  0.00  0.00    -0.503 OA
ATOM     14  H   UNL     1      33.812 -13.231 -23.822  0.00  0.00    +0.292 HD
ENDBRANCH  10  13
BRANCH  11  15
ATOM     15  O   UNL     1      33.236 -14.884 -25.569  0.00  0.00    -0.503 OA
ATOM     16  H   UNL     1      32.803 -15.248 -26.317  0.00  0.00    +0.292 HD
ENDBRANCH  11  15
ENDBRANCH   6   7
ENDBRANCH   3   5
BRANCH   2  17
ATOM     17  C   UNL     1      34.113 -21.978 -18.333  0.00  0.00    +0.094 C 
BRANCH  17  18
ATOM     18  C   UNL     1      32.881 -22.830 -18.027  0.00  0.00    +0.048 C 
BRANCH  18  19
ATOM     19  C   UNL     1      32.535 -22.798 -16.560  0.00  0.00    -0.020 C 
ATOM     20  C   UNL     1      33.538 -22.976 -15.620  0.00  0.00    -0.001 C 
ATOM     21  C   UNL     1      31.219 -22.591 -16.175  0.00  0.00    -0.001 C 
ATOM     22  C   UNL     1      33.218 -22.946 -14.263  0.00  0.00    +0.036 C 
ATOM     23  C   UNL     1      30.899 -22.560 -14.818  0.00  0.00    +0.036 C 
ATOM     24  C   UNL     1      31.898 -22.738 -13.862  0.00  0.00    +0.134 C 
BRANCH  24  25
ATOM     25  O   UNL     1      31.586 -22.709 -12.538  0.00  0.00    -0.506 OA
ATOM     26  H   UNL     1      32.266 -22.754 -11.894  0.00  0.00    +0.292 HD
ENDBRANCH  24  25
ENDBRANCH  18  19
ENDBRANCH  17  18
ENDBRANCH   2  17
TORSDOF 8
ENDMDL
MODEL 7
REMARK VINA RESULT:     -10.7      1.208      1.873
REMARK  Name = 9994897
REMARK  8 active torsions:
REMARK  status: ('A' for Active; 'I' for Inactive)
REMARK    1  A    between atoms: N_2  and  C_17
REMARK    2  A    between atoms: C_3  and  C_5
REMARK    3  A    between atoms: C_6  and  C_7
REMARK    4  A    between atoms: C_10  and  O_13
REMARK    5  A    between atoms: C_11  and  O_15
REMARK    6  A    between atoms: C_17  and  C_18
REMARK    7  A    between atoms: C_18  and  C_19
REMARK    8  A    between atoms: C_24  and  O_25
REMARK                            x       y       z     vdW  Elec       q    Type
REMARK                         _______ _______ _______ _____ _____    ______ ____
ROOT
ATOM      1  O   UNL     1      36.891 -18.224 -21.727  0.00  0.00    -0.270 OA
ATOM      2  N   UNL     1      34.949 -18.994 -20.710  0.00  0.00    -0.301 N 
ATOM      3  C   UNL     1      35.702 -18.101 -21.451  0.00  0.00    +0.246 C 
ATOM      4  H   UNL     1      33.999 -18.789 -20.551  0.00  0.00    +0.150 HD
ENDROOT
BRANCH   3   5
ATOM      5  C   UNL     1      34.893 -16.930 -21.897  0.00  0.00    +0.058 C 
ATOM      6  C   UNL     1      34.535 -15.987 -21.013  0.00  0.00    +0.005 C 
BRANCH   6   7
ATOM      7  C   UNL     1      33.746 -14.788 -21.343  0.00  0.00    +0.003 C 
ATOM      8  C   UNL     1      33.783 -14.287 -22.634  0.00  0.00    +0.040 C 
ATOM      9  C   UNL     1      32.983 -14.185 -20.356  0.00  0.00    +0.003 C 
ATOM     10  C   UNL     1      33.036 -13.150 -22.947  0.00  0.00    +0.167 C 
ATOM     11  C   UNL     1      32.263 -12.531 -21.964  0.00  0.00    +0.167 C 
ATOM     12  C   UNL     1      32.237 -13.049 -20.669  0.00  0.00    +0.040 C 
BRANCH  10  13
ATOM     13  O   UNL     1      33.069 -12.655 -24.216  0.00  0.00    -0.503 OA
ATOM     14  H   UNL     1      33.838 -12.220 -24.529  0.00  0.00    +0.292 HD
ENDBRANCH  10  13
BRANCH  11  15
ATOM     15  O   UNL     1      31.528 -11.423 -22.258  0.00  0.00    -0.503 OA
ATOM     16  H   UNL     1      30.602 -11.495 -22.389  0.00  0.00    +0.292 HD
ENDBRANCH  11  15
ENDBRANCH   6   7
ENDBRANCH   3   5
BRANCH   2  17
ATOM     17  C   UNL     1      35.491 -20.215 -20.157  0.00  0.00    +0.094 C 
BRANCH  17  18
ATOM     18  C   UNL     1      34.403 -21.034 -19.463  0.00  0.00    +0.048 C 
BRANCH  18  19
ATOM     19  C   UNL     1      34.862 -21.541 -18.120  0.00  0.00    -0.020 C 
ATOM     20  C   UNL     1      33.972 -22.233 -17.313  0.00  0.00    -0.001 C 
ATOM     21  C   UNL     1      36.167 -21.306 -17.713  0.00  0.00    -0.001 C 
ATOM     22  C   UNL     1      34.397 -22.702 -16.070  0.00  0.00    +0.036 C 
ATOM     23  C   UNL     1      36.592 -21.776 -16.470  0.00  0.00    +0.036 C 
ATOM     24  C   UNL     1      35.707 -22.473 -15.649  0.00  0.00    +0.134 C 
BRANCH  24  25
ATOM     25  O   UNL     1      36.121 -22.931 -14.435  0.00  0.00    -0.506 OA
ATOM     26  H   UNL     1      36.980 -23.292 -14.338  0.00  0.00    +0.292 HD
ENDBRANCH  24  25
ENDBRANCH  18  19
ENDBRANCH  17  18
ENDBRANCH   2  17
TORSDOF 8
ENDMDL
MODEL 8
REMARK VINA RESULT:     -10.6      2.780      9.637
REMARK  Name = 9994897
REMARK  8 active torsions:
REMARK  status: ('A' for Active; 'I' for Inactive)
REMARK    1  A    between atoms: N_2  and  C_17
REMARK    2  A    between atoms: C_3  and  C_5
REMARK    3  A    between atoms: C_6  and  C_7
REMARK    4  A    between atoms: C_10  and  O_13
REMARK    5  A    between atoms: C_11  and  O_15
REMARK    6  A    between atoms: C_17  and  C_18
REMARK    7  A    between atoms: C_18  and  C_19
REMARK    8  A    between atoms: C_24  and  O_25
REMARK                            x       y       z     vdW  Elec       q    Type
REMARK                         _______ _______ _______ _____ _____    ______ ____
ROOT
ATOM      1  O   UNL     1      34.497 -17.371 -23.691  0.00  0.00    -0.270 OA
ATOM      2  N   UNL     1      34.428 -15.586 -22.205  0.00  0.00    -0.301 N 
ATOM      3  C   UNL     1      34.473 -16.926 -22.548  0.00  0.00    +0.246 C 
ATOM      4  H   UNL     1      34.413 -15.346 -21.250  0.00  0.00    +0.150 HD
ENDROOT
BRANCH   3   5
ATOM      5  C   UNL     1      34.494 -17.805 -21.344  0.00  0.00    +0.058 C 
ATOM      6  C   UNL     1      34.141 -19.095 -21.451  0.00  0.00    +0.005 C 
BRANCH   6   7
ATOM      7  C   UNL     1      34.132 -20.054 -20.333  0.00  0.00    +0.003 C 
ATOM      8  C   UNL     1      32.920 -20.472 -19.808  0.00  0.00    +0.040 C 
ATOM      9  C   UNL     1      35.336 -20.519 -19.829  0.00  0.00    +0.003 C 
ATOM     10  C   UNL     1      32.912 -21.380 -18.748  0.00  0.00    +0.167 C 
ATOM     11  C   UNL     1      34.116 -21.857 -18.230  0.00  0.00    +0.167 C 
ATOM     12  C   UNL     1      35.328 -21.427 -18.770  0.00  0.00    +0.040 C 
BRANCH  10  13
ATOM     13  O   UNL     1      31.723 -21.794 -18.229  0.00  0.00    -0.503 OA
ATOM     14  H   UNL     1      31.251 -21.240 -17.639  0.00  0.00    +0.292 HD
ENDBRANCH  10  13
BRANCH  11  15
ATOM     15  O   UNL     1      34.121 -22.746 -17.197  0.00  0.00    -0.503 OA
ATOM     16  H   UNL     1      33.482 -23.432 -17.166  0.00  0.00    +0.292 HD
ENDBRANCH  11  15
ENDBRANCH   6   7
ENDBRANCH   3   5
BRANCH   2  17
ATOM     17  C   UNL     1      34.401 -14.522 -23.184  0.00  0.00    +0.094 C 
BRANCH  17  18
ATOM     18  C   UNL     1      32.965 -14.176 -23.579  0.00  0.00    +0.048 C 
BRANCH  18  19
ATOM     19  C   UNL     1      32.517 -12.877 -22.960  0.00  0.00    -0.020 C 
ATOM     20  C   UNL     1      32.720 -11.690 -23.646  0.00  0.00    -0.001 C 
ATOM     21  C   UNL     1      31.908 -12.891 -21.714  0.00  0.00    -0.001 C 
ATOM     22  C   UNL     1      32.305 -10.488 -23.074  0.00  0.00    +0.036 C 
ATOM     23  C   UNL     1      31.492 -11.689 -21.142  0.00  0.00    +0.036 C 
ATOM     24  C   UNL     1      31.692 -10.487 -21.821  0.00  0.00    +0.134 C 
BRANCH  24  25
ATOM     25  O   UNL     1      31.287  -9.314 -21.263  0.00  0.00    -0.506 OA
ATOM     26  H   UNL     1      31.573  -8.498 -21.626  0.00  0.00    +0.292 HD
ENDBRANCH  24  25
ENDBRANCH  18  19
ENDBRANCH  17  18
ENDBRANCH   2  17
TORSDOF 8
ENDMDL
MODEL 9
REMARK VINA RESULT:     -10.5      1.759     10.055
REMARK  Name = 9994897
REMARK  8 active torsions:
REMARK  status: ('A' for Active; 'I' for Inactive)
REMARK    1  A    between atoms: N_2  and  C_17
REMARK    2  A    between atoms: C_3  and  C_5
REMARK    3  A    between atoms: C_6  and  C_7
REMARK    4  A    between atoms: C_10  and  O_13
REMARK    5  A    between atoms: C_11  and  O_15
REMARK    6  A    between atoms: C_17  and  C_18
REMARK    7  A    between atoms: C_18  and  C_19
REMARK    8  A    between atoms: C_24  and  O_25
REMARK                            x       y       z     vdW  Elec       q    Type
REMARK                         _______ _______ _______ _____ _____    ______ ____
ROOT
ATOM      1  O   UNL     1      32.158 -21.368 -19.467  0.00  0.00    -0.270 OA
ATOM      2  N   UNL     1      34.222 -20.409 -19.936  0.00  0.00    -0.301 N 
ATOM      3  C   UNL     1      33.367 -21.273 -19.276  0.00  0.00    +0.246 C 
ATOM      4  H   UNL     1      35.178 -20.421 -19.698  0.00  0.00    +0.150 HD
ENDROOT
BRANCH   3   5
ATOM      5  C   UNL     1      34.088 -22.108 -18.274  0.00  0.00    +0.058 C 
ATOM      6  C   UNL     1      34.982 -21.543 -17.449  0.00  0.00    +0.005 C 
BRANCH   6   7
ATOM      7  C   UNL     1      35.744 -22.268 -16.418  0.00  0.00    +0.003 C 
ATOM      8  C   UNL     1      35.080 -23.146 -15.576  0.00  0.00    +0.040 C 
ATOM      9  C   UNL     1      37.109 -22.059 -16.311  0.00  0.00    +0.003 C 
ATOM     10  C   UNL     1      35.802 -23.832 -14.599  0.00  0.00    +0.167 C 
ATOM     11  C   UNL     1      37.178 -23.632 -14.478  0.00  0.00    +0.167 C 
ATOM     12  C   UNL     1      37.830 -22.745 -15.334  0.00  0.00    +0.040 C 
BRANCH  10  13
ATOM     13  O   UNL     1      35.153 -24.697 -13.770  0.00  0.00    -0.503 OA
ATOM     14  H   UNL     1      34.263 -24.534 -13.528  0.00  0.00    +0.292 HD
ENDBRANCH  10  13
BRANCH  11  15
ATOM     15  O   UNL     1      37.893 -24.298 -13.530  0.00  0.00    -0.503 OA
ATOM     16  H   UNL     1      37.864 -24.017 -12.636  0.00  0.00    +0.292 HD
ENDBRANCH  11  15
ENDBRANCH   6   7
ENDBRANCH   3   5
BRANCH   2  17
ATOM     17  C   UNL     1      33.779 -19.488 -20.959  0.00  0.00    +0.094 C 
BRANCH  17  18
ATOM     18  C   UNL     1      34.871 -18.470 -21.292  0.00  0.00    +0.048 C 
BRANCH  18  19
ATOM     19  C   UNL     1      34.460 -17.567 -22.426  0.00  0.00    -0.020 C 
ATOM     20  C   UNL     1      34.655 -16.199 -22.312  0.00  0.00    -0.001 C 
ATOM     21  C   UNL     1      33.893 -18.119 -23.565  0.00  0.00    -0.001 C 
ATOM     22  C   UNL     1      34.275 -15.363 -23.362  0.00  0.00    +0.036 C 
ATOM     23  C   UNL     1      33.514 -17.283 -24.615  0.00  0.00    +0.036 C 
ATOM     24  C   UNL     1      33.704 -15.905 -24.513  0.00  0.00    +0.134 C 
BRANCH  24  25
ATOM     25  O   UNL     1      33.333 -15.089 -25.537  0.00  0.00    -0.506 OA
ATOM     26  H   UNL     1      32.895 -14.280 -25.357  0.00  0.00    +0.292 HD
ENDBRANCH  24  25
ENDBRANCH  18  19
ENDBRANCH  17  18
ENDBRANCH   2  17
TORSDOF 8
ENDMDL
