MODEL 1
REMARK VINA RESULT:     -10.5      0.000      0.000
REMARK  Name = 44631912
REMARK  3 active torsions:
REMARK  status: ('A' for Active; 'I' for Inactive)
REMARK    1  A    between atoms: N_1  and  C_31
REMARK    2  A    between atoms: C_6  and  C_28
REMARK    3  A    between atoms: C_12  and  N_18
REMARK                            x       y       z     vdW  Elec       q    Type
REMARK                         _______ _______ _______ _____ _____    ______ ____
ROOT
ATOM      1  N   UNL     1      36.561 -23.446 -15.098  0.00  0.00    -0.260 N 
ATOM      2  N   UNL     1      36.590 -21.925 -16.969  0.00  0.00    -0.322 NA
ATOM      3  N   UNL     1      34.381 -21.554 -17.923  0.00  0.00    -0.170 NA
ATOM      4  N   UNL     1      36.276 -20.506 -18.791  0.00  0.00    -0.232 N 
ATOM      5  N   UNL     1      34.374 -19.830 -20.055  0.00  0.00    -0.227 NA
ATOM      6  C   UNL     1      35.616 -24.168 -14.416  0.00  0.00    +0.108 C 
ATOM      7  C   UNL     1      35.959 -22.739 -16.104  0.00  0.00    +0.201 C 
ATOM      8  C   UNL     1      34.598 -23.017 -16.068  0.00  0.00    +0.067 C 
ATOM      9  C   UNL     1      34.389 -23.922 -14.995  0.00  0.00    +0.025 C 
ATOM     10  C   UNL     1      33.805 -22.385 -17.024  0.00  0.00    +0.116 C 
ATOM     11  C   UNL     1      35.719 -21.378 -17.841  0.00  0.00    +0.151 C 
ATOM     12  C   UNL     1      34.657 -18.287 -21.895  0.00  0.00    +0.067 C 
ATOM     13  C   UNL     1      35.707 -19.754 -19.848  0.00  0.00    +0.141 C 
ATOM     14  C   UNL     1      36.024 -18.235 -21.651  0.00  0.00    +0.019 C 
ATOM     15  C   UNL     1      33.882 -19.093 -21.076  0.00  0.00    +0.115 C 
ATOM     16  C   UNL     1      36.567 -18.980 -20.610  0.00  0.00    +0.036 C 
ATOM     17  H   UNL     1      37.251 -20.399 -18.706  0.00  0.00    +0.166 HD
ENDROOT
BRANCH  12  18
ATOM     18  N   UNL     1      34.081 -17.550 -22.936  0.00  0.00    -0.311 N 
ATOM     19  N   UNL     1      33.134 -16.039 -25.165  0.00  0.00    +0.386 N 
ATOM     20  C   UNL     1      33.631 -18.238 -24.152  0.00  0.00    +0.067 C 
ATOM     21  C   UNL     1      34.506 -16.155 -23.114  0.00  0.00    +0.067 C 
ATOM     22  C   UNL     1      32.615 -17.381 -24.906  0.00  0.00    -0.060 C 
ATOM     23  C   UNL     1      33.456 -15.373 -23.904  0.00  0.00    -0.060 C 
ATOM     24  H   UNL     1      32.429 -15.495 -25.662  0.00  0.00    -0.084 HD
ATOM     25  H   UNL     1      33.979 -16.111 -25.731  0.00  0.00    -0.084 HD
ENDBRANCH  12  18
BRANCH   6  28
ATOM     26  O   UNL     1      36.312 -26.175 -13.537  0.00  0.00    -0.269 OA
ATOM     27  N   UNL     1      35.707 -24.538 -11.981  0.00  0.00    -0.272 N 
ATOM     28  C   UNL     1      35.895 -25.022 -13.301  0.00  0.00    +0.263 C 
ATOM     29  C   UNL     1      35.998 -25.382 -10.830  0.00  0.00    +0.115 C 
ATOM     30  C   UNL     1      35.220 -23.195 -11.673  0.00  0.00    +0.115 C 
ENDBRANCH   6  28
BRANCH   1  31
ATOM     31  C   UNL     1      38.042 -23.430 -14.789  0.00  0.00    +0.080 C 
ATOM     32  C   UNL     1      38.334 -23.655 -13.294  0.00  0.00    +0.020 C 
ATOM     33  C   UNL     1      38.864 -24.497 -15.540  0.00  0.00    +0.020 C 
ATOM     34  C   UNL     1      39.624 -24.462 -13.271  0.00  0.00    +0.002 C 
ATOM     35  C   UNL     1      39.469 -25.390 -14.463  0.00  0.00    +0.002 C 
ENDBRANCH   1  31
TORSDOF 3
ENDMDL
MODEL 2
REMARK VINA RESULT:     -10.3      7.662     15.010
REMARK  Name = 44631912
REMARK  3 active torsions:
REMARK  status: ('A' for Active; 'I' for Inactive)
REMARK    1  A    between atoms: N_1  and  C_31
REMARK    2  A    between atoms: C_6  and  C_28
REMARK    3  A    between atoms: C_12  and  N_18
REMARK                            x       y       z     vdW  Elec       q    Type
REMARK                         _______ _______ _______ _____ _____    ______ ____
ROOT
ATOM      1  N   UNL     1      31.730  -8.312 -22.948  0.00  0.00    -0.260 N 
ATOM      2  N   UNL     1      32.693 -10.517 -23.104  0.00  0.00    -0.322 NA
ATOM      3  N   UNL     1      32.343 -11.849 -21.096  0.00  0.00    -0.170 NA
ATOM      4  N   UNL     1      33.501 -12.696 -22.935  0.00  0.00    -0.232 N 
ATOM      5  N   UNL     1      33.426 -14.363 -21.235  0.00  0.00    -0.227 NA
ATOM      6  C   UNL     1      31.024  -7.597 -22.015  0.00  0.00    +0.108 C 
ATOM      7  C   UNL     1      32.013  -9.556 -22.452  0.00  0.00    +0.201 C 
ATOM      8  C   UNL     1      31.480  -9.639 -21.172  0.00  0.00    +0.067 C 
ATOM      9  C   UNL     1      30.855  -8.395 -20.904  0.00  0.00    +0.025 C 
ATOM     10  C   UNL     1      31.667 -10.843 -20.494  0.00  0.00    +0.116 C 
ATOM     11  C   UNL     1      32.807 -11.626 -22.346  0.00  0.00    +0.151 C 
ATOM     12  C   UNL     1      34.468 -16.509 -21.628  0.00  0.00    +0.067 C 
ATOM     13  C   UNL     1      33.824 -13.995 -22.473  0.00  0.00    +0.141 C 
ATOM     14  C   UNL     1      34.861 -16.094 -22.895  0.00  0.00    +0.019 C 
ATOM     15  C   UNL     1      33.759 -15.614 -20.844  0.00  0.00    +0.115 C 
ATOM     16  C   UNL     1      34.538 -14.815 -23.333  0.00  0.00    +0.036 C 
ATOM     17  H   UNL     1      33.827 -12.504 -23.844  0.00  0.00    +0.166 HD
ENDROOT
BRANCH  12  18
ATOM     18  N   UNL     1      34.781 -17.790 -21.158  0.00  0.00    -0.311 N 
ATOM     19  N   UNL     1      35.415 -20.479 -20.439  0.00  0.00    +0.386 N 
ATOM     20  C   UNL     1      36.180 -18.232 -21.130  0.00  0.00    +0.067 C 
ATOM     21  C   UNL     1      33.781 -18.852 -21.326  0.00  0.00    +0.067 C 
ATOM     22  C   UNL     1      36.354 -19.395 -20.154  0.00  0.00    -0.060 C 
ATOM     23  C   UNL     1      34.040 -19.991 -20.340  0.00  0.00    -0.060 C 
ATOM     24  H   UNL     1      35.555 -21.232 -19.766  0.00  0.00    -0.084 HD
ATOM     25  H   UNL     1      35.581 -20.823 -21.385  0.00  0.00    -0.084 HD
ENDBRANCH  12  18
BRANCH   6  28
ATOM     26  O   UNL     1      29.481  -6.086 -22.802  0.00  0.00    -0.269 OA
ATOM     27  N   UNL     1      31.323  -5.172 -21.689  0.00  0.00    -0.272 N 
ATOM     28  C   UNL     1      30.562  -6.254 -22.200  0.00  0.00    +0.263 C 
ATOM     29  C   UNL     1      30.867  -3.798 -21.851  0.00  0.00    +0.115 C 
ATOM     30  C   UNL     1      32.590  -5.338 -20.980  0.00  0.00    +0.115 C 
ENDBRANCH   6  28
BRANCH   1  31
ATOM     31  C   UNL     1      32.134  -7.807 -24.316  0.00  0.00    +0.080 C 
ATOM     32  C   UNL     1      30.986  -7.075 -25.036  0.00  0.00    +0.020 C 
ATOM     33  C   UNL     1      33.319  -6.820 -24.309  0.00  0.00    +0.020 C 
ATOM     34  C   UNL     1      31.669  -5.961 -25.815  0.00  0.00    +0.002 C 
ATOM     35  C   UNL     1      32.775  -5.513 -24.876  0.00  0.00    +0.002 C 
ENDBRANCH   1  31
TORSDOF 3
ENDMDL
MODEL 3
REMARK VINA RESULT:      -9.4      1.342      2.960
REMARK  Name = 44631912
REMARK  3 active torsions:
REMARK  status: ('A' for Active; 'I' for Inactive)
REMARK    1  A    between atoms: N_1  and  C_31
REMARK    2  A    between atoms: C_6  and  C_28
REMARK    3  A    between atoms: C_12  and  N_18
REMARK                            x       y       z     vdW  Elec       q    Type
REMARK                         _______ _______ _______ _____ _____    ______ ____
ROOT
ATOM      1  N   UNL     1      35.463 -23.802 -14.726  0.00  0.00    -0.260 N 
ATOM      2  N   UNL     1      34.534 -22.588 -16.591  0.00  0.00    -0.322 NA
ATOM      3  N   UNL     1      36.163 -21.158 -17.698  0.00  0.00    -0.170 NA
ATOM      4  N   UNL     1      33.953 -21.282 -18.431  0.00  0.00    -0.232 N 
ATOM      5  N   UNL     1      35.143 -19.760 -19.824  0.00  0.00    -0.227 NA
ATOM      6  C   UNL     1      36.686 -23.904 -14.114  0.00  0.00    +0.108 C 
ATOM      7  C   UNL     1      35.548 -22.924 -15.774  0.00  0.00    +0.201 C 
ATOM      8  C   UNL     1      36.853 -22.452 -15.832  0.00  0.00    +0.067 C 
ATOM      9  C   UNL     1      37.566 -23.078 -14.778  0.00  0.00    +0.025 C 
ATOM     10  C   UNL     1      37.141 -21.536 -16.843  0.00  0.00    +0.116 C 
ATOM     11  C   UNL     1      34.938 -21.700 -17.522  0.00  0.00    +0.151 C 
ATOM     12  C   UNL     1      33.989 -18.660 -21.641  0.00  0.00    +0.067 C 
ATOM     13  C   UNL     1      33.981 -20.383 -19.525  0.00  0.00    +0.141 C 
ATOM     14  C   UNL     1      32.813 -19.319 -21.303  0.00  0.00    +0.019 C 
ATOM     15  C   UNL     1      35.116 -18.912 -20.877  0.00  0.00    +0.115 C 
ATOM     16  C   UNL     1      32.800 -20.198 -20.226  0.00  0.00    +0.036 C 
ATOM     17  H   UNL     1      33.071 -21.693 -18.277  0.00  0.00    +0.166 HD
ENDROOT
BRANCH  12  18
ATOM     18  N   UNL     1      34.031 -17.768 -22.719  0.00  0.00    -0.311 N 
ATOM     19  N   UNL     1      34.355 -16.018 -24.951  0.00  0.00    +0.386 N 
ATOM     20  C   UNL     1      33.784 -18.259 -24.079  0.00  0.00    +0.067 C 
ATOM     21  C   UNL     1      34.913 -16.598 -22.615  0.00  0.00    +0.067 C 
ATOM     22  C   UNL     1      33.381 -17.107 -24.999  0.00  0.00    -0.060 C 
ATOM     23  C   UNL     1      34.468 -15.505 -23.587  0.00  0.00    -0.060 C 
ATOM     24  H   UNL     1      34.052 -15.267 -25.570  0.00  0.00    -0.084 HD
ATOM     25  H   UNL     1      35.264 -16.370 -25.252  0.00  0.00    -0.084 HD
ENDBRANCH  12  18
BRANCH   6  28
ATOM     26  O   UNL     1      37.250 -25.932 -13.191  0.00  0.00    -0.269 OA
ATOM     27  N   UNL     1      36.909 -24.184 -11.675  0.00  0.00    -0.272 N 
ATOM     28  C   UNL     1      36.960 -24.736 -12.981  0.00  0.00    +0.263 C 
ATOM     29  C   UNL     1      37.198 -25.006 -10.508  0.00  0.00    +0.115 C 
ATOM     30  C   UNL     1      36.572 -22.789 -11.399  0.00  0.00    +0.115 C 
ENDBRANCH   6  28
BRANCH   1  31
ATOM     31  C   UNL     1      34.212 -24.544 -14.312  0.00  0.00    +0.080 C 
ATOM     32  C   UNL     1      33.647 -24.043 -12.969  0.00  0.00    +0.020 C 
ATOM     33  C   UNL     1      33.046 -24.446 -15.317  0.00  0.00    +0.020 C 
ATOM     34  C   UNL     1      32.137 -24.148 -13.123  0.00  0.00    +0.002 C 
ATOM     35  C   UNL     1      31.912 -23.752 -14.571  0.00  0.00    +0.002 C 
ENDBRANCH   1  31
TORSDOF 3
ENDMDL
MODEL 4
REMARK VINA RESULT:      -9.4      8.577     16.119
REMARK  Name = 44631912
REMARK  3 active torsions:
REMARK  status: ('A' for Active; 'I' for Inactive)
REMARK    1  A    between atoms: N_1  and  C_31
REMARK    2  A    between atoms: C_6  and  C_28
REMARK    3  A    between atoms: C_12  and  N_18
REMARK                            x       y       z     vdW  Elec       q    Type
REMARK                         _______ _______ _______ _____ _____    ______ ____
ROOT
ATOM      1  N   UNL     1      30.865  -6.626 -23.014  0.00  0.00    -0.260 N 
ATOM      2  N   UNL     1      31.607  -8.855 -23.557  0.00  0.00    -0.322 NA
ATOM      3  N   UNL     1      32.017 -10.225 -21.587  0.00  0.00    -0.170 NA
ATOM      4  N   UNL     1      32.334 -11.062 -23.741  0.00  0.00    -0.232 N 
ATOM      5  N   UNL     1      32.864 -12.767 -22.165  0.00  0.00    -0.227 NA
ATOM      6  C   UNL     1      30.607  -5.914 -21.871  0.00  0.00    +0.108 C 
ATOM      7  C   UNL     1      31.272  -7.891 -22.682  0.00  0.00    +0.201 C 
ATOM      8  C   UNL     1      31.278  -7.989 -21.296  0.00  0.00    +0.067 C 
ATOM      9  C   UNL     1      30.854  -6.733 -20.791  0.00  0.00    +0.025 C 
ATOM     10  C   UNL     1      31.668  -9.214 -20.758  0.00  0.00    +0.116 C 
ATOM     11  C   UNL     1      31.965  -9.986 -22.916  0.00  0.00    +0.151 C 
ATOM     12  C   UNL     1      33.589 -14.934 -22.957  0.00  0.00    +0.067 C 
ATOM     13  C   UNL     1      32.762 -12.382 -23.456  0.00  0.00    +0.141 C 
ATOM     14  C   UNL     1      33.472 -14.500 -24.272  0.00  0.00    +0.019 C 
ATOM     15  C   UNL     1      33.276 -14.037 -21.948  0.00  0.00    +0.115 C 
ATOM     16  C   UNL     1      33.051 -13.201 -24.535  0.00  0.00    +0.036 C 
ATOM     17  H   UNL     1      32.286 -10.858 -24.703  0.00  0.00    +0.166 HD
ENDROOT
BRANCH  12  18
ATOM     18  N   UNL     1      34.011 -16.235 -22.661  0.00  0.00    -0.311 N 
ATOM     19  N   UNL     1      35.079 -18.840 -22.189  0.00  0.00    +0.386 N 
ATOM     20  C   UNL     1      34.895 -16.469 -21.513  0.00  0.00    +0.067 C 
ATOM     21  C   UNL     1      34.140 -17.190 -23.770  0.00  0.00    +0.067 C 
ATOM     22  C   UNL     1      34.823 -17.931 -21.073  0.00  0.00    -0.060 C 
ATOM     23  C   UNL     1      34.093 -18.626 -23.247  0.00  0.00    -0.060 C 
ATOM     24  H   UNL     1      35.016 -19.803 -21.860  0.00  0.00    -0.084 HD
ATOM     25  H   UNL     1      36.012 -18.659 -22.559  0.00  0.00    -0.084 HD
ENDBRANCH  12  18
BRANCH   6  28
ATOM     26  O   UNL     1      28.979  -4.331 -21.509  0.00  0.00    -0.269 OA
ATOM     27  N   UNL     1      31.062  -3.511 -22.185  0.00  0.00    -0.272 N 
ATOM     28  C   UNL     1      30.161  -4.553 -21.846  0.00  0.00    +0.263 C 
ATOM     29  C   UNL     1      30.636  -2.118 -22.152  0.00  0.00    +0.115 C 
ATOM     30  C   UNL     1      32.449  -3.739 -22.583  0.00  0.00    +0.115 C 
ENDBRANCH   6  28
BRANCH   1  31
ATOM     31  C   UNL     1      30.723  -6.100 -24.425  0.00  0.00    +0.080 C 
ATOM     32  C   UNL     1      32.078  -5.734 -25.057  0.00  0.00    +0.020 C 
ATOM     33  C   UNL     1      30.054  -7.081 -25.410  0.00  0.00    +0.020 C 
ATOM     34  C   UNL     1      31.928  -6.098 -26.527  0.00  0.00    +0.002 C 
ATOM     35  C   UNL     1      31.099  -7.369 -26.483  0.00  0.00    +0.002 C 
ENDBRANCH   1  31
TORSDOF 3
ENDMDL
