MODEL 1
REMARK VINA RESULT:     -12.5      0.000      0.000
REMARK  Name = 447546
REMARK  10 active torsions:
REMARK  status: ('A' for Active; 'I' for Inactive)
REMARK    1  A    between atoms: N_1  and  C_23
REMARK    2  A    between atoms: C_8  and  N_11
REMARK    3  A    between atoms: N_12  and  C_16
REMARK    4  A    between atoms: C_16  and  C_17
REMARK    5  A    between atoms: C_23  and  C_24
REMARK    6  A    between atoms: C_24  and  C_25
REMARK    7  A    between atoms: C_25  and  N_26
REMARK    8  A    between atoms: C_25  and  C_36
REMARK    9  A    between atoms: C_30  and  C_33
REMARK   10  A    between atoms: C_36  and  O_37
REMARK                            x       y       z     vdW  Elec       q    Type
REMARK                         _______ _______ _______ _____ _____    ______ ____
ROOT
ATOM      1  N   UNL     1      34.861 -24.041 -14.255  0.00  0.00    -0.286 N 
ATOM      2  C   UNL     1      35.623 -23.244 -15.080  0.00  0.00    +0.053 C 
ATOM      3  C   UNL     1      36.953 -23.391 -14.678  0.00  0.00    +0.015 C 
ATOM      4  C   UNL     1      35.662 -24.686 -13.350  0.00  0.00    +0.065 C 
ATOM      5  C   UNL     1      36.961 -24.304 -13.587  0.00  0.00    +0.017 C 
ATOM      6  C   UNL     1      35.240 -22.413 -16.139  0.00  0.00    +0.030 C 
ATOM      7  C   UNL     1      37.952 -22.673 -15.366  0.00  0.00    +0.003 C 
ATOM      8  C   UNL     1      36.249 -21.711 -16.806  0.00  0.00    +0.053 C 
ATOM      9  C   UNL     1      37.584 -21.839 -16.428  0.00  0.00    +0.015 C 
ENDROOT
BRANCH   8  11
ATOM     10  O   UNL     1      34.586 -22.242 -19.246  0.00  0.00    -0.252 OA
ATOM     11  N   UNL     1      35.911 -20.873 -17.869  0.00  0.00    -0.268 N 
ATOM     12  N   UNL     1      35.021 -20.050 -19.838  0.00  0.00    -0.285 N 
ATOM     13  C   UNL     1      35.123 -21.166 -19.000  0.00  0.00    +0.305 C 
ATOM     14  H   UNL     1      36.270 -19.957 -17.823  0.00  0.00    +0.156 HD
ATOM     15  H   UNL     1      35.479 -19.221 -19.574  0.00  0.00    +0.151 HD
BRANCH  12  16
ATOM     16  C   UNL     1      34.272 -20.059 -21.074  0.00  0.00    +0.118 C 
BRANCH  16  17
ATOM     17  C   UNL     1      34.329 -18.733 -21.776  0.00  0.00    -0.003 C 
ATOM     18  C   UNL     1      34.760 -17.598 -21.090  0.00  0.00    -0.003 C 
ATOM     19  C   UNL     1      33.952 -18.636 -23.116  0.00  0.00    -0.003 C 
ATOM     20  C   UNL     1      34.813 -16.367 -21.742  0.00  0.00    -0.000 C 
ATOM     21  C   UNL     1      34.006 -17.404 -23.768  0.00  0.00    -0.000 C 
ATOM     22  C   UNL     1      34.436 -16.270 -23.081  0.00  0.00    -0.000 C 
ENDBRANCH  16  17
ENDBRANCH  12  16
ENDBRANCH   8  11
BRANCH   1  23
ATOM     23  C   UNL     1      33.423 -24.188 -14.322  0.00  0.00    +0.097 C 
BRANCH  23  24
ATOM     24  C   UNL     1      32.641 -22.936 -13.901  0.00  0.00    +0.040 C 
BRANCH  24  25
ATOM     25  C   UNL     1      31.127 -23.152 -13.678  0.00  0.00    +0.091 C 
BRANCH  25  26
ATOM     26  N   UNL     1      30.302 -22.792 -14.845  0.00  0.00    -0.246 NA
ATOM     27  N   UNL     1      29.636 -22.137 -16.858  0.00  0.00    -0.251 NA
ATOM     28  C   UNL     1      28.933 -22.830 -14.923  0.00  0.00    +0.125 C 
ATOM     29  C   UNL     1      30.694 -22.371 -16.027  0.00  0.00    +0.201 C 
ATOM     30  C   UNL     1      28.495 -22.428 -16.164  0.00  0.00    +0.124 C 
BRANCH  30  33
ATOM     31  O   UNL     1      26.804 -22.771 -17.780  0.00  0.00    -0.269 OA
ATOM     32  N   UNL     1      26.208 -21.693 -15.862  0.00  0.00    -0.324 N 
ATOM     33  C   UNL     1      27.167 -22.320 -16.667  0.00  0.00    +0.257 C 
ATOM     34  H   UNL     1      25.281 -21.602 -16.181  0.00  0.00    +0.145 HD
ATOM     35  H   UNL     1      26.460 -21.343 -14.977  0.00  0.00    +0.145 HD
ENDBRANCH  30  33
ENDBRANCH  25  26
BRANCH  25  36
ATOM     36  C   UNL     1      30.845 -24.602 -13.249  0.00  0.00    +0.153 C 
BRANCH  36  37
ATOM     37  O   UNL     1      29.958 -24.609 -12.136  0.00  0.00    -0.381 OA
ATOM     38  H   UNL     1      29.282 -23.924 -12.260  0.00  0.00    +0.210 HD
ENDBRANCH  36  37
ENDBRANCH  25  36
ENDBRANCH  24  25
ENDBRANCH  23  24
ENDBRANCH   1  23
TORSDOF 10
ENDMDL
MODEL 2
REMARK VINA RESULT:     -12.5      1.648      2.445
REMARK  Name = 447546
REMARK  10 active torsions:
REMARK  status: ('A' for Active; 'I' for Inactive)
REMARK    1  A    between atoms: N_1  and  C_23
REMARK    2  A    between atoms: C_8  and  N_11
REMARK    3  A    between atoms: N_12  and  C_16
REMARK    4  A    between atoms: C_16  and  C_17
REMARK    5  A    between atoms: C_23  and  C_24
REMARK    6  A    between atoms: C_24  and  C_25
REMARK    7  A    between atoms: C_25  and  N_26
REMARK    8  A    between atoms: C_25  and  C_36
REMARK    9  A    between atoms: C_30  and  C_33
REMARK   10  A    between atoms: C_36  and  O_37
REMARK                            x       y       z     vdW  Elec       q    Type
REMARK                         _______ _______ _______ _____ _____    ______ ____
ROOT
ATOM      1  N   UNL     1      33.085 -23.026 -15.714  0.00  0.00    -0.286 N 
ATOM      2  C   UNL     1      33.885 -22.393 -16.639  0.00  0.00    +0.053 C 
ATOM      3  C   UNL     1      35.194 -22.444 -16.151  0.00  0.00    +0.015 C 
ATOM      4  C   UNL     1      33.840 -23.474 -14.663  0.00  0.00    +0.065 C 
ATOM      5  C   UNL     1      35.149 -23.129 -14.905  0.00  0.00    +0.017 C 
ATOM      6  C   UNL     1      33.555 -21.786 -17.856  0.00  0.00    +0.030 C 
ATOM      7  C   UNL     1      36.224 -21.860 -16.915  0.00  0.00    +0.003 C 
ATOM      8  C   UNL     1      34.595 -21.215 -18.595  0.00  0.00    +0.053 C 
ATOM      9  C   UNL     1      35.909 -21.250 -18.135  0.00  0.00    +0.015 C 
ENDROOT
BRANCH   8  11
ATOM     10  O   UNL     1      36.225 -19.306 -20.241  0.00  0.00    -0.252 OA
ATOM     11  N   UNL     1      34.309 -20.601 -19.816  0.00  0.00    -0.268 N 
ATOM     12  N   UNL     1      34.459 -19.317 -21.734  0.00  0.00    -0.285 N 
ATOM     13  C   UNL     1      35.108 -19.708 -20.557  0.00  0.00    +0.305 C 
ATOM     14  H   UNL     1      33.435 -20.823 -20.212  0.00  0.00    +0.156 HD
ATOM     15  H   UNL     1      33.564 -19.682 -21.919  0.00  0.00    +0.151 HD
BRANCH  12  16
ATOM     16  C   UNL     1      35.043 -18.404 -22.689  0.00  0.00    +0.118 C 
BRANCH  16  17
ATOM     17  C   UNL     1      34.616 -16.985 -22.444  0.00  0.00    -0.003 C 
ATOM     18  C   UNL     1      34.307 -16.153 -23.518  0.00  0.00    -0.003 C 
ATOM     19  C   UNL     1      34.528 -16.500 -21.138  0.00  0.00    -0.003 C 
ATOM     20  C   UNL     1      33.911 -14.836 -23.290  0.00  0.00    -0.000 C 
ATOM     21  C   UNL     1      34.132 -15.182 -20.909  0.00  0.00    -0.000 C 
ATOM     22  C   UNL     1      33.824 -14.350 -21.985  0.00  0.00    -0.000 C 
ENDBRANCH  16  17
ENDBRANCH  12  16
ENDBRANCH   8  11
BRANCH   1  23
ATOM     23  C   UNL     1      31.652 -23.201 -15.821  0.00  0.00    +0.097 C 
BRANCH  23  24
ATOM     24  C   UNL     1      30.848 -22.520 -14.705  0.00  0.00    +0.040 C 
BRANCH  24  25
ATOM     25  C   UNL     1      29.475 -23.161 -14.401  0.00  0.00    +0.091 C 
BRANCH  25  26
ATOM     26  N   UNL     1      28.510 -23.038 -15.507  0.00  0.00    -0.246 NA
ATOM     27  N   UNL     1      27.234 -23.457 -17.274  0.00  0.00    -0.251 NA
ATOM     28  C   UNL     1      27.764 -21.930 -15.823  0.00  0.00    +0.125 C 
ATOM     29  C   UNL     1      28.166 -23.939 -16.400  0.00  0.00    +0.201 C 
ATOM     30  C   UNL     1      26.964 -22.166 -16.917  0.00  0.00    +0.124 C 
BRANCH  30  33
ATOM     31  O   UNL     1      25.644 -20.212 -17.089  0.00  0.00    -0.269 OA
ATOM     32  N   UNL     1      25.574 -21.672 -18.837  0.00  0.00    -0.324 N 
ATOM     33  C   UNL     1      26.043 -21.299 -17.572  0.00  0.00    +0.257 C 
ATOM     34  H   UNL     1      24.937 -21.095 -19.316  0.00  0.00    +0.145 HD
ATOM     35  H   UNL     1      25.882 -22.512 -19.249  0.00  0.00    +0.145 HD
ENDBRANCH  30  33
ENDBRANCH  25  26
BRANCH  25  36
ATOM     36  C   UNL     1      29.645 -24.636 -13.999  0.00  0.00    +0.153 C 
BRANCH  36  37
ATOM     37  O   UNL     1      29.758 -24.736 -12.584  0.00  0.00    -0.381 OA
ATOM     38  H   UNL     1      29.241 -24.028 -12.168  0.00  0.00    +0.210 HD
ENDBRANCH  36  37
ENDBRANCH  25  36
ENDBRANCH  24  25
ENDBRANCH  23  24
ENDBRANCH   1  23
TORSDOF 10
ENDMDL
MODEL 3
REMARK VINA RESULT:     -12.3      2.779      6.507
REMARK  Name = 447546
REMARK  10 active torsions:
REMARK  status: ('A' for Active; 'I' for Inactive)
REMARK    1  A    between atoms: N_1  and  C_23
REMARK    2  A    between atoms: C_8  and  N_11
REMARK    3  A    between atoms: N_12  and  C_16
REMARK    4  A    between atoms: C_16  and  C_17
REMARK    5  A    between atoms: C_23  and  C_24
REMARK    6  A    between atoms: C_24  and  C_25
REMARK    7  A    between atoms: C_25  and  N_26
REMARK    8  A    between atoms: C_25  and  C_36
REMARK    9  A    between atoms: C_30  and  C_33
REMARK   10  A    between atoms: C_36  and  O_37
REMARK                            x       y       z     vdW  Elec       q    Type
REMARK                         _______ _______ _______ _____ _____    ______ ____
ROOT
ATOM      1  N   UNL     1      32.467 -24.141 -13.929  0.00  0.00    -0.286 N 
ATOM      2  C   UNL     1      31.860 -23.491 -14.979  0.00  0.00    +0.053 C 
ATOM      3  C   UNL     1      30.481 -23.587 -14.779  0.00  0.00    +0.015 C 
ATOM      4  C   UNL     1      31.523 -24.643 -13.074  0.00  0.00    +0.065 C 
ATOM      5  C   UNL     1      30.284 -24.315 -13.573  0.00  0.00    +0.017 C 
ATOM      6  C   UNL     1      32.420 -22.832 -16.080  0.00  0.00    +0.030 C 
ATOM      7  C   UNL     1      29.616 -22.997 -15.722  0.00  0.00    +0.003 C 
ATOM      8  C   UNL     1      31.542 -22.254 -17.002  0.00  0.00    +0.053 C 
ATOM      9  C   UNL     1      30.162 -22.333 -16.827  0.00  0.00    +0.015 C 
ENDROOT
BRANCH   8  11
ATOM     10  O   UNL     1      34.371 -21.988 -17.967  0.00  0.00    -0.252 OA
ATOM     11  N   UNL     1      32.059 -21.586 -18.113  0.00  0.00    -0.268 N 
ATOM     12  N   UNL     1      33.505 -20.725 -19.699  0.00  0.00    -0.285 N 
ATOM     13  C   UNL     1      33.401 -21.487 -18.530  0.00  0.00    +0.305 C 
ATOM     14  H   UNL     1      31.399 -21.124 -18.680  0.00  0.00    +0.156 HD
ATOM     15  H   UNL     1      32.682 -20.356 -20.093  0.00  0.00    +0.151 HD
BRANCH  12  16
ATOM     16  C   UNL     1      34.764 -20.457 -20.356  0.00  0.00    +0.118 C 
BRANCH  16  17
ATOM     17  C   UNL     1      34.676 -19.275 -21.277  0.00  0.00    -0.003 C 
ATOM     18  C   UNL     1      35.322 -18.084 -20.949  0.00  0.00    -0.003 C 
ATOM     19  C   UNL     1      33.948 -19.369 -22.464  0.00  0.00    -0.003 C 
ATOM     20  C   UNL     1      35.240 -16.986 -21.806  0.00  0.00    -0.000 C 
ATOM     21  C   UNL     1      33.866 -18.271 -23.321  0.00  0.00    -0.000 C 
ATOM     22  C   UNL     1      34.512 -17.080 -22.991  0.00  0.00    -0.000 C 
ENDBRANCH  16  17
ENDBRANCH  12  16
ENDBRANCH   8  11
BRANCH   1  23
ATOM     23  C   UNL     1      33.895 -24.285 -13.741  0.00  0.00    +0.097 C 
BRANCH  23  24
ATOM     24  C   UNL     1      34.466 -23.454 -12.583  0.00  0.00    +0.040 C 
BRANCH  24  25
ATOM     25  C   UNL     1      35.492 -24.190 -11.692  0.00  0.00    +0.091 C 
BRANCH  25  26
ATOM     26  N   UNL     1      36.603 -24.794 -12.448  0.00  0.00    -0.246 NA
ATOM     27  N   UNL     1      37.954 -26.241 -13.452  0.00  0.00    -0.251 NA
ATOM     28  C   UNL     1      37.657 -24.132 -13.026  0.00  0.00    +0.125 C 
ATOM     29  C   UNL     1      36.812 -26.062 -12.724  0.00  0.00    +0.201 C 
ATOM     30  C   UNL     1      38.509 -25.009 -13.656  0.00  0.00    +0.124 C 
BRANCH  30  33
ATOM     31  O   UNL     1      40.588 -23.936 -13.992  0.00  0.00    -0.269 OA
ATOM     32  N   UNL     1      39.938 -25.459 -15.558  0.00  0.00    -0.324 N 
ATOM     33  C   UNL     1      39.712 -24.749 -14.372  0.00  0.00    +0.257 C 
ATOM     34  H   UNL     1      40.759 -25.302 -16.077  0.00  0.00    +0.145 HD
ATOM     35  H   UNL     1      39.275 -26.115 -15.873  0.00  0.00    +0.145 HD
ENDBRANCH  30  33
ENDBRANCH  25  26
BRANCH  25  36
ATOM     36  C   UNL     1      36.034 -23.250 -10.602  0.00  0.00    +0.153 C 
BRANCH  36  37
ATOM     37  O   UNL     1      35.792 -23.815  -9.319  0.00  0.00    -0.381 OA
ATOM     38  H   UNL     1      34.840 -23.805  -9.136  0.00  0.00    +0.210 HD
ENDBRANCH  36  37
ENDBRANCH  25  36
ENDBRANCH  24  25
ENDBRANCH  23  24
ENDBRANCH   1  23
TORSDOF 10
ENDMDL
MODEL 4
REMARK VINA RESULT:     -11.9      7.474     12.597
REMARK  Name = 447546
REMARK  10 active torsions:
REMARK  status: ('A' for Active; 'I' for Inactive)
REMARK    1  A    between atoms: N_1  and  C_23
REMARK    2  A    between atoms: C_8  and  N_11
REMARK    3  A    between atoms: N_12  and  C_16
REMARK    4  A    between atoms: C_16  and  C_17
REMARK    5  A    between atoms: C_23  and  C_24
REMARK    6  A    between atoms: C_24  and  C_25
REMARK    7  A    between atoms: C_25  and  N_26
REMARK    8  A    between atoms: C_25  and  C_36
REMARK    9  A    between atoms: C_30  and  C_33
REMARK   10  A    between atoms: C_36  and  O_37
REMARK                            x       y       z     vdW  Elec       q    Type
REMARK                         _______ _______ _______ _____ _____    ______ ____
ROOT
ATOM      1  N   UNL     1      32.704 -12.860 -22.145  0.00  0.00    -0.286 N 
ATOM      2  C   UNL     1      33.351 -14.057 -22.358  0.00  0.00    +0.053 C 
ATOM      3  C   UNL     1      33.480 -14.213 -23.740  0.00  0.00    +0.015 C 
ATOM      4  C   UNL     1      32.421 -12.256 -23.341  0.00  0.00    +0.065 C 
ATOM      5  C   UNL     1      32.889 -13.069 -24.346  0.00  0.00    +0.017 C 
ATOM      6  C   UNL     1      33.827 -15.003 -21.443  0.00  0.00    +0.030 C 
ATOM      7  C   UNL     1      34.114 -15.370 -24.235  0.00  0.00    +0.003 C 
ATOM      8  C   UNL     1      34.452 -16.142 -21.958  0.00  0.00    +0.053 C 
ATOM      9  C   UNL     1      34.596 -16.324 -23.332  0.00  0.00    +0.015 C 
ENDROOT
BRANCH   8  11
ATOM     10  O   UNL     1      34.888 -19.085 -22.354  0.00  0.00    -0.252 OA
ATOM     11  N   UNL     1      34.944 -17.109 -21.080  0.00  0.00    -0.268 N 
ATOM     12  N   UNL     1      35.648 -19.115 -20.170  0.00  0.00    -0.285 N 
ATOM     13  C   UNL     1      35.133 -18.487 -21.309  0.00  0.00    +0.305 C 
ATOM     14  H   UNL     1      35.191 -16.787 -20.183  0.00  0.00    +0.156 HD
ATOM     15  H   UNL     1      35.819 -18.569 -19.370  0.00  0.00    +0.151 HD
BRANCH  12  16
ATOM     16  C   UNL     1      35.942 -20.529 -20.115  0.00  0.00    +0.118 C 
BRANCH  16  17
ATOM     17  C   UNL     1      35.286 -21.194 -18.940  0.00  0.00    -0.003 C 
ATOM     18  C   UNL     1      33.962 -21.619 -19.029  0.00  0.00    -0.003 C 
ATOM     19  C   UNL     1      36.003 -21.388 -17.759  0.00  0.00    -0.003 C 
ATOM     20  C   UNL     1      33.353 -22.237 -17.937  0.00  0.00    -0.000 C 
ATOM     21  C   UNL     1      35.394 -22.006 -16.667  0.00  0.00    -0.000 C 
ATOM     22  C   UNL     1      34.069 -22.431 -16.756  0.00  0.00    -0.000 C 
ENDBRANCH  16  17
ENDBRANCH  12  16
ENDBRANCH   8  11
BRANCH   1  23
ATOM     23  C   UNL     1      32.364 -12.307 -20.851  0.00  0.00    +0.097 C 
BRANCH  23  24
ATOM     24  C   UNL     1      31.235 -11.268 -20.886  0.00  0.00    +0.040 C 
BRANCH  24  25
ATOM     25  C   UNL     1      31.633  -9.850 -20.419  0.00  0.00    +0.091 C 
BRANCH  25  26
ATOM     26  N   UNL     1      31.252  -8.788 -21.367  0.00  0.00    -0.246 NA
ATOM     27  N   UNL     1      30.544  -7.694 -23.163  0.00  0.00    -0.251 NA
ATOM     28  C   UNL     1      31.310  -7.435 -21.147  0.00  0.00    +0.125 C 
ATOM     29  C   UNL     1      30.786  -8.910 -22.590  0.00  0.00    +0.201 C 
ATOM     30  C   UNL     1      30.875  -6.735 -22.249  0.00  0.00    +0.124 C 
BRANCH  30  33
ATOM     31  O   UNL     1      29.705  -4.682 -22.316  0.00  0.00    -0.269 OA
ATOM     32  N   UNL     1      31.934  -4.624 -22.788  0.00  0.00    -0.324 N 
ATOM     33  C   UNL     1      30.772  -5.328 -22.448  0.00  0.00    +0.257 C 
ATOM     34  H   UNL     1      31.896  -3.652 -22.932  0.00  0.00    +0.145 HD
ATOM     35  H   UNL     1      32.789  -5.103 -22.883  0.00  0.00    +0.145 HD
ENDBRANCH  30  33
ENDBRANCH  25  26
BRANCH  25  36
ATOM     36  C   UNL     1      31.054  -9.557 -19.024  0.00  0.00    +0.153 C 
BRANCH  36  37
ATOM     37  O   UNL     1      32.107  -9.209 -18.132  0.00  0.00    -0.381 OA
ATOM     38  H   UNL     1      32.891  -9.743 -18.334  0.00  0.00    +0.210 HD
ENDBRANCH  36  37
ENDBRANCH  25  36
ENDBRANCH  24  25
ENDBRANCH  23  24
ENDBRANCH   1  23
TORSDOF 10
ENDMDL
MODEL 5
REMARK VINA RESULT:     -11.3      3.122      9.175
REMARK  Name = 447546
REMARK  10 active torsions:
REMARK  status: ('A' for Active; 'I' for Inactive)
REMARK    1  A    between atoms: N_1  and  C_23
REMARK    2  A    between atoms: C_8  and  N_11
REMARK    3  A    between atoms: N_12  and  C_16
REMARK    4  A    between atoms: C_16  and  C_17
REMARK    5  A    between atoms: C_23  and  C_24
REMARK    6  A    between atoms: C_24  and  C_25
REMARK    7  A    between atoms: C_25  and  N_26
REMARK    8  A    between atoms: C_25  and  C_36
REMARK    9  A    between atoms: C_30  and  C_33
REMARK   10  A    between atoms: C_36  and  O_37
REMARK                            x       y       z     vdW  Elec       q    Type
REMARK                         _______ _______ _______ _____ _____    ______ ____
ROOT
ATOM      1  N   UNL     1      34.776 -20.927 -19.274  0.00  0.00    -0.286 N 
ATOM      2  C   UNL     1      34.304 -21.649 -18.200  0.00  0.00    +0.053 C 
ATOM      3  C   UNL     1      35.340 -21.719 -17.266  0.00  0.00    +0.015 C 
ATOM      4  C   UNL     1      36.070 -20.539 -19.050  0.00  0.00    +0.065 C 
ATOM      5  C   UNL     1      36.447 -21.015 -17.816  0.00  0.00    +0.017 C 
ATOM      6  C   UNL     1      33.053 -22.238 -17.988  0.00  0.00    +0.030 C 
ATOM      7  C   UNL     1      35.118 -22.412 -16.059  0.00  0.00    +0.003 C 
ATOM      8  C   UNL     1      32.857 -22.920 -16.783  0.00  0.00    +0.053 C 
ATOM      9  C   UNL     1      33.872 -23.006 -15.832  0.00  0.00    +0.015 C 
ENDROOT
BRANCH   8  11
ATOM     10  O   UNL     1      30.543 -21.980 -15.119  0.00  0.00    -0.252 OA
ATOM     11  N   UNL     1      31.622 -23.521 -16.530  0.00  0.00    -0.268 N 
ATOM     12  N   UNL     1      29.490 -23.943 -15.740  0.00  0.00    -0.285 N 
ATOM     13  C   UNL     1      30.560 -23.041 -15.739  0.00  0.00    +0.305 C 
ATOM     14  H   UNL     1      31.474 -24.393 -16.962  0.00  0.00    +0.156 HD
ATOM     15  H   UNL     1      29.578 -24.773 -16.261  0.00  0.00    +0.151 HD
BRANCH  12  16
ATOM     16  C   UNL     1      28.264 -23.713 -15.012  0.00  0.00    +0.118 C 
BRANCH  16  17
ATOM     17  C   UNL     1      27.324 -22.816 -15.765  0.00  0.00    -0.003 C 
ATOM     18  C   UNL     1      27.331 -22.810 -17.159  0.00  0.00    -0.003 C 
ATOM     19  C   UNL     1      26.442 -21.988 -15.069  0.00  0.00    -0.003 C 
ATOM     20  C   UNL     1      26.458 -21.976 -17.858  0.00  0.00    -0.000 C 
ATOM     21  C   UNL     1      25.569 -21.154 -15.767  0.00  0.00    -0.000 C 
ATOM     22  C   UNL     1      25.577 -21.149 -17.162  0.00  0.00    -0.000 C 
ENDBRANCH  16  17
ENDBRANCH  12  16
ENDBRANCH   8  11
BRANCH   1  23
ATOM     23  C   UNL     1      34.028 -20.615 -20.472  0.00  0.00    +0.097 C 
BRANCH  23  24
ATOM     24  C   UNL     1      33.991 -19.121 -20.823  0.00  0.00    +0.040 C 
BRANCH  24  25
ATOM     25  C   UNL     1      34.979 -18.682 -21.927  0.00  0.00    +0.091 C 
BRANCH  25  26
ATOM     26  N   UNL     1      34.339 -17.940 -23.027  0.00  0.00    -0.246 NA
ATOM     27  N   UNL     1      33.273 -17.414 -24.902  0.00  0.00    -0.251 NA
ATOM     28  C   UNL     1      34.228 -16.576 -23.140  0.00  0.00    +0.125 C 
ATOM     29  C   UNL     1      33.754 -18.414 -24.105  0.00  0.00    +0.201 C 
ATOM     30  C   UNL     1      33.569 -16.226 -24.296  0.00  0.00    +0.124 C 
BRANCH  30  33
ATOM     31  O   UNL     1      33.212 -14.648 -26.020  0.00  0.00    -0.269 OA
ATOM     32  N   UNL     1      32.914 -13.933 -23.877  0.00  0.00    -0.324 N 
ATOM     33  C   UNL     1      33.242 -14.934 -24.799  0.00  0.00    +0.257 C 
ATOM     34  H   UNL     1      32.684 -13.030 -24.192  0.00  0.00    +0.145 HD
ATOM     35  H   UNL     1      32.914 -14.132 -22.912  0.00  0.00    +0.145 HD
ENDBRANCH  30  33
ENDBRANCH  25  26
BRANCH  25  36
ATOM     36  C   UNL     1      36.132 -17.862 -21.326  0.00  0.00    +0.153 C 
BRANCH  36  37
ATOM     37  O   UNL     1      37.351 -18.200 -21.978  0.00  0.00    -0.381 OA
ATOM     38  H   UNL     1      37.514 -17.574 -22.701  0.00  0.00    +0.210 HD
ENDBRANCH  36  37
ENDBRANCH  25  36
ENDBRANCH  24  25
ENDBRANCH  23  24
ENDBRANCH   1  23
TORSDOF 10
ENDMDL
MODEL 6
REMARK VINA RESULT:     -11.3      1.767      2.743
REMARK  Name = 447546
REMARK  10 active torsions:
REMARK  status: ('A' for Active; 'I' for Inactive)
REMARK    1  A    between atoms: N_1  and  C_23
REMARK    2  A    between atoms: C_8  and  N_11
REMARK    3  A    between atoms: N_12  and  C_16
REMARK    4  A    between atoms: C_16  and  C_17
REMARK    5  A    between atoms: C_23  and  C_24
REMARK    6  A    between atoms: C_24  and  C_25
REMARK    7  A    between atoms: C_25  and  N_26
REMARK    8  A    between atoms: C_25  and  C_36
REMARK    9  A    between atoms: C_30  and  C_33
REMARK   10  A    between atoms: C_36  and  O_37
REMARK                            x       y       z     vdW  Elec       q    Type
REMARK                         _______ _______ _______ _____ _____    ______ ____
ROOT
ATOM      1  N   UNL     1      34.223 -23.703 -12.702  0.00  0.00    -0.286 N 
ATOM      2  C   UNL     1      35.132 -23.376 -13.683  0.00  0.00    +0.053 C 
ATOM      3  C   UNL     1      36.390 -23.774 -13.224  0.00  0.00    +0.015 C 
ATOM      4  C   UNL     1      34.861 -24.292 -11.644  0.00  0.00    +0.065 C 
ATOM      5  C   UNL     1      36.203 -24.350 -11.938  0.00  0.00    +0.017 C 
ATOM      6  C   UNL     1      34.939 -22.766 -14.928  0.00  0.00    +0.030 C 
ATOM      7  C   UNL     1      37.513 -23.551 -14.047  0.00  0.00    +0.003 C 
ATOM      8  C   UNL     1      36.068 -22.556 -15.726  0.00  0.00    +0.053 C 
ATOM      9  C   UNL     1      37.335 -22.943 -15.295  0.00  0.00    +0.015 C 
ENDROOT
BRANCH   8  11
ATOM     10  O   UNL     1      37.238 -20.013 -16.808  0.00  0.00    -0.252 OA
ATOM     11  N   UNL     1      35.919 -21.952 -16.976  0.00  0.00    -0.268 N 
ATOM     12  N   UNL     1      36.093 -20.491 -18.759  0.00  0.00    -0.285 N 
ATOM     13  C   UNL     1      36.491 -20.752 -17.443  0.00  0.00    +0.305 C 
ATOM     14  H   UNL     1      35.339 -22.428 -17.614  0.00  0.00    +0.156 HD
ATOM     15  H   UNL     1      35.492 -21.130 -19.203  0.00  0.00    +0.151 HD
BRANCH  12  16
ATOM     16  C   UNL     1      36.526 -19.326 -19.496  0.00  0.00    +0.118 C 
BRANCH  16  17
ATOM     17  C   UNL     1      35.642 -19.047 -20.676  0.00  0.00    -0.003 C 
ATOM     18  C   UNL     1      36.092 -18.223 -21.707  0.00  0.00    -0.003 C 
ATOM     19  C   UNL     1      34.368 -19.613 -20.743  0.00  0.00    -0.003 C 
ATOM     20  C   UNL     1      35.270 -17.964 -22.803  0.00  0.00    -0.000 C 
ATOM     21  C   UNL     1      33.546 -19.354 -21.839  0.00  0.00    -0.000 C 
ATOM     22  C   UNL     1      33.997 -18.530 -22.869  0.00  0.00    -0.000 C 
ENDBRANCH  16  17
ENDBRANCH  12  16
ENDBRANCH   8  11
BRANCH   1  23
ATOM     23  C   UNL     1      32.796 -23.465 -12.764  0.00  0.00    +0.097 C 
BRANCH  23  24
ATOM     24  C   UNL     1      31.999 -24.581 -13.454  0.00  0.00    +0.040 C 
BRANCH  24  25
ATOM     25  C   UNL     1      30.636 -24.148 -14.039  0.00  0.00    +0.091 C 
BRANCH  25  26
ATOM     26  N   UNL     1      30.752 -23.329 -15.258  0.00  0.00    -0.246 NA
ATOM     27  N   UNL     1      30.331 -21.931 -16.930  0.00  0.00    -0.251 NA
ATOM     28  C   UNL     1      31.844 -23.242 -16.085  0.00  0.00    +0.125 C 
ATOM     29  C   UNL     1      29.859 -22.528 -15.795  0.00  0.00    +0.201 C 
ATOM     30  C   UNL     1      31.606 -22.380 -17.130  0.00  0.00    +0.124 C 
BRANCH  30  33
ATOM     31  O   UNL     1      33.581 -22.519 -18.422  0.00  0.00    -0.269 OA
ATOM     32  N   UNL     1      32.006 -21.012 -19.089  0.00  0.00    -0.324 N 
ATOM     33  C   UNL     1      32.459 -22.002 -18.207  0.00  0.00    +0.257 C 
ATOM     34  H   UNL     1      32.571 -20.729 -19.843  0.00  0.00    +0.145 HD
ATOM     35  H   UNL     1      31.122 -20.600 -18.954  0.00  0.00    +0.145 HD
ENDBRANCH  30  33
ENDBRANCH  25  26
BRANCH  25  36
ATOM     36  C   UNL     1      29.746 -25.375 -14.300  0.00  0.00    +0.153 C 
BRANCH  36  37
ATOM     37  O   UNL     1      28.429 -25.120 -13.823  0.00  0.00    -0.381 OA
ATOM     38  H   UNL     1      28.392 -24.230 -13.440  0.00  0.00    +0.210 HD
ENDBRANCH  36  37
ENDBRANCH  25  36
ENDBRANCH  24  25
ENDBRANCH  23  24
ENDBRANCH   1  23
TORSDOF 10
ENDMDL
MODEL 7
REMARK VINA RESULT:     -11.3      8.307     13.336
REMARK  Name = 447546
REMARK  10 active torsions:
REMARK  status: ('A' for Active; 'I' for Inactive)
REMARK    1  A    between atoms: N_1  and  C_23
REMARK    2  A    between atoms: C_8  and  N_11
REMARK    3  A    between atoms: N_12  and  C_16
REMARK    4  A    between atoms: C_16  and  C_17
REMARK    5  A    between atoms: C_23  and  C_24
REMARK    6  A    between atoms: C_24  and  C_25
REMARK    7  A    between atoms: C_25  and  N_26
REMARK    8  A    between atoms: C_25  and  C_36
REMARK    9  A    between atoms: C_30  and  C_33
REMARK   10  A    between atoms: C_36  and  O_37
REMARK                            x       y       z     vdW  Elec       q    Type
REMARK                         _______ _______ _______ _____ _____    ______ ____
ROOT
ATOM      1  N   UNL     1      32.520 -12.890 -22.019  0.00  0.00    -0.286 N 
ATOM      2  C   UNL     1      32.024 -11.622 -21.816  0.00  0.00    +0.053 C 
ATOM      3  C   UNL     1      31.617 -11.548 -20.482  0.00  0.00    +0.015 C 
ATOM      4  C   UNL     1      32.443 -13.618 -20.861  0.00  0.00    +0.065 C 
ATOM      5  C   UNL     1      31.888 -12.814 -19.893  0.00  0.00    +0.017 C 
ATOM      6  C   UNL     1      31.905 -10.545 -22.703  0.00  0.00    +0.030 C 
ATOM      7  C   UNL     1      31.064 -10.342 -20.007  0.00  0.00    +0.003 C 
ATOM      8  C   UNL     1      31.353  -9.360 -22.209  0.00  0.00    +0.053 C 
ATOM      9  C   UNL     1      30.940  -9.257 -20.882  0.00  0.00    +0.015 C 
ENDROOT
BRANCH   8  11
ATOM     10  O   UNL     1      32.871  -6.772 -22.297  0.00  0.00    -0.252 OA
ATOM     11  N   UNL     1      31.219  -8.261 -23.060  0.00  0.00    -0.268 N 
ATOM     12  N   UNL     1      31.513  -6.208 -24.082  0.00  0.00    -0.285 N 
ATOM     13  C   UNL     1      31.958  -7.061 -23.066  0.00  0.00    +0.305 C 
ATOM     14  H   UNL     1      30.516  -8.335 -23.746  0.00  0.00    +0.156 HD
ATOM     15  H   UNL     1      30.775  -6.509 -24.658  0.00  0.00    +0.151 HD
BRANCH  12  16
ATOM     16  C   UNL     1      32.089  -4.905 -24.324  0.00  0.00    +0.118 C 
BRANCH  16  17
ATOM     17  C   UNL     1      33.084  -4.930 -25.448  0.00  0.00    -0.003 C 
ATOM     18  C   UNL     1      34.383  -4.470 -25.240  0.00  0.00    -0.003 C 
ATOM     19  C   UNL     1      32.708  -5.416 -26.701  0.00  0.00    -0.003 C 
ATOM     20  C   UNL     1      35.308  -4.494 -26.284  0.00  0.00    -0.000 C 
ATOM     21  C   UNL     1      33.632  -5.440 -27.745  0.00  0.00    -0.000 C 
ATOM     22  C   UNL     1      34.932  -4.979 -27.537  0.00  0.00    -0.000 C 
ENDBRANCH  16  17
ENDBRANCH  12  16
ENDBRANCH   8  11
BRANCH   1  23
ATOM     23  C   UNL     1      33.050 -13.397 -23.267  0.00  0.00    +0.097 C 
BRANCH  23  24
ATOM     24  C   UNL     1      34.250 -14.340 -23.106  0.00  0.00    +0.040 C 
BRANCH  24  25
ATOM     25  C   UNL     1      34.243 -15.574 -24.036  0.00  0.00    +0.091 C 
BRANCH  25  26
ATOM     26  N   UNL     1      34.349 -16.855 -23.316  0.00  0.00    -0.246 NA
ATOM     27  N   UNL     1      34.149 -18.984 -22.719  0.00  0.00    -0.251 NA
ATOM     28  C   UNL     1      35.030 -17.082 -22.146  0.00  0.00    +0.125 C 
ATOM     29  C   UNL     1      33.831 -18.020 -23.634  0.00  0.00    +0.201 C 
ATOM     30  C   UNL     1      34.920 -18.397 -21.755  0.00  0.00    +0.124 C 
BRANCH  30  33
ATOM     31  O   UNL     1      36.571 -18.758 -20.102  0.00  0.00    -0.269 OA
ATOM     32  N   UNL     1      34.712 -20.073 -20.020  0.00  0.00    -0.324 N 
ATOM     33  C   UNL     1      35.466 -19.054 -20.615  0.00  0.00    +0.257 C 
ATOM     34  H   UNL     1      35.061 -20.546 -19.231  0.00  0.00    +0.145 HD
ATOM     35  H   UNL     1      33.833 -20.317 -20.391  0.00  0.00    +0.145 HD
ENDBRANCH  30  33
ENDBRANCH  25  26
BRANCH  25  36
ATOM     36  C   UNL     1      32.995 -15.567 -24.935  0.00  0.00    +0.153 C 
BRANCH  36  37
ATOM     37  O   UNL     1      33.209 -14.699 -26.043  0.00  0.00    -0.381 OA
ATOM     38  H   UNL     1      32.635 -13.922 -25.959  0.00  0.00    +0.210 HD
ENDBRANCH  36  37
ENDBRANCH  25  36
ENDBRANCH  24  25
ENDBRANCH  23  24
ENDBRANCH   1  23
TORSDOF 10
ENDMDL
MODEL 8
REMARK VINA RESULT:     -11.3      3.995     10.140
REMARK  Name = 447546
REMARK  10 active torsions:
REMARK  status: ('A' for Active; 'I' for Inactive)
REMARK    1  A    between atoms: N_1  and  C_23
REMARK    2  A    between atoms: C_8  and  N_11
REMARK    3  A    between atoms: N_12  and  C_16
REMARK    4  A    between atoms: C_16  and  C_17
REMARK    5  A    between atoms: C_23  and  C_24
REMARK    6  A    between atoms: C_24  and  C_25
REMARK    7  A    between atoms: C_25  and  N_26
REMARK    8  A    between atoms: C_25  and  C_36
REMARK    9  A    between atoms: C_30  and  C_33
REMARK   10  A    between atoms: C_36  and  O_37
REMARK                            x       y       z     vdW  Elec       q    Type
REMARK                         _______ _______ _______ _____ _____    ______ ____
ROOT
ATOM      1  N   UNL     1      34.398 -19.773 -20.490  0.00  0.00    -0.286 N 
ATOM      2  C   UNL     1      34.460 -20.599 -19.391  0.00  0.00    +0.053 C 
ATOM      3  C   UNL     1      33.172 -21.098 -19.180  0.00  0.00    +0.015 C 
ATOM      4  C   UNL     1      33.120 -19.734 -20.980  0.00  0.00    +0.065 C 
ATOM      5  C   UNL     1      32.339 -20.544 -20.190  0.00  0.00    +0.017 C 
ATOM      6  C   UNL     1      35.545 -20.939 -18.575  0.00  0.00    +0.030 C 
ATOM      7  C   UNL     1      32.955 -21.980 -18.102  0.00  0.00    +0.003 C 
ATOM      8  C   UNL     1      35.305 -21.816 -17.513  0.00  0.00    +0.053 C 
ATOM      9  C   UNL     1      34.031 -22.330 -17.279  0.00  0.00    +0.015 C 
ENDROOT
BRANCH   8  11
ATOM     10  O   UNL     1      35.484 -23.985 -15.446  0.00  0.00    -0.252 OA
ATOM     11  N   UNL     1      36.361 -22.183 -16.677  0.00  0.00    -0.268 N 
ATOM     12  N   UNL     1      37.649 -23.257 -15.085  0.00  0.00    -0.285 N 
ATOM     13  C   UNL     1      36.401 -23.214 -15.717  0.00  0.00    +0.305 C 
ATOM     14  H   UNL     1      37.185 -21.653 -16.771  0.00  0.00    +0.156 HD
ATOM     15  H   UNL     1      38.335 -22.606 -15.356  0.00  0.00    +0.151 HD
BRANCH  12  16
ATOM     16  C   UNL     1      37.977 -24.215 -14.054  0.00  0.00    +0.118 C 
BRANCH  16  17
ATOM     17  C   UNL     1      37.174 -23.994 -12.805  0.00  0.00    -0.003 C 
ATOM     18  C   UNL     1      36.437 -25.041 -12.255  0.00  0.00    -0.003 C 
ATOM     19  C   UNL     1      37.166 -22.740 -12.194  0.00  0.00    -0.003 C 
ATOM     20  C   UNL     1      35.691 -24.835 -11.095  0.00  0.00    -0.000 C 
ATOM     21  C   UNL     1      36.420 -22.534 -11.034  0.00  0.00    -0.000 C 
ATOM     22  C   UNL     1      35.683 -23.582 -10.484  0.00  0.00    -0.000 C 
ENDBRANCH  16  17
ENDBRANCH  12  16
ENDBRANCH   8  11
BRANCH   1  23
ATOM     23  C   UNL     1      35.512 -19.044 -21.058  0.00  0.00    +0.097 C 
BRANCH  23  24
ATOM     24  C   UNL     1      35.175 -18.277 -22.344  0.00  0.00    +0.040 C 
BRANCH  24  25
ATOM     25  C   UNL     1      35.024 -16.748 -22.177  0.00  0.00    +0.091 C 
BRANCH  25  26
ATOM     26  N   UNL     1      34.302 -16.103 -23.287  0.00  0.00    -0.246 NA
ATOM     27  N   UNL     1      33.203 -15.730 -25.179  0.00  0.00    -0.251 NA
ATOM     28  C   UNL     1      33.992 -14.770 -23.397  0.00  0.00    +0.125 C 
ATOM     29  C   UNL     1      33.812 -16.653 -24.376  0.00  0.00    +0.201 C 
ATOM     30  C   UNL     1      33.309 -14.515 -24.564  0.00  0.00    +0.124 C 
BRANCH  30  33
ATOM     31  O   UNL     1      32.326 -13.145 -26.220  0.00  0.00    -0.269 OA
ATOM     32  N   UNL     1      32.822 -12.168 -24.222  0.00  0.00    -0.324 N 
ATOM     33  C   UNL     1      32.804 -13.283 -25.069  0.00  0.00    +0.257 C 
ATOM     34  H   UNL     1      32.480 -11.302 -24.541  0.00  0.00    +0.145 HD
ATOM     35  H   UNL     1      33.177 -12.250 -23.307  0.00  0.00    +0.145 HD
ENDBRANCH  30  33
ENDBRANCH  25  26
BRANCH  25  36
ATOM     36  C   UNL     1      34.352 -16.415 -20.834  0.00  0.00    +0.153 C 
BRANCH  36  37
ATOM     37  O   UNL     1      34.348 -15.006 -20.638  0.00  0.00    -0.381 OA
ATOM     38  H   UNL     1      34.714 -14.801 -19.763  0.00  0.00    +0.210 HD
ENDBRANCH  36  37
ENDBRANCH  25  36
ENDBRANCH  24  25
ENDBRANCH  23  24
ENDBRANCH   1  23
TORSDOF 10
ENDMDL
MODEL 9
REMARK VINA RESULT:     -11.2      7.869     13.177
REMARK  Name = 447546
REMARK  10 active torsions:
REMARK  status: ('A' for Active; 'I' for Inactive)
REMARK    1  A    between atoms: N_1  and  C_23
REMARK    2  A    between atoms: C_8  and  N_11
REMARK    3  A    between atoms: N_12  and  C_16
REMARK    4  A    between atoms: C_16  and  C_17
REMARK    5  A    between atoms: C_23  and  C_24
REMARK    6  A    between atoms: C_24  and  C_25
REMARK    7  A    between atoms: C_25  and  N_26
REMARK    8  A    between atoms: C_25  and  C_36
REMARK    9  A    between atoms: C_30  and  C_33
REMARK   10  A    between atoms: C_36  and  O_37
REMARK                            x       y       z     vdW  Elec       q    Type
REMARK                         _______ _______ _______ _____ _____    ______ ____
ROOT
ATOM      1  N   UNL     1      32.767 -12.590 -23.601  0.00  0.00    -0.286 N 
ATOM      2  C   UNL     1      33.297 -13.860 -23.566  0.00  0.00    +0.053 C 
ATOM      3  C   UNL     1      33.243 -14.363 -24.868  0.00  0.00    +0.015 C 
ATOM      4  C   UNL     1      32.383 -12.273 -24.877  0.00  0.00    +0.065 C 
ATOM      5  C   UNL     1      32.665 -13.351 -25.683  0.00  0.00    +0.017 C 
ATOM      6  C   UNL     1      33.814 -14.594 -22.492  0.00  0.00    +0.030 C 
ATOM      7  C   UNL     1      33.729 -15.663 -25.112  0.00  0.00    +0.003 C 
ATOM      8  C   UNL     1      34.290 -15.882 -22.760  0.00  0.00    +0.053 C 
ATOM      9  C   UNL     1      34.250 -16.409 -24.049  0.00  0.00    +0.015 C 
ENDROOT
BRANCH   8  11
ATOM     10  O   UNL     1      35.089 -18.773 -22.684  0.00  0.00    -0.252 OA
ATOM     11  N   UNL     1      34.816 -16.647 -21.718  0.00  0.00    -0.268 N 
ATOM     12  N   UNL     1      35.669 -18.401 -20.477  0.00  0.00    -0.285 N 
ATOM     13  C   UNL     1      35.179 -18.008 -21.727  0.00  0.00    +0.305 C 
ATOM     14  H   UNL     1      34.952 -16.173 -20.865  0.00  0.00    +0.156 HD
ATOM     15  H   UNL     1      35.712 -17.731 -19.758  0.00  0.00    +0.151 HD
BRANCH  12  16
ATOM     16  C   UNL     1      36.117 -19.746 -20.193  0.00  0.00    +0.118 C 
BRANCH  16  17
ATOM     17  C   UNL     1      35.064 -20.553 -19.491  0.00  0.00    -0.003 C 
ATOM     18  C   UNL     1      33.743 -20.511 -19.934  0.00  0.00    -0.003 C 
ATOM     19  C   UNL     1      35.408 -21.346 -18.396  0.00  0.00    -0.003 C 
ATOM     20  C   UNL     1      32.764 -21.262 -19.282  0.00  0.00    -0.000 C 
ATOM     21  C   UNL     1      34.429 -22.096 -17.743  0.00  0.00    -0.000 C 
ATOM     22  C   UNL     1      33.107 -22.054 -18.187  0.00  0.00    -0.000 C 
ENDBRANCH  16  17
ENDBRANCH  12  16
ENDBRANCH   8  11
BRANCH   1  23
ATOM     23  C   UNL     1      32.629 -11.704 -22.465  0.00  0.00    +0.097 C 
BRANCH  23  24
ATOM     24  C   UNL     1      32.492 -10.220 -22.833  0.00  0.00    +0.040 C 
BRANCH  24  25
ATOM     25  C   UNL     1      31.864  -9.328 -21.740  0.00  0.00    +0.091 C 
BRANCH  25  26
ATOM     26  N   UNL     1      31.388  -8.028 -22.242  0.00  0.00    -0.246 NA
ATOM     27  N   UNL     1      30.641  -6.395 -23.548  0.00  0.00    -0.251 NA
ATOM     28  C   UNL     1      31.222  -6.878 -21.511  0.00  0.00    +0.125 C 
ATOM     29  C   UNL     1      31.029  -7.703 -23.464  0.00  0.00    +0.201 C 
ATOM     30  C   UNL     1      30.759  -5.851 -22.301  0.00  0.00    +0.124 C 
BRANCH  30  33
ATOM     31  O   UNL     1      29.286  -4.055 -21.860  0.00  0.00    -0.269 OA
ATOM     32  N   UNL     1      31.519  -3.639 -21.672  0.00  0.00    -0.324 N 
ATOM     33  C   UNL     1      30.454  -4.504 -21.951  0.00  0.00    +0.257 C 
ATOM     34  H   UNL     1      31.342  -2.703 -21.428  0.00  0.00    +0.145 HD
ATOM     35  H   UNL     1      32.446  -3.968 -21.721  0.00  0.00    +0.145 HD
ENDBRANCH  30  33
ENDBRANCH  25  26
BRANCH  25  36
ATOM     36  C   UNL     1      30.727 -10.074 -21.020  0.00  0.00    +0.153 C 
BRANCH  36  37
ATOM     37  O   UNL     1      30.976 -10.090 -19.619  0.00  0.00    -0.381 OA
ATOM     38  H   UNL     1      31.933 -10.134 -19.463  0.00  0.00    +0.210 HD
ENDBRANCH  36  37
ENDBRANCH  25  36
ENDBRANCH  24  25
ENDBRANCH  23  24
ENDBRANCH   1  23
TORSDOF 10
ENDMDL
