MODEL 1
REMARK VINA RESULT:     -11.5      0.000      0.000
REMARK  Name = 6957673
REMARK  9 active torsions:
REMARK  status: ('A' for Active; 'I' for Inactive)
REMARK    1  A    between atoms: C_1  and  C_4
REMARK    2  A    between atoms: C_1  and  N_17
REMARK    3  A    between atoms: C_1  and  C_26
REMARK    4  A    between atoms: N_3  and  C_6
REMARK    5  A    between atoms: C_11  and  C_13
REMARK    6  A    between atoms: C_13  and  O_14
REMARK    7  A    between atoms: C_18  and  C_20
REMARK    8  A    between atoms: C_26  and  C_27
REMARK    9  A    between atoms: C_32  and  O_33
REMARK                            x       y       z     vdW  Elec       q    Type
REMARK                         _______ _______ _______ _____ _____    ______ ____
ROOT
ATOM      1  C   UNL     1      33.637 -23.206 -16.552  0.00  0.00    +0.153 C 
ENDROOT
BRANCH   1   4
ATOM      2  O   UNL     1      35.642 -21.974 -17.085  0.00  0.00    -0.273 OA
ATOM      3  N   UNL     1      33.749 -21.717 -18.449  0.00  0.00    -0.283 N 
ATOM      4  C   UNL     1      34.471 -22.217 -17.368  0.00  0.00    +0.244 C 
ATOM      5  H   UNL     1      32.829 -22.052 -18.548  0.00  0.00    +0.155 HD
BRANCH   3   6
ATOM      6  C   UNL     1      34.184 -20.787 -19.422  0.00  0.00    +0.050 C 
ATOM      7  C   UNL     1      35.540 -20.541 -19.565  0.00  0.00    +0.015 C 
ATOM      8  C   UNL     1      33.246 -20.143 -20.212  0.00  0.00    +0.015 C 
ATOM      9  C   UNL     1      35.969 -19.624 -20.524  0.00  0.00    +0.008 C 
ATOM     10  C   UNL     1      33.676 -19.227 -21.173  0.00  0.00    +0.008 C 
ATOM     11  C   UNL     1      35.038 -18.967 -21.328  0.00  0.00    +0.076 C 
BRANCH  11  13
ATOM     12  O   UNL     1      34.752 -17.406 -23.118  0.00  0.00    -0.245 OA
ATOM     13  C   UNL     1      35.485 -18.013 -22.330  0.00  0.00    +0.338 C 
BRANCH  13  14
ATOM     14  O   UNL     1      36.835 -17.842 -22.319  0.00  0.00    -0.477 OA
ATOM     15  H   UNL     1      37.198 -16.979 -22.344  0.00  0.00    +0.295 HD
ENDBRANCH  13  14
ENDBRANCH  11  13
ENDBRANCH   3   6
ENDBRANCH   1   4
BRANCH   1  17
ATOM     16  O   UNL     1      35.303 -25.275 -15.462  0.00  0.00    -0.270 OA
ATOM     17  N   UNL     1      34.213 -23.242 -15.229  0.00  0.00    -0.295 N 
ATOM     18  C   UNL     1      35.009 -24.289 -14.790  0.00  0.00    +0.246 C 
ATOM     19  H   UNL     1      34.034 -22.493 -14.615  0.00  0.00    +0.150 HD
BRANCH  18  20
ATOM     20  C   UNL     1      35.503 -24.190 -13.394  0.00  0.00    +0.053 C 
ATOM     21  C   UNL     1      36.812 -24.533 -13.123  0.00  0.00    +0.005 C 
ATOM     22  C   UNL     1      34.639 -23.756 -12.411  0.00  0.00    +0.005 C 
ATOM     23  C   UNL     1      37.276 -24.439 -11.812  0.00  0.00    +0.000 C 
ATOM     24  C   UNL     1      35.103 -23.661 -11.098  0.00  0.00    +0.000 C 
ATOM     25  C   UNL     1      36.422 -24.003 -10.799  0.00  0.00    +0.000 C 
ENDBRANCH  18  20
ENDBRANCH   1  17
BRANCH   1  26
ATOM     26  C   UNL     1      32.166 -22.783 -16.486  0.00  0.00    +0.055 C 
BRANCH  26  27
ATOM     27  C   UNL     1      31.464 -23.244 -15.232  0.00  0.00    -0.020 C 
ATOM     28  C   UNL     1      31.525 -22.459 -14.091  0.00  0.00    -0.001 C 
ATOM     29  C   UNL     1      30.768 -24.443 -15.244  0.00  0.00    -0.001 C 
ATOM     30  C   UNL     1      30.876 -22.885 -12.932  0.00  0.00    +0.036 C 
ATOM     31  C   UNL     1      30.120 -24.869 -14.084  0.00  0.00    +0.036 C 
ATOM     32  C   UNL     1      30.174 -24.089 -12.929  0.00  0.00    +0.134 C 
BRANCH  32  33
ATOM     33  O   UNL     1      29.540 -24.505 -11.799  0.00  0.00    -0.506 OA
ATOM     34  H   UNL     1      28.915 -23.947 -11.381  0.00  0.00    +0.292 HD
ENDBRANCH  32  33
ENDBRANCH  26  27
ENDBRANCH   1  26
TORSDOF 9
ENDMDL
MODEL 2
REMARK VINA RESULT:     -11.5      1.066      1.592
REMARK  Name = 6957673
REMARK  9 active torsions:
REMARK  status: ('A' for Active; 'I' for Inactive)
REMARK    1  A    between atoms: C_1  and  C_4
REMARK    2  A    between atoms: C_1  and  N_17
REMARK    3  A    between atoms: C_1  and  C_26
REMARK    4  A    between atoms: N_3  and  C_6
REMARK    5  A    between atoms: C_11  and  C_13
REMARK    6  A    between atoms: C_13  and  O_14
REMARK    7  A    between atoms: C_18  and  C_20
REMARK    8  A    between atoms: C_26  and  C_27
REMARK    9  A    between atoms: C_32  and  O_33
REMARK                            x       y       z     vdW  Elec       q    Type
REMARK                         _______ _______ _______ _____ _____    ______ ____
ROOT
ATOM      1  C   UNL     1      33.325 -23.067 -16.057  0.00  0.00    +0.153 C 
ENDROOT
BRANCH   1   4
ATOM      2  O   UNL     1      35.320 -22.293 -17.171  0.00  0.00    -0.273 OA
ATOM      3  N   UNL     1      33.223 -21.717 -18.056  0.00  0.00    -0.283 N 
ATOM      4  C   UNL     1      34.092 -22.305 -17.140  0.00  0.00    +0.244 C 
ATOM      5  H   UNL     1      32.263 -21.861 -17.898  0.00  0.00    +0.155 HD
BRANCH   3   6
ATOM      6  C   UNL     1      33.560 -20.938 -19.188  0.00  0.00    +0.050 C 
ATOM      7  C   UNL     1      32.546 -20.384 -19.954  0.00  0.00    +0.015 C 
ATOM      8  C   UNL     1      34.893 -20.744 -19.507  0.00  0.00    +0.015 C 
ATOM      9  C   UNL     1      32.877 -19.616 -21.071  0.00  0.00    +0.008 C 
ATOM     10  C   UNL     1      35.224 -19.974 -20.622  0.00  0.00    +0.008 C 
ATOM     11  C   UNL     1      34.216 -19.411 -21.404  0.00  0.00    +0.076 C 
BRANCH  11  13
ATOM     12  O   UNL     1      33.851 -18.454 -23.566  0.00  0.00    -0.245 OA
ATOM     13  C   UNL     1      34.560 -18.608 -22.566  0.00  0.00    +0.338 C 
BRANCH  13  14
ATOM     14  O   UNL     1      35.781 -18.018 -22.447  0.00  0.00    -0.477 OA
ATOM     15  H   UNL     1      36.405 -18.087 -23.143  0.00  0.00    +0.295 HD
ENDBRANCH  13  14
ENDBRANCH  11  13
ENDBRANCH   3   6
ENDBRANCH   1   4
BRANCH   1  17
ATOM     16  O   UNL     1      34.934 -25.368 -15.457  0.00  0.00    -0.270 OA
ATOM     17  N   UNL     1      34.226 -23.220 -14.940  0.00  0.00    -0.295 N 
ATOM     18  C   UNL     1      34.965 -24.375 -14.732  0.00  0.00    +0.246 C 
ATOM     19  H   UNL     1      34.321 -22.476 -14.302  0.00  0.00    +0.150 HD
BRANCH  18  20
ATOM     20  C   UNL     1      35.827 -24.387 -13.523  0.00  0.00    +0.053 C 
ATOM     21  C   UNL     1      36.623 -25.488 -13.282  0.00  0.00    +0.005 C 
ATOM     22  C   UNL     1      35.805 -23.296 -12.680  0.00  0.00    +0.005 C 
ATOM     23  C   UNL     1      37.433 -25.498 -12.147  0.00  0.00    +0.000 C 
ATOM     24  C   UNL     1      36.615 -23.306 -11.543  0.00  0.00    +0.000 C 
ATOM     25  C   UNL     1      37.429 -24.407 -11.277  0.00  0.00    +0.000 C 
ENDBRANCH  18  20
ENDBRANCH   1  17
BRANCH   1  26
ATOM     26  C   UNL     1      32.061 -22.315 -15.627  0.00  0.00    +0.055 C 
BRANCH  26  27
ATOM     27  C   UNL     1      30.960 -23.223 -15.136  0.00  0.00    -0.020 C 
ATOM     28  C   UNL     1      29.799 -23.348 -15.883  0.00  0.00    -0.001 C 
ATOM     29  C   UNL     1      31.129 -23.916 -13.947  0.00  0.00    -0.001 C 
ATOM     30  C   UNL     1      28.781 -24.187 -15.429  0.00  0.00    +0.036 C 
ATOM     31  C   UNL     1      30.111 -24.755 -13.494  0.00  0.00    +0.036 C 
ATOM     32  C   UNL     1      28.938 -24.890 -14.235  0.00  0.00    +0.134 C 
BRANCH  32  33
ATOM     33  O   UNL     1      27.945 -25.709 -13.792  0.00  0.00    -0.506 OA
ATOM     34  H   UNL     1      28.056 -26.639 -13.825  0.00  0.00    +0.292 HD
ENDBRANCH  32  33
ENDBRANCH  26  27
ENDBRANCH   1  26
TORSDOF 9
ENDMDL
MODEL 3
REMARK VINA RESULT:     -11.4      3.104      6.989
REMARK  Name = 6957673
REMARK  9 active torsions:
REMARK  status: ('A' for Active; 'I' for Inactive)
REMARK    1  A    between atoms: C_1  and  C_4
REMARK    2  A    between atoms: C_1  and  N_17
REMARK    3  A    between atoms: C_1  and  C_26
REMARK    4  A    between atoms: N_3  and  C_6
REMARK    5  A    between atoms: C_11  and  C_13
REMARK    6  A    between atoms: C_13  and  O_14
REMARK    7  A    between atoms: C_18  and  C_20
REMARK    8  A    between atoms: C_26  and  C_27
REMARK    9  A    between atoms: C_32  and  O_33
REMARK                            x       y       z     vdW  Elec       q    Type
REMARK                         _______ _______ _______ _____ _____    ______ ____
ROOT
ATOM      1  C   UNL     1      32.199 -22.815 -14.988  0.00  0.00    +0.153 C 
ENDROOT
BRANCH   1   4
ATOM      2  O   UNL     1      33.417 -23.986 -13.265  0.00  0.00    -0.273 OA
ATOM      3  N   UNL     1      34.532 -23.381 -15.240  0.00  0.00    -0.283 N 
ATOM      4  C   UNL     1      33.446 -23.451 -14.371  0.00  0.00    +0.244 C 
ATOM      5  H   UNL     1      34.366 -22.948 -16.107  0.00  0.00    +0.155 HD
BRANCH   3   6
ATOM      6  C   UNL     1      35.846 -23.859 -15.021  0.00  0.00    +0.050 C 
ATOM      7  C   UNL     1      36.035 -25.196 -14.709  0.00  0.00    +0.015 C 
ATOM      8  C   UNL     1      36.914 -22.984 -15.126  0.00  0.00    +0.015 C 
ATOM      9  C   UNL     1      37.330 -25.669 -14.494  0.00  0.00    +0.008 C 
ATOM     10  C   UNL     1      38.208 -23.458 -14.913  0.00  0.00    +0.008 C 
ATOM     11  C   UNL     1      38.416 -24.801 -14.596  0.00  0.00    +0.076 C 
BRANCH  11  13
ATOM     12  O   UNL     1      40.082 -26.482 -14.251  0.00  0.00    -0.245 OA
ATOM     13  C   UNL     1      39.765 -25.294 -14.374  0.00  0.00    +0.338 C 
BRANCH  13  14
ATOM     14  O   UNL     1      40.683 -24.291 -14.314  0.00  0.00    -0.477 OA
ATOM     15  H   UNL     1      40.906 -23.909 -13.488  0.00  0.00    +0.295 HD
ENDBRANCH  13  14
ENDBRANCH  11  13
ENDBRANCH   3   6
ENDBRANCH   1   4
BRANCH   1  17
ATOM     16  O   UNL     1      32.818 -23.846 -17.595  0.00  0.00    -0.270 OA
ATOM     17  N   UNL     1      32.643 -22.055 -16.131  0.00  0.00    -0.295 N 
ATOM     18  C   UNL     1      32.919 -22.644 -17.356  0.00  0.00    +0.246 C 
ATOM     19  H   UNL     1      32.753 -21.081 -16.039  0.00  0.00    +0.150 HD
BRANCH  18  20
ATOM     20  C   UNL     1      33.391 -21.730 -18.426  0.00  0.00    +0.053 C 
ATOM     21  C   UNL     1      32.462 -21.000 -19.138  0.00  0.00    +0.005 C 
ATOM     22  C   UNL     1      34.745 -21.638 -18.674  0.00  0.00    +0.005 C 
ATOM     23  C   UNL     1      32.906 -20.141 -20.142  0.00  0.00    +0.000 C 
ATOM     24  C   UNL     1      35.190 -20.778 -19.679  0.00  0.00    +0.000 C 
ATOM     25  C   UNL     1      34.270 -20.030 -20.413  0.00  0.00    +0.000 C 
ENDBRANCH  18  20
ENDBRANCH   1  17
BRANCH   1  26
ATOM     26  C   UNL     1      31.176 -23.874 -15.411  0.00  0.00    +0.055 C 
BRANCH  26  27
ATOM     27  C   UNL     1      29.764 -23.348 -15.493  0.00  0.00    -0.020 C 
ATOM     28  C   UNL     1      28.878 -23.917 -16.395  0.00  0.00    -0.001 C 
ATOM     29  C   UNL     1      29.378 -22.306 -14.665  0.00  0.00    -0.001 C 
ATOM     30  C   UNL     1      27.574 -23.430 -16.472  0.00  0.00    +0.036 C 
ATOM     31  C   UNL     1      28.073 -21.819 -14.742  0.00  0.00    +0.036 C 
ATOM     32  C   UNL     1      27.171 -22.381 -15.645  0.00  0.00    +0.134 C 
BRANCH  32  33
ATOM     33  O   UNL     1      25.898 -21.907 -15.719  0.00  0.00    -0.506 OA
ATOM     34  H   UNL     1      25.518 -21.713 -16.553  0.00  0.00    +0.292 HD
ENDBRANCH  32  33
ENDBRANCH  26  27
ENDBRANCH   1  26
TORSDOF 9
ENDMDL
MODEL 4
REMARK VINA RESULT:     -11.1      1.916      5.451
REMARK  Name = 6957673
REMARK  9 active torsions:
REMARK  status: ('A' for Active; 'I' for Inactive)
REMARK    1  A    between atoms: C_1  and  C_4
REMARK    2  A    between atoms: C_1  and  N_17
REMARK    3  A    between atoms: C_1  and  C_26
REMARK    4  A    between atoms: N_3  and  C_6
REMARK    5  A    between atoms: C_11  and  C_13
REMARK    6  A    between atoms: C_13  and  O_14
REMARK    7  A    between atoms: C_18  and  C_20
REMARK    8  A    between atoms: C_26  and  C_27
REMARK    9  A    between atoms: C_32  and  O_33
REMARK                            x       y       z     vdW  Elec       q    Type
REMARK                         _______ _______ _______ _____ _____    ______ ____
ROOT
ATOM      1  C   UNL     1      34.315 -23.440 -14.696  0.00  0.00    +0.153 C 
ENDROOT
BRANCH   1   4
ATOM      2  O   UNL     1      35.813 -21.726 -15.495  0.00  0.00    -0.273 OA
ATOM      3  N   UNL     1      34.071 -22.457 -16.887  0.00  0.00    -0.283 N 
ATOM      4  C   UNL     1      34.826 -22.422 -15.718  0.00  0.00    +0.244 C 
ATOM      5  H   UNL     1      33.333 -23.108 -16.909  0.00  0.00    +0.155 HD
BRANCH   3   6
ATOM      6  C   UNL     1      34.241 -21.668 -18.049  0.00  0.00    +0.050 C 
ATOM      7  C   UNL     1      33.124 -21.254 -18.756  0.00  0.00    +0.015 C 
ATOM      8  C   UNL     1      35.520 -21.325 -18.455  0.00  0.00    +0.015 C 
ATOM      9  C   UNL     1      33.291 -20.476 -19.901  0.00  0.00    +0.008 C 
ATOM     10  C   UNL     1      35.687 -20.545 -19.600  0.00  0.00    +0.008 C 
ATOM     11  C   UNL     1      34.572 -20.121 -20.323  0.00  0.00    +0.076 C 
BRANCH  11  13
ATOM     12  O   UNL     1      33.934 -19.214 -22.443  0.00  0.00    -0.245 OA
ATOM     13  C   UNL     1      34.745 -19.308 -21.516  0.00  0.00    +0.338 C 
BRANCH  13  14
ATOM     14  O   UNL     1      35.927 -18.632 -21.517  0.00  0.00    -0.477 OA
ATOM     15  H   UNL     1      35.941 -17.713 -21.334  0.00  0.00    +0.295 HD
ENDBRANCH  13  14
ENDBRANCH  11  13
ENDBRANCH   3   6
ENDBRANCH   1   4
BRANCH   1  17
ATOM     16  O   UNL     1      32.186 -23.135 -12.793  0.00  0.00    -0.270 OA
ATOM     17  N   UNL     1      32.904 -23.608 -14.947  0.00  0.00    -0.295 N 
ATOM     18  C   UNL     1      31.945 -23.439 -13.960  0.00  0.00    +0.246 C 
ATOM     19  H   UNL     1      32.611 -23.852 -15.856  0.00  0.00    +0.150 HD
BRANCH  18  20
ATOM     20  C   UNL     1      30.538 -23.674 -14.372  0.00  0.00    +0.053 C 
ATOM     21  C   UNL     1      29.889 -22.706 -15.111  0.00  0.00    +0.005 C 
ATOM     22  C   UNL     1      29.924 -24.853 -14.004  0.00  0.00    +0.005 C 
ATOM     23  C   UNL     1      28.569 -22.927 -15.499  0.00  0.00    +0.000 C 
ATOM     24  C   UNL     1      28.602 -25.074 -14.391  0.00  0.00    +0.000 C 
ATOM     25  C   UNL     1      27.924 -24.111 -15.139  0.00  0.00    +0.000 C 
ENDBRANCH  18  20
ENDBRANCH   1  17
BRANCH   1  26
ATOM     26  C   UNL     1      35.046 -24.781 -14.822  0.00  0.00    +0.055 C 
BRANCH  26  27
ATOM     27  C   UNL     1      36.490 -24.721 -14.385  0.00  0.00    -0.020 C 
ATOM     28  C   UNL     1      36.821 -24.039 -13.224  0.00  0.00    -0.001 C 
ATOM     29  C   UNL     1      37.458 -25.350 -15.152  0.00  0.00    -0.001 C 
ATOM     30  C   UNL     1      38.155 -23.984 -12.821  0.00  0.00    +0.036 C 
ATOM     31  C   UNL     1      38.792 -25.294 -14.748  0.00  0.00    +0.036 C 
ATOM     32  C   UNL     1      39.140 -24.611 -13.583  0.00  0.00    +0.134 C 
BRANCH  32  33
ATOM     33  O   UNL     1      40.442 -24.558 -13.189  0.00  0.00    -0.506 OA
ATOM     34  H   UNL     1      40.664 -24.199 -12.352  0.00  0.00    +0.292 HD
ENDBRANCH  32  33
ENDBRANCH  26  27
ENDBRANCH   1  26
TORSDOF 9
ENDMDL
MODEL 5
REMARK VINA RESULT:     -11.1      1.766      5.026
REMARK  Name = 6957673
REMARK  9 active torsions:
REMARK  status: ('A' for Active; 'I' for Inactive)
REMARK    1  A    between atoms: C_1  and  C_4
REMARK    2  A    between atoms: C_1  and  N_17
REMARK    3  A    between atoms: C_1  and  C_26
REMARK    4  A    between atoms: N_3  and  C_6
REMARK    5  A    between atoms: C_11  and  C_13
REMARK    6  A    between atoms: C_13  and  O_14
REMARK    7  A    between atoms: C_18  and  C_20
REMARK    8  A    between atoms: C_26  and  C_27
REMARK    9  A    between atoms: C_32  and  O_33
REMARK                            x       y       z     vdW  Elec       q    Type
REMARK                         _______ _______ _______ _____ _____    ______ ____
ROOT
ATOM      1  C   UNL     1      34.183 -23.056 -15.618  0.00  0.00    +0.153 C 
ENDROOT
BRANCH   1   4
ATOM      2  O   UNL     1      35.854 -21.521 -16.439  0.00  0.00    -0.273 OA
ATOM      3  N   UNL     1      33.957 -21.951 -17.753  0.00  0.00    -0.283 N 
ATOM      4  C   UNL     1      34.771 -22.069 -16.629  0.00  0.00    +0.244 C 
ATOM      5  H   UNL     1      33.138 -22.496 -17.755  0.00  0.00    +0.155 HD
BRANCH   3   6
ATOM      6  C   UNL     1      34.170 -21.139 -18.892  0.00  0.00    +0.050 C 
ATOM      7  C   UNL     1      33.077 -20.617 -19.565  0.00  0.00    +0.015 C 
ATOM      8  C   UNL     1      35.465 -20.882 -19.310  0.00  0.00    +0.015 C 
ATOM      9  C   UNL     1      33.286 -19.816 -20.688  0.00  0.00    +0.008 C 
ATOM     10  C   UNL     1      35.674 -20.080 -20.432  0.00  0.00    +0.008 C 
ATOM     11  C   UNL     1      34.584 -19.547 -21.121  0.00  0.00    +0.076 C 
BRANCH  11  13
ATOM     12  O   UNL     1      34.026 -18.601 -23.246  0.00  0.00    -0.245 OA
ATOM     13  C   UNL     1      34.801 -18.711 -22.290  0.00  0.00    +0.338 C 
BRANCH  13  14
ATOM     14  O   UNL     1      35.980 -18.034 -22.233  0.00  0.00    -0.477 OA
ATOM     15  H   UNL     1      36.017 -17.135 -22.494  0.00  0.00    +0.295 HD
ENDBRANCH  13  14
ENDBRANCH  11  13
ENDBRANCH   3   6
ENDBRANCH   1   4
BRANCH   1  17
ATOM     16  O   UNL     1      32.138 -23.434 -13.639  0.00  0.00    -0.270 OA
ATOM     17  N   UNL     1      32.758 -23.083 -15.846  0.00  0.00    -0.295 N 
ATOM     18  C   UNL     1      31.843 -23.272 -14.821  0.00  0.00    +0.246 C 
ATOM     19  H   UNL     1      32.423 -22.961 -16.764  0.00  0.00    +0.150 HD
BRANCH  18  20
ATOM     20  C   UNL     1      30.414 -23.301 -15.222  0.00  0.00    +0.053 C 
ATOM     21  C   UNL     1      29.606 -24.310 -14.740  0.00  0.00    +0.005 C 
ATOM     22  C   UNL     1      29.939 -22.318 -16.065  0.00  0.00    +0.005 C 
ATOM     23  C   UNL     1      28.264 -24.336 -15.116  0.00  0.00    +0.000 C 
ATOM     24  C   UNL     1      28.596 -22.344 -16.442  0.00  0.00    +0.000 C 
ATOM     25  C   UNL     1      27.758 -23.353 -15.968  0.00  0.00    +0.000 C 
ENDBRANCH  18  20
ENDBRANCH   1  17
BRANCH   1  26
ATOM     26  C   UNL     1      34.780 -24.457 -15.786  0.00  0.00    +0.055 C 
BRANCH  26  27
ATOM     27  C   UNL     1      35.572 -24.919 -14.587  0.00  0.00    -0.020 C 
ATOM     28  C   UNL     1      36.359 -26.056 -14.691  0.00  0.00    -0.001 C 
ATOM     29  C   UNL     1      35.500 -24.199 -13.405  0.00  0.00    -0.001 C 
ATOM     30  C   UNL     1      37.091 -26.484 -13.583  0.00  0.00    +0.036 C 
ATOM     31  C   UNL     1      36.233 -24.627 -12.298  0.00  0.00    +0.036 C 
ATOM     32  C   UNL     1      37.028 -25.769 -12.388  0.00  0.00    +0.134 C 
BRANCH  32  33
ATOM     33  O   UNL     1      37.743 -26.186 -11.307  0.00  0.00    -0.506 OA
ATOM     34  H   UNL     1      37.560 -25.831 -10.459  0.00  0.00    +0.292 HD
ENDBRANCH  32  33
ENDBRANCH  26  27
ENDBRANCH   1  26
TORSDOF 9
ENDMDL
MODEL 6
REMARK VINA RESULT:     -11.0      1.800      2.413
REMARK  Name = 6957673
REMARK  9 active torsions:
REMARK  status: ('A' for Active; 'I' for Inactive)
REMARK    1  A    between atoms: C_1  and  C_4
REMARK    2  A    between atoms: C_1  and  N_17
REMARK    3  A    between atoms: C_1  and  C_26
REMARK    4  A    between atoms: N_3  and  C_6
REMARK    5  A    between atoms: C_11  and  C_13
REMARK    6  A    between atoms: C_13  and  O_14
REMARK    7  A    between atoms: C_18  and  C_20
REMARK    8  A    between atoms: C_26  and  C_27
REMARK    9  A    between atoms: C_32  and  O_33
REMARK                            x       y       z     vdW  Elec       q    Type
REMARK                         _______ _______ _______ _____ _____    ______ ____
ROOT
ATOM      1  C   UNL     1      33.477 -23.820 -15.625  0.00  0.00    +0.153 C 
ENDROOT
BRANCH   1   4
ATOM      2  O   UNL     1      33.116 -24.046 -17.999  0.00  0.00    -0.273 OA
ATOM      3  N   UNL     1      34.096 -22.078 -17.178  0.00  0.00    -0.283 N 
ATOM      4  C   UNL     1      33.549 -23.355 -17.081  0.00  0.00    +0.244 C 
ATOM      5  H   UNL     1      34.356 -21.652 -16.331  0.00  0.00    +0.155 HD
BRANCH   3   6
ATOM      6  C   UNL     1      34.320 -21.321 -18.352  0.00  0.00    +0.050 C 
ATOM      7  C   UNL     1      35.620 -21.017 -18.724  0.00  0.00    +0.015 C 
ATOM      8  C   UNL     1      33.237 -20.902 -19.107  0.00  0.00    +0.015 C 
ATOM      9  C   UNL     1      35.842 -20.271 -19.881  0.00  0.00    +0.008 C 
ATOM     10  C   UNL     1      33.459 -20.158 -20.266  0.00  0.00    +0.008 C 
ATOM     11  C   UNL     1      34.762 -19.842 -20.652  0.00  0.00    +0.076 C 
BRANCH  11  13
ATOM     12  O   UNL     1      34.249 -19.038 -22.846  0.00  0.00    -0.245 OA
ATOM     13  C   UNL     1      34.993 -19.067 -21.860  0.00  0.00    +0.338 C 
BRANCH  13  14
ATOM     14  O   UNL     1      36.147 -18.347 -21.804  0.00  0.00    -0.477 OA
ATOM     15  H   UNL     1      36.575 -18.212 -20.982  0.00  0.00    +0.295 HD
ENDBRANCH  13  14
ENDBRANCH  11  13
ENDBRANCH   3   6
ENDBRANCH   1   4
BRANCH   1  17
ATOM     16  O   UNL     1      35.200 -26.094 -15.305  0.00  0.00    -0.270 OA
ATOM     17  N   UNL     1      34.829 -23.812 -15.120  0.00  0.00    -0.295 N 
ATOM     18  C   UNL     1      35.587 -24.968 -15.001  0.00  0.00    +0.246 C 
ATOM     19  H   UNL     1      35.229 -22.954 -14.850  0.00  0.00    +0.150 HD
BRANCH  18  20
ATOM     20  C   UNL     1      36.951 -24.797 -14.440  0.00  0.00    +0.053 C 
ATOM     21  C   UNL     1      37.094 -24.191 -13.209  0.00  0.00    +0.005 C 
ATOM     22  C   UNL     1      38.032 -25.250 -15.167  0.00  0.00    +0.005 C 
ATOM     23  C   UNL     1      38.374 -24.031 -12.682  0.00  0.00    +0.000 C 
ATOM     24  C   UNL     1      39.314 -25.090 -14.640  0.00  0.00    +0.000 C 
ATOM     25  C   UNL     1      39.485 -24.480 -13.397  0.00  0.00    +0.000 C 
ENDBRANCH  18  20
ENDBRANCH   1  17
BRANCH   1  26
ATOM     26  C   UNL     1      32.585 -22.901 -14.783  0.00  0.00    +0.055 C 
BRANCH  26  27
ATOM     27  C   UNL     1      31.112 -23.071 -15.065  0.00  0.00    -0.020 C 
ATOM     28  C   UNL     1      30.388 -24.011 -14.349  0.00  0.00    -0.001 C 
ATOM     29  C   UNL     1      30.510 -22.283 -16.034  0.00  0.00    -0.001 C 
ATOM     30  C   UNL     1      29.026 -24.168 -14.609  0.00  0.00    +0.036 C 
ATOM     31  C   UNL     1      29.149 -22.441 -16.294  0.00  0.00    +0.036 C 
ATOM     32  C   UNL     1      28.408 -23.383 -15.582  0.00  0.00    +0.134 C 
BRANCH  32  33
ATOM     33  O   UNL     1      27.079 -23.536 -15.836  0.00  0.00    -0.506 OA
ATOM     34  H   UNL     1      26.570 -22.804 -16.123  0.00  0.00    +0.292 HD
ENDBRANCH  32  33
ENDBRANCH  26  27
ENDBRANCH   1  26
TORSDOF 9
ENDMDL
MODEL 7
REMARK VINA RESULT:     -10.9      2.953      7.804
REMARK  Name = 6957673
REMARK  9 active torsions:
REMARK  status: ('A' for Active; 'I' for Inactive)
REMARK    1  A    between atoms: C_1  and  C_4
REMARK    2  A    between atoms: C_1  and  N_17
REMARK    3  A    between atoms: C_1  and  C_26
REMARK    4  A    between atoms: N_3  and  C_6
REMARK    5  A    between atoms: C_11  and  C_13
REMARK    6  A    between atoms: C_13  and  O_14
REMARK    7  A    between atoms: C_18  and  C_20
REMARK    8  A    between atoms: C_26  and  C_27
REMARK    9  A    between atoms: C_32  and  O_33
REMARK                            x       y       z     vdW  Elec       q    Type
REMARK                         _______ _______ _______ _____ _____    ______ ____
ROOT
ATOM      1  C   UNL     1      34.032 -23.500 -15.427  0.00  0.00    +0.153 C 
ENDROOT
BRANCH   1   4
ATOM      2  O   UNL     1      32.245 -23.884 -13.851  0.00  0.00    -0.273 OA
ATOM      3  N   UNL     1      31.766 -22.797 -15.876  0.00  0.00    -0.283 N 
ATOM      4  C   UNL     1      32.580 -23.443 -14.948  0.00  0.00    +0.244 C 
ATOM      5  H   UNL     1      32.212 -22.470 -16.690  0.00  0.00    +0.155 HD
BRANCH   3   6
ATOM      6  C   UNL     1      30.376 -22.554 -15.784  0.00  0.00    +0.050 C 
ATOM      7  C   UNL     1      29.857 -22.022 -14.614  0.00  0.00    +0.015 C 
ATOM      8  C   UNL     1      29.562 -22.851 -16.864  0.00  0.00    +0.015 C 
ATOM      9  C   UNL     1      28.486 -21.781 -14.523  0.00  0.00    +0.008 C 
ATOM     10  C   UNL     1      28.191 -22.609 -16.774  0.00  0.00    +0.008 C 
ATOM     11  C   UNL     1      27.653 -22.074 -15.602  0.00  0.00    +0.076 C 
BRANCH  11  13
ATOM     12  O   UNL     1      25.569 -21.801 -14.461  0.00  0.00    -0.245 OA
ATOM     13  C   UNL     1      26.225 -21.822 -15.508  0.00  0.00    +0.338 C 
BRANCH  13  14
ATOM     14  O   UNL     1      25.654 -21.601 -16.724  0.00  0.00    -0.477 OA
ATOM     15  H   UNL     1      25.844 -22.172 -17.441  0.00  0.00    +0.295 HD
ENDBRANCH  13  14
ENDBRANCH  11  13
ENDBRANCH   3   6
ENDBRANCH   1   4
BRANCH   1  17
ATOM     16  O   UNL     1      33.118 -23.778 -18.134  0.00  0.00    -0.270 OA
ATOM     17  N   UNL     1      34.159 -22.525 -16.483  0.00  0.00    -0.295 N 
ATOM     18  C   UNL     1      33.684 -22.751 -17.767  0.00  0.00    +0.246 C 
ATOM     19  H   UNL     1      34.600 -21.667 -16.285  0.00  0.00    +0.150 HD
BRANCH  18  20
ATOM     20  C   UNL     1      33.916 -21.660 -18.747  0.00  0.00    +0.053 C 
ATOM     21  C   UNL     1      32.831 -21.090 -19.380  0.00  0.00    +0.005 C 
ATOM     22  C   UNL     1      35.210 -21.250 -18.994  0.00  0.00    +0.005 C 
ATOM     23  C   UNL     1      33.048 -20.065 -20.300  0.00  0.00    +0.000 C 
ATOM     24  C   UNL     1      35.428 -20.225 -19.914  0.00  0.00    +0.000 C 
ATOM     25  C   UNL     1      34.348 -19.632 -20.567  0.00  0.00    +0.000 C 
ENDBRANCH  18  20
ENDBRANCH   1  17
BRANCH   1  26
ATOM     26  C   UNL     1      35.012 -23.190 -14.290  0.00  0.00    +0.055 C 
BRANCH  26  27
ATOM     27  C   UNL     1      36.232 -24.079 -14.291  0.00  0.00    -0.020 C 
ATOM     28  C   UNL     1      37.486 -23.511 -14.125  0.00  0.00    -0.001 C 
ATOM     29  C   UNL     1      36.078 -25.446 -14.456  0.00  0.00    -0.001 C 
ATOM     30  C   UNL     1      38.614 -24.332 -14.126  0.00  0.00    +0.036 C 
ATOM     31  C   UNL     1      37.206 -26.266 -14.456  0.00  0.00    +0.036 C 
ATOM     32  C   UNL     1      38.473 -25.709 -14.292  0.00  0.00    +0.134 C 
BRANCH  32  33
ATOM     33  O   UNL     1      39.574 -26.511 -14.292  0.00  0.00    -0.506 OA
ATOM     34  H   UNL     1      39.741 -27.077 -13.564  0.00  0.00    +0.292 HD
ENDBRANCH  32  33
ENDBRANCH  26  27
ENDBRANCH   1  26
TORSDOF 9
ENDMDL
MODEL 8
REMARK VINA RESULT:     -10.6      2.346      7.793
REMARK  Name = 6957673
REMARK  9 active torsions:
REMARK  status: ('A' for Active; 'I' for Inactive)
REMARK    1  A    between atoms: C_1  and  C_4
REMARK    2  A    between atoms: C_1  and  N_17
REMARK    3  A    between atoms: C_1  and  C_26
REMARK    4  A    between atoms: N_3  and  C_6
REMARK    5  A    between atoms: C_11  and  C_13
REMARK    6  A    between atoms: C_13  and  O_14
REMARK    7  A    between atoms: C_18  and  C_20
REMARK    8  A    between atoms: C_26  and  C_27
REMARK    9  A    between atoms: C_32  and  O_33
REMARK                            x       y       z     vdW  Elec       q    Type
REMARK                         _______ _______ _______ _____ _____    ______ ____
ROOT
ATOM      1  C   UNL     1      35.883 -22.342 -16.618  0.00  0.00    +0.153 C 
ENDROOT
BRANCH   1   4
ATOM      2  O   UNL     1      34.476 -21.675 -14.775  0.00  0.00    -0.273 OA
ATOM      3  N   UNL     1      33.542 -22.924 -16.529  0.00  0.00    -0.283 N 
ATOM      4  C   UNL     1      34.566 -22.278 -15.841  0.00  0.00    +0.244 C 
ATOM      5  H   UNL     1      33.785 -23.323 -17.394  0.00  0.00    +0.155 HD
BRANCH   3   6
ATOM      6  C   UNL     1      32.193 -23.071 -16.130  0.00  0.00    +0.050 C 
ATOM      7  C   UNL     1      31.204 -22.391 -16.822  0.00  0.00    +0.015 C 
ATOM      8  C   UNL     1      31.888 -23.892 -15.057  0.00  0.00    +0.015 C 
ATOM      9  C   UNL     1      29.873 -22.536 -16.430  0.00  0.00    +0.008 C 
ATOM     10  C   UNL     1      30.557 -24.038 -14.665  0.00  0.00    +0.008 C 
ATOM     11  C   UNL     1      29.550 -23.360 -15.352  0.00  0.00    +0.076 C 
BRANCH  11  13
ATOM     12  O   UNL     1      27.253 -22.713 -15.186  0.00  0.00    -0.245 OA
ATOM     13  C   UNL     1      28.163 -23.513 -14.944  0.00  0.00    +0.338 C 
BRANCH  13  14
ATOM     14  O   UNL     1      27.949 -24.661 -14.245  0.00  0.00    -0.477 OA
ATOM     15  H   UNL     1      27.103 -24.840 -13.886  0.00  0.00    +0.295 HD
ENDBRANCH  13  14
ENDBRANCH  11  13
ENDBRANCH   3   6
ENDBRANCH   1   4
BRANCH   1  17
ATOM     16  O   UNL     1      34.493 -22.494 -19.125  0.00  0.00    -0.270 OA
ATOM     17  N   UNL     1      35.818 -21.316 -17.630  0.00  0.00    -0.295 N 
ATOM     18  C   UNL     1      35.118 -21.482 -18.816  0.00  0.00    +0.246 C 
ATOM     19  H   UNL     1      36.288 -20.465 -17.473  0.00  0.00    +0.150 HD
BRANCH  18  20
ATOM     20  C   UNL     1      35.169 -20.343 -19.767  0.00  0.00    +0.053 C 
ATOM     21  C   UNL     1      36.362 -19.673 -19.941  0.00  0.00    +0.005 C 
ATOM     22  C   UNL     1      34.022 -19.991 -20.447  0.00  0.00    +0.005 C 
ATOM     23  C   UNL     1      36.411 -18.604 -20.834  0.00  0.00    +0.000 C 
ATOM     24  C   UNL     1      34.070 -18.920 -21.341  0.00  0.00    +0.000 C 
ATOM     25  C   UNL     1      35.264 -18.227 -21.535  0.00  0.00    +0.000 C 
ENDBRANCH  18  20
ENDBRANCH   1  17
BRANCH   1  26
ATOM     26  C   UNL     1      37.090 -22.115 -15.701  0.00  0.00    +0.055 C 
BRANCH  26  27
ATOM     27  C   UNL     1      37.218 -23.150 -14.610  0.00  0.00    -0.020 C 
ATOM     28  C   UNL     1      37.168 -22.749 -13.284  0.00  0.00    -0.001 C 
ATOM     29  C   UNL     1      37.382 -24.483 -14.953  0.00  0.00    -0.001 C 
ATOM     30  C   UNL     1      37.287 -23.706 -12.275  0.00  0.00    +0.036 C 
ATOM     31  C   UNL     1      37.501 -25.439 -13.944  0.00  0.00    +0.036 C 
ATOM     32  C   UNL     1      37.453 -25.050 -12.606  0.00  0.00    +0.134 C 
BRANCH  32  33
ATOM     33  O   UNL     1      37.568 -25.984 -11.622  0.00  0.00    -0.506 OA
ATOM     34  H   UNL     1      38.199 -26.672 -11.702  0.00  0.00    +0.292 HD
ENDBRANCH  32  33
ENDBRANCH  26  27
ENDBRANCH   1  26
TORSDOF 9
ENDMDL
MODEL 9
REMARK VINA RESULT:     -10.2      1.892      7.474
REMARK  Name = 6957673
REMARK  9 active torsions:
REMARK  status: ('A' for Active; 'I' for Inactive)
REMARK    1  A    between atoms: C_1  and  C_4
REMARK    2  A    between atoms: C_1  and  N_17
REMARK    3  A    between atoms: C_1  and  C_26
REMARK    4  A    between atoms: N_3  and  C_6
REMARK    5  A    between atoms: C_11  and  C_13
REMARK    6  A    between atoms: C_13  and  O_14
REMARK    7  A    between atoms: C_18  and  C_20
REMARK    8  A    between atoms: C_26  and  C_27
REMARK    9  A    between atoms: C_32  and  O_33
REMARK                            x       y       z     vdW  Elec       q    Type
REMARK                         _______ _______ _______ _____ _____    ______ ____
ROOT
ATOM      1  C   UNL     1      35.341 -21.591 -17.812  0.00  0.00    +0.153 C 
ENDROOT
BRANCH   1   4
ATOM      2  O   UNL     1      33.497 -22.845 -18.732  0.00  0.00    -0.273 OA
ATOM      3  N   UNL     1      33.417 -22.185 -16.481  0.00  0.00    -0.283 N 
ATOM      4  C   UNL     1      33.971 -22.270 -17.756  0.00  0.00    +0.244 C 
ATOM      5  H   UNL     1      33.955 -21.718 -15.804  0.00  0.00    +0.155 HD
BRANCH   3   6
ATOM      6  C   UNL     1      32.170 -22.693 -16.046  0.00  0.00    +0.050 C 
ATOM      7  C   UNL     1      31.016 -22.322 -16.718  0.00  0.00    +0.015 C 
ATOM      8  C   UNL     1      32.128 -23.552 -14.961  0.00  0.00    +0.015 C 
ATOM      9  C   UNL     1      29.786 -22.823 -16.290  0.00  0.00    +0.008 C 
ATOM     10  C   UNL     1      30.899 -24.054 -14.534  0.00  0.00    +0.008 C 
ATOM     11  C   UNL     1      29.728 -23.689 -15.199  0.00  0.00    +0.076 C 
BRANCH  11  13
ATOM     12  O   UNL     1      27.340 -23.780 -15.093  0.00  0.00    -0.245 OA
ATOM     13  C   UNL     1      28.446 -24.212 -14.754  0.00  0.00    +0.338 C 
BRANCH  13  14
ATOM     14  O   UNL     1      28.582 -25.263 -13.900  0.00  0.00    -0.477 OA
ATOM     15  H   UNL     1      29.051 -25.157 -13.096  0.00  0.00    +0.295 HD
ENDBRANCH  13  14
ENDBRANCH  11  13
ENDBRANCH   3   6
ENDBRANCH   1   4
BRANCH   1  17
ATOM     16  O   UNL     1      35.623 -21.367 -14.964  0.00  0.00    -0.270 OA
ATOM     17  N   UNL     1      36.223 -22.363 -16.970  0.00  0.00    -0.295 N 
ATOM     18  C   UNL     1      36.289 -22.183 -15.597  0.00  0.00    +0.246 C 
ATOM     19  H   UNL     1      36.798 -23.046 -17.387  0.00  0.00    +0.150 HD
BRANCH  18  20
ATOM     20  C   UNL     1      37.265 -23.038 -14.875  0.00  0.00    +0.053 C 
ATOM     21  C   UNL     1      38.414 -23.436 -15.528  0.00  0.00    +0.005 C 
ATOM     22  C   UNL     1      36.993 -23.408 -13.574  0.00  0.00    +0.005 C 
ATOM     23  C   UNL     1      39.331 -24.238 -14.850  0.00  0.00    +0.000 C 
ATOM     24  C   UNL     1      37.910 -24.211 -12.895  0.00  0.00    +0.000 C 
ATOM     25  C   UNL     1      39.079 -24.626 -13.533  0.00  0.00    +0.000 C 
ENDBRANCH  18  20
ENDBRANCH   1  17
BRANCH   1  26
ATOM     26  C   UNL     1      35.883 -21.532 -19.244  0.00  0.00    +0.055 C 
BRANCH  26  27
ATOM     27  C   UNL     1      35.508 -20.266 -19.976  0.00  0.00    -0.020 C 
ATOM     28  C   UNL     1      34.188 -20.060 -20.346  0.00  0.00    -0.001 C 
ATOM     29  C   UNL     1      36.491 -19.331 -20.264  0.00  0.00    -0.001 C 
ATOM     30  C   UNL     1      33.842 -18.890 -21.023  0.00  0.00    +0.036 C 
ATOM     31  C   UNL     1      36.144 -18.162 -20.941  0.00  0.00    +0.036 C 
ATOM     32  C   UNL     1      34.820 -17.942 -21.320  0.00  0.00    +0.134 C 
BRANCH  32  33
ATOM     33  O   UNL     1      34.483 -16.800 -21.979  0.00  0.00    -0.506 OA
ATOM     34  H   UNL     1      35.026 -16.040 -21.908  0.00  0.00    +0.292 HD
ENDBRANCH  32  33
ENDBRANCH  26  27
ENDBRANCH   1  26
TORSDOF 9
ENDMDL
