MODEL 1
REMARK VINA RESULT:     -12.7      0.000      0.000
REMARK  Name = 11270500
REMARK  6 active torsions:
REMARK  status: ('A' for Active; 'I' for Inactive)
REMARK    1  A    between atoms: N_1  and  C_23
REMARK    2  A    between atoms: C_4  and  C_11
REMARK    3  A    between atoms: N_9  and  C_15
REMARK    4  A    between atoms: C_18  and  N_25
REMARK    5  A    between atoms: C_31  and  C_32
REMARK    6  A    between atoms: C_32  and  O_33
REMARK                            x       y       z     vdW  Elec       q    Type
REMARK                         _______ _______ _______ _____ _____    ______ ____
ROOT
ATOM      1  N   UNL     1      33.961 -16.276 -24.564  0.00  0.00    -0.247 N 
ATOM      2  N   UNL     1      33.079 -14.396 -23.473  0.00  0.00    -0.336 NA
ATOM      3  N   UNL     1      33.459 -14.380 -25.852  0.00  0.00    -0.170 NA
ATOM      4  C   UNL     1      32.621 -13.131 -23.574  0.00  0.00    +0.161 C 
ATOM      5  C   UNL     1      33.477 -14.956 -24.633  0.00  0.00    +0.149 C 
ATOM      6  C   UNL     1      32.552 -12.434 -24.763  0.00  0.00    +0.056 C 
ATOM      7  C   UNL     1      32.989 -13.116 -25.881  0.00  0.00    +0.114 C 
ATOM      8  H   UNL     1      34.240 -16.641 -25.435  0.00  0.00    +0.165 HD
ENDROOT
BRANCH   4  11
ATOM      9  N   UNL     1      31.960 -11.206 -22.148  0.00  0.00    -0.274 N 
ATOM     10  N   UNL     1      31.558 -12.169 -20.186  0.00  0.00    -0.232 NA
ATOM     11  C   UNL     1      32.198 -12.541 -22.332  0.00  0.00    +0.103 C 
ATOM     12  C   UNL     1      31.578 -11.032 -20.846  0.00  0.00    +0.113 C 
ATOM     13  C   UNL     1      31.943 -13.112 -21.106  0.00  0.00    +0.117 C 
ATOM     14  C   UNL     1      31.241  -9.704 -20.296  0.00  0.00    +0.069 C 
BRANCH   9  15
ATOM     15  C   UNL     1      32.085 -10.167 -23.145  0.00  0.00    +0.078 C 
ATOM     16  C   UNL     1      31.021  -9.081 -22.977  0.00  0.00    +0.022 C 
ATOM     17  C   UNL     1      33.496  -9.574 -23.180  0.00  0.00    +0.022 C 
ENDBRANCH   9  15
ENDBRANCH   4  11
BRANCH   1  23
ATOM     18  C   UNL     1      34.451 -18.990 -21.344  0.00  0.00    +0.048 C 
ATOM     19  C   UNL     1      34.965 -17.673 -21.283  0.00  0.00    +0.016 C 
ATOM     20  C   UNL     1      33.767 -19.364 -22.524  0.00  0.00    +0.016 C 
ATOM     21  C   UNL     1      34.805 -16.780 -22.343  0.00  0.00    +0.017 C 
ATOM     22  C   UNL     1      33.607 -18.472 -23.584  0.00  0.00    +0.017 C 
ATOM     23  C   UNL     1      34.125 -17.179 -23.493  0.00  0.00    +0.058 C 
BRANCH  18  25
ATOM     24  O   UNL     1      34.079 -23.293 -16.589  0.00  0.00    -0.272 OA
ATOM     25  N   UNL     1      34.608 -19.880 -20.285  0.00  0.00    -0.304 N 
ATOM     26  N   UNL     1      34.910 -21.671 -18.030  0.00  0.00    -0.274 N 
ATOM     27  C   UNL     1      35.936 -20.348 -19.878  0.00  0.00    +0.112 C 
ATOM     28  C   UNL     1      33.440 -20.406 -19.570  0.00  0.00    +0.112 C 
ATOM     29  C   UNL     1      35.952 -20.709 -18.393  0.00  0.00    +0.115 C 
ATOM     30  C   UNL     1      33.762 -21.755 -18.930  0.00  0.00    +0.115 C 
ATOM     31  C   UNL     1      34.956 -22.482 -16.897  0.00  0.00    +0.256 C 
BRANCH  31  32
ATOM     32  C   UNL     1      36.173 -22.333 -16.018  0.00  0.00    +0.223 C 
BRANCH  32  33
ATOM     33  O   UNL     1      36.476 -23.618 -15.531  0.00  0.00    -0.374 OA
ATOM     34  H   UNL     1      36.809 -24.169 -16.257  0.00  0.00    +0.211 HD
ENDBRANCH  32  33
ENDBRANCH  31  32
ENDBRANCH  18  25
ENDBRANCH   1  23
TORSDOF 6
ENDMDL
MODEL 2
REMARK VINA RESULT:      -9.9      4.709      8.307
REMARK  Name = 11270500
REMARK  6 active torsions:
REMARK  status: ('A' for Active; 'I' for Inactive)
REMARK    1  A    between atoms: N_1  and  C_23
REMARK    2  A    between atoms: C_4  and  C_11
REMARK    3  A    between atoms: N_9  and  C_15
REMARK    4  A    between atoms: C_18  and  N_25
REMARK    5  A    between atoms: C_31  and  C_32
REMARK    6  A    between atoms: C_32  and  O_33
REMARK                            x       y       z     vdW  Elec       q    Type
REMARK                         _______ _______ _______ _____ _____    ______ ____
ROOT
ATOM      1  N   UNL     1      30.618  -7.788 -21.876  0.00  0.00    -0.247 N 
ATOM      2  N   UNL     1      31.897  -6.583 -23.430  0.00  0.00    -0.336 NA
ATOM      3  N   UNL     1      30.080  -5.534 -22.245  0.00  0.00    -0.170 NA
ATOM      4  C   UNL     1      32.119  -5.408 -24.056  0.00  0.00    +0.161 C 
ATOM      5  C   UNL     1      30.877  -6.578 -22.548  0.00  0.00    +0.149 C 
ATOM      6  C   UNL     1      31.374  -4.268 -23.832  0.00  0.00    +0.056 C 
ATOM      7  C   UNL     1      30.357  -4.391 -22.907  0.00  0.00    +0.114 C 
ATOM      8  H   UNL     1      29.865  -7.736 -21.245  0.00  0.00    +0.165 HD
ENDROOT
BRANCH   4  11
ATOM      9  N   UNL     1      33.445  -4.444 -25.923  0.00  0.00    -0.274 N 
ATOM     10  N   UNL     1      35.053  -5.950 -26.207  0.00  0.00    -0.232 NA
ATOM     11  C   UNL     1      33.209  -5.421 -24.995  0.00  0.00    +0.103 C 
ATOM     12  C   UNL     1      34.562  -4.805 -26.626  0.00  0.00    +0.113 C 
ATOM     13  C   UNL     1      34.215  -6.339 -25.192  0.00  0.00    +0.117 C 
ATOM     14  C   UNL     1      35.109  -3.974 -27.717  0.00  0.00    +0.069 C 
BRANCH   9  15
ATOM     15  C   UNL     1      32.662  -3.246 -26.127  0.00  0.00    +0.078 C 
ATOM     16  C   UNL     1      33.458  -1.980 -25.808  0.00  0.00    +0.022 C 
ATOM     17  C   UNL     1      32.053  -3.192 -27.530  0.00  0.00    +0.022 C 
ENDBRANCH   9  15
ENDBRANCH   4  11
BRANCH   1  23
ATOM     18  C   UNL     1      32.445 -11.611 -22.036  0.00  0.00    +0.048 C 
ATOM     19  C   UNL     1      32.675 -10.641 -23.041  0.00  0.00    +0.016 C 
ATOM     20  C   UNL     1      31.579 -11.252 -20.976  0.00  0.00    +0.016 C 
ATOM     21  C   UNL     1      32.074  -9.384 -22.988  0.00  0.00    +0.017 C 
ATOM     22  C   UNL     1      30.977  -9.995 -20.924  0.00  0.00    +0.017 C 
ATOM     23  C   UNL     1      31.225  -9.060 -21.930  0.00  0.00    +0.058 C 
BRANCH  18  25
ATOM     24  O   UNL     1      35.005 -17.351 -23.364  0.00  0.00    -0.272 OA
ATOM     25  N   UNL     1      33.047 -12.865 -22.085  0.00  0.00    -0.304 N 
ATOM     26  N   UNL     1      34.225 -15.509 -22.182  0.00  0.00    -0.274 N 
ATOM     27  C   UNL     1      33.883 -13.349 -20.983  0.00  0.00    +0.112 C 
ATOM     28  C   UNL     1      32.892 -13.723 -23.264  0.00  0.00    +0.112 C 
ATOM     29  C   UNL     1      33.858 -14.875 -20.913  0.00  0.00    +0.115 C 
ATOM     30  C   UNL     1      34.067 -14.693 -23.384  0.00  0.00    +0.115 C 
ATOM     31  C   UNL     1      34.696 -16.816 -22.296  0.00  0.00    +0.256 C 
BRANCH  31  32
ATOM     32  C   UNL     1      34.827 -17.592 -21.009  0.00  0.00    +0.223 C 
BRANCH  32  33
ATOM     33  O   UNL     1      36.198 -17.861 -20.841  0.00  0.00    -0.374 OA
ATOM     34  H   UNL     1      36.306 -18.675 -20.324  0.00  0.00    +0.211 HD
ENDBRANCH  32  33
ENDBRANCH  31  32
ENDBRANCH  18  25
ENDBRANCH   1  23
TORSDOF 6
ENDMDL
MODEL 3
REMARK VINA RESULT:      -9.9      1.368      2.130
REMARK  Name = 11270500
REMARK  6 active torsions:
REMARK  status: ('A' for Active; 'I' for Inactive)
REMARK    1  A    between atoms: N_1  and  C_23
REMARK    2  A    between atoms: C_4  and  C_11
REMARK    3  A    between atoms: N_9  and  C_15
REMARK    4  A    between atoms: C_18  and  N_25
REMARK    5  A    between atoms: C_31  and  C_32
REMARK    6  A    between atoms: C_32  and  O_33
REMARK                            x       y       z     vdW  Elec       q    Type
REMARK                         _______ _______ _______ _____ _____    ______ ____
ROOT
ATOM      1  N   UNL     1      34.604 -17.813 -23.412  0.00  0.00    -0.247 N 
ATOM      2  N   UNL     1      33.722 -15.800 -22.591  0.00  0.00    -0.336 NA
ATOM      3  N   UNL     1      34.164 -16.088 -24.941  0.00  0.00    -0.170 NA
ATOM      4  C   UNL     1      33.286 -14.552 -22.863  0.00  0.00    +0.161 C 
ATOM      5  C   UNL     1      34.142 -16.506 -23.660  0.00  0.00    +0.149 C 
ATOM      6  C   UNL     1      33.259 -14.010 -24.132  0.00  0.00    +0.056 C 
ATOM      7  C   UNL     1      33.715 -14.832 -25.143  0.00  0.00    +0.114 C 
ATOM      8  H   UNL     1      34.900 -18.288 -24.222  0.00  0.00    +0.165 HD
ENDROOT
BRANCH   4  11
ATOM      9  N   UNL     1      32.427 -12.501 -21.754  0.00  0.00    -0.274 N 
ATOM     10  N   UNL     1      32.248 -13.134 -19.632  0.00  0.00    -0.232 NA
ATOM     11  C   UNL     1      32.840 -13.805 -21.718  0.00  0.00    +0.103 C 
ATOM     12  C   UNL     1      32.082 -12.143 -20.480  0.00  0.00    +0.113 C 
ATOM     13  C   UNL     1      32.720 -14.171 -20.396  0.00  0.00    +0.117 C 
ATOM     14  C   UNL     1      31.588 -10.791 -20.148  0.00  0.00    +0.069 C 
BRANCH   9  15
ATOM     15  C   UNL     1      32.364 -11.653 -22.923  0.00  0.00    +0.078 C 
ATOM     16  C   UNL     1      31.211 -10.651 -22.842  0.00  0.00    +0.022 C 
ATOM     17  C   UNL     1      33.699 -10.958 -23.199  0.00  0.00    +0.022 C 
ENDBRANCH   9  15
ENDBRANCH   4  11
BRANCH   1  23
ATOM     18  C   UNL     1      34.970 -20.102 -19.862  0.00  0.00    +0.048 C 
ATOM     19  C   UNL     1      36.066 -19.376 -20.387  0.00  0.00    +0.016 C 
ATOM     20  C   UNL     1      33.748 -20.034 -20.572  0.00  0.00    +0.016 C 
ATOM     21  C   UNL     1      35.945 -18.623 -21.556  0.00  0.00    +0.017 C 
ATOM     22  C   UNL     1      33.628 -19.281 -21.740  0.00  0.00    +0.017 C 
ATOM     23  C   UNL     1      34.726 -18.575 -22.232  0.00  0.00    +0.058 C 
BRANCH  18  25
ATOM     24  O   UNL     1      36.543 -23.107 -14.407  0.00  0.00    -0.272 OA
ATOM     25  N   UNL     1      35.089 -20.851 -18.695  0.00  0.00    -0.304 N 
ATOM     26  N   UNL     1      35.373 -22.469 -16.310  0.00  0.00    -0.274 N 
ATOM     27  C   UNL     1      33.910 -21.414 -18.032  0.00  0.00    +0.112 C 
ATOM     28  C   UNL     1      36.400 -21.064 -18.073  0.00  0.00    +0.112 C 
ATOM     29  C   UNL     1      34.276 -22.679 -17.257  0.00  0.00    +0.115 C 
ATOM     30  C   UNL     1      36.250 -21.331 -16.576  0.00  0.00    +0.115 C 
ATOM     31  C   UNL     1      35.619 -23.283 -15.205  0.00  0.00    +0.256 C 
BRANCH  31  32
ATOM     32  C   UNL     1      34.670 -24.438 -15.003  0.00  0.00    +0.223 C 
BRANCH  32  33
ATOM     33  O   UNL     1      35.357 -25.597 -15.408  0.00  0.00    -0.374 OA
ATOM     34  H   UNL     1      35.675 -26.074 -14.625  0.00  0.00    +0.211 HD
ENDBRANCH  32  33
ENDBRANCH  31  32
ENDBRANCH  18  25
ENDBRANCH   1  23
TORSDOF 6
ENDMDL
