MODEL 1
REMARK VINA RESULT:     -11.2      0.000      0.000
REMARK  Name = 9547901
REMARK  4 active torsions:
REMARK  status: ('A' for Active; 'I' for Inactive)
REMARK    1  A    between atoms: N_3  and  C_17
REMARK    2  A    between atoms: C_6  and  C_11
REMARK    3  A    between atoms: C_18  and  O_23
REMARK    4  A    between atoms: C_21  and  O_25
REMARK                            x       y       z     vdW  Elec       q    Type
REMARK                         _______ _______ _______ _____ _____    ______ ____
ROOT
ATOM      1  O   UNL     1      34.438 -23.563 -16.284  0.00  0.00    -0.252 OA
ATOM      2  O   UNL     1      33.668 -22.591 -18.773  0.00  0.00    -0.270 OA
ATOM      3  N   UNL     1      36.137 -22.269 -15.305  0.00  0.00    -0.265 N 
ATOM      4  N   UNL     1      35.298 -21.697 -17.370  0.00  0.00    -0.236 N 
ATOM      5  C   UNL     1      35.215 -22.612 -16.301  0.00  0.00    +0.310 C 
ATOM      6  C   UNL     1      34.529 -21.725 -18.547  0.00  0.00    +0.253 C 
ATOM      7  H   UNL     1      36.688 -21.473 -15.481  0.00  0.00    +0.157 HD
ATOM      8  H   UNL     1      35.956 -20.970 -17.284  0.00  0.00    +0.159 HD
ENDROOT
BRANCH   6  11
ATOM      9 CL   UNL     1      32.073 -20.498 -19.933  0.00  0.00    -0.082 Cl
ATOM     10  F   UNL     1      35.563 -17.629 -22.203  0.00  0.00    -0.204 F 
ATOM     11  C   UNL     1      34.762 -20.652 -19.507  0.00  0.00    +0.064 C 
ATOM     12  C   UNL     1      33.717 -20.030 -20.188  0.00  0.00    +0.064 C 
ATOM     13  C   UNL     1      36.079 -20.253 -19.735  0.00  0.00    +0.008 C 
ATOM     14  C   UNL     1      33.987 -19.009 -21.098  0.00  0.00    +0.041 C 
ATOM     15  C   UNL     1      36.349 -19.231 -20.646  0.00  0.00    +0.030 C 
ATOM     16  C   UNL     1      35.303 -18.610 -21.328  0.00  0.00    +0.141 C 
ENDBRANCH   6  11
BRANCH   3  17
ATOM     17  C   UNL     1      36.370 -22.929 -14.076  0.00  0.00    +0.089 C 
ATOM     18  C   UNL     1      37.578 -23.572 -13.853  0.00  0.00    +0.152 C 
ATOM     19  C   UNL     1      35.372 -22.917 -13.113  0.00  0.00    +0.054 C 
ATOM     20  C   UNL     1      37.794 -24.218 -12.635  0.00  0.00    +0.041 C 
ATOM     21  C   UNL     1      35.588 -23.563 -11.896  0.00  0.00    +0.135 C 
ATOM     22  C   UNL     1      36.798 -24.214 -11.657  0.00  0.00    +0.040 C 
BRANCH  18  23
ATOM     23  O   UNL     1      38.562 -23.587 -14.795  0.00  0.00    -0.470 OA
ATOM     24  C   UNL     1      39.494 -24.665 -14.739  0.00  0.00    +0.253 C 
ENDBRANCH  18  23
BRANCH  21  25
ATOM     25  O   UNL     1      34.618 -23.560 -10.942  0.00  0.00    -0.505 OA
ATOM     26  H   UNL     1      34.072 -22.807 -10.832  0.00  0.00    +0.292 HD
ENDBRANCH  21  25
ENDBRANCH   3  17
TORSDOF 4
ENDMDL
MODEL 2
REMARK VINA RESULT:     -10.9      3.747      5.027
REMARK  Name = 9547901
REMARK  4 active torsions:
REMARK  status: ('A' for Active; 'I' for Inactive)
REMARK    1  A    between atoms: N_3  and  C_17
REMARK    2  A    between atoms: C_6  and  C_11
REMARK    3  A    between atoms: C_18  and  O_23
REMARK    4  A    between atoms: C_21  and  O_25
REMARK                            x       y       z     vdW  Elec       q    Type
REMARK                         _______ _______ _______ _____ _____    ______ ____
ROOT
ATOM      1  O   UNL     1      33.064 -23.794 -17.755  0.00  0.00    -0.252 OA
ATOM      2  O   UNL     1      34.690 -22.731 -19.744  0.00  0.00    -0.270 OA
ATOM      3  N   UNL     1      31.814 -22.143 -16.645  0.00  0.00    -0.265 N 
ATOM      4  N   UNL     1      33.248 -21.554 -18.344  0.00  0.00    -0.236 N 
ATOM      5  C   UNL     1      32.731 -22.624 -17.586  0.00  0.00    +0.310 C 
ATOM      6  C   UNL     1      34.196 -21.652 -19.380  0.00  0.00    +0.253 C 
ATOM      7  H   UNL     1      31.664 -21.170 -16.643  0.00  0.00    +0.157 HD
ATOM      8  H   UNL     1      32.916 -20.653 -18.128  0.00  0.00    +0.159 HD
ENDROOT
BRANCH   6  11
ATOM      9 CL   UNL     1      31.945 -20.040 -20.719  0.00  0.00    -0.082 Cl
ATOM     10  F   UNL     1      35.739 -16.921 -21.919  0.00  0.00    -0.204 F 
ATOM     11  C   UNL     1      34.563 -20.411 -20.050  0.00  0.00    +0.064 C 
ATOM     12  C   UNL     1      33.617 -19.608 -20.687  0.00  0.00    +0.064 C 
ATOM     13  C   UNL     1      35.906 -20.035 -20.044  0.00  0.00    +0.008 C 
ATOM     14  C   UNL     1      34.014 -18.429 -21.318  0.00  0.00    +0.041 C 
ATOM     15  C   UNL     1      36.303 -18.856 -20.675  0.00  0.00    +0.030 C 
ATOM     16  C   UNL     1      35.357 -18.053 -21.312  0.00  0.00    +0.141 C 
ENDBRANCH   6  11
BRANCH   3  17
ATOM     17  C   UNL     1      31.076 -22.888 -15.695  0.00  0.00    +0.089 C 
ATOM     18  C   UNL     1      29.693 -22.944 -15.781  0.00  0.00    +0.152 C 
ATOM     19  C   UNL     1      31.762 -23.552 -14.690  0.00  0.00    +0.054 C 
ATOM     20  C   UNL     1      28.979 -23.684 -14.838  0.00  0.00    +0.041 C 
ATOM     21  C   UNL     1      31.048 -24.291 -13.747  0.00  0.00    +0.135 C 
ATOM     22  C   UNL     1      29.656 -24.357 -13.821  0.00  0.00    +0.040 C 
BRANCH  18  23
ATOM     23  O   UNL     1      29.013 -22.294 -16.767  0.00  0.00    -0.470 OA
ATOM     24  C   UNL     1      27.592 -22.253 -16.654  0.00  0.00    +0.253 C 
ENDBRANCH  18  23
BRANCH  21  25
ATOM     25  O   UNL     1      31.708 -24.948 -12.755  0.00  0.00    -0.505 OA
ATOM     26  H   UNL     1      32.492 -25.422 -12.947  0.00  0.00    +0.292 HD
ENDBRANCH  21  25
ENDBRANCH   3  17
TORSDOF 4
ENDMDL
MODEL 3
REMARK VINA RESULT:     -10.6      1.343      1.779
REMARK  Name = 9547901
REMARK  4 active torsions:
REMARK  status: ('A' for Active; 'I' for Inactive)
REMARK    1  A    between atoms: N_3  and  C_17
REMARK    2  A    between atoms: C_6  and  C_11
REMARK    3  A    between atoms: C_18  and  O_23
REMARK    4  A    between atoms: C_21  and  O_25
REMARK                            x       y       z     vdW  Elec       q    Type
REMARK                         _______ _______ _______ _____ _____    ______ ____
ROOT
ATOM      1  O   UNL     1      33.911 -23.904 -15.460  0.00  0.00    -0.252 OA
ATOM      2  O   UNL     1      32.688 -23.142 -17.838  0.00  0.00    -0.270 OA
ATOM      3  N   UNL     1      35.792 -22.588 -14.960  0.00  0.00    -0.265 N 
ATOM      4  N   UNL     1      34.577 -22.182 -16.871  0.00  0.00    -0.236 N 
ATOM      5  C   UNL     1      34.688 -22.989 -15.721  0.00  0.00    +0.310 C 
ATOM      6  C   UNL     1      33.593 -22.291 -17.870  0.00  0.00    +0.253 C 
ATOM      7  H   UNL     1      36.314 -21.834 -15.317  0.00  0.00    +0.157 HD
ATOM      8  H   UNL     1      35.253 -21.476 -16.987  0.00  0.00    +0.159 HD
ENDROOT
BRANCH   6  11
ATOM      9 CL   UNL     1      36.371 -21.281 -18.719  0.00  0.00    -0.082 Cl
ATOM     10  F   UNL     1      33.686 -18.583 -22.047  0.00  0.00    -0.204 F 
ATOM     11  C   UNL     1      33.654 -21.324 -18.958  0.00  0.00    +0.064 C 
ATOM     12  C   UNL     1      34.864 -20.805 -19.418  0.00  0.00    +0.064 C 
ATOM     13  C   UNL     1      32.455 -20.918 -19.543  0.00  0.00    +0.008 C 
ATOM     14  C   UNL     1      34.875 -19.879 -20.461  0.00  0.00    +0.041 C 
ATOM     15  C   UNL     1      32.466 -19.992 -20.586  0.00  0.00    +0.030 C 
ATOM     16  C   UNL     1      33.676 -19.473 -21.045  0.00  0.00    +0.141 C 
ENDBRANCH   6  11
BRANCH   3  17
ATOM     17  C   UNL     1      36.249 -23.138 -13.740  0.00  0.00    +0.089 C 
ATOM     18  C   UNL     1      37.531 -23.658 -13.650  0.00  0.00    +0.152 C 
ATOM     19  C   UNL     1      35.392 -23.146 -12.650  0.00  0.00    +0.054 C 
ATOM     20  C   UNL     1      37.968 -24.196 -12.439  0.00  0.00    +0.041 C 
ATOM     21  C   UNL     1      35.828 -23.684 -11.440  0.00  0.00    +0.135 C 
ATOM     22  C   UNL     1      37.116 -24.210 -11.334  0.00  0.00    +0.040 C 
BRANCH  18  23
ATOM     23  O   UNL     1      38.379 -23.653 -14.717  0.00  0.00    -0.470 OA
ATOM     24  C   UNL     1      39.433 -24.613 -14.709  0.00  0.00    +0.253 C 
ENDBRANCH  18  23
BRANCH  21  25
ATOM     25  O   UNL     1      34.998 -23.698 -10.362  0.00  0.00    -0.505 OA
ATOM     26  H   UNL     1      34.381 -23.004 -10.236  0.00  0.00    +0.292 HD
ENDBRANCH  21  25
ENDBRANCH   3  17
TORSDOF 4
ENDMDL
MODEL 4
REMARK VINA RESULT:     -10.3      3.059      3.921
REMARK  Name = 9547901
REMARK  4 active torsions:
REMARK  status: ('A' for Active; 'I' for Inactive)
REMARK    1  A    between atoms: N_3  and  C_17
REMARK    2  A    between atoms: C_6  and  C_11
REMARK    3  A    between atoms: C_18  and  O_23
REMARK    4  A    between atoms: C_21  and  O_25
REMARK                            x       y       z     vdW  Elec       q    Type
REMARK                         _______ _______ _______ _____ _____    ______ ____
ROOT
ATOM      1  O   UNL     1      33.060 -24.046 -17.769  0.00  0.00    -0.252 OA
ATOM      2  O   UNL     1      34.437 -22.933 -19.914  0.00  0.00    -0.270 OA
ATOM      3  N   UNL     1      32.231 -22.414 -16.296  0.00  0.00    -0.265 N 
ATOM      4  N   UNL     1      33.412 -21.783 -18.167  0.00  0.00    -0.236 N 
ATOM      5  C   UNL     1      32.907 -22.874 -17.432  0.00  0.00    +0.310 C 
ATOM      6  C   UNL     1      34.148 -21.858 -19.364  0.00  0.00    +0.253 C 
ATOM      7  H   UNL     1      32.203 -21.438 -16.174  0.00  0.00    +0.157 HD
ATOM      8  H   UNL     1      33.234 -20.884 -17.809  0.00  0.00    +0.159 HD
ENDROOT
BRANCH   6  11
ATOM      9 CL   UNL     1      31.931 -20.121 -20.597  0.00  0.00    -0.082 Cl
ATOM     10  F   UNL     1      35.795 -17.038 -21.657  0.00  0.00    -0.204 F 
ATOM     11  C   UNL     1      34.542 -20.593 -19.970  0.00  0.00    +0.064 C 
ATOM     12  C   UNL     1      33.613 -19.733 -20.555  0.00  0.00    +0.064 C 
ATOM     13  C   UNL     1      35.895 -20.252 -19.953  0.00  0.00    +0.008 C 
ATOM     14  C   UNL     1      34.037 -18.532 -21.125  0.00  0.00    +0.041 C 
ATOM     15  C   UNL     1      36.318 -19.051 -20.523  0.00  0.00    +0.030 C 
ATOM     16  C   UNL     1      35.388 -18.191 -21.109  0.00  0.00    +0.141 C 
ENDBRANCH   6  11
BRANCH   3  17
ATOM     17  C   UNL     1      31.583 -23.184 -15.302  0.00  0.00    +0.089 C 
ATOM     18  C   UNL     1      32.287 -23.610 -14.186  0.00  0.00    +0.152 C 
ATOM     19  C   UNL     1      30.243 -23.498 -15.471  0.00  0.00    +0.054 C 
ATOM     20  C   UNL     1      31.634 -24.368 -13.214  0.00  0.00    +0.041 C 
ATOM     21  C   UNL     1      29.590 -24.256 -14.499  0.00  0.00    +0.135 C 
ATOM     22  C   UNL     1      30.286 -24.692 -13.371  0.00  0.00    +0.040 C 
BRANCH  18  23
ATOM     23  O   UNL     1      33.604 -23.304 -14.015  0.00  0.00    -0.470 OA
ATOM     24  C   UNL     1      34.552 -24.311 -14.364  0.00  0.00    +0.253 C 
ENDBRANCH  18  23
BRANCH  21  25
ATOM     25  O   UNL     1      28.275 -24.572 -14.651  0.00  0.00    -0.505 OA
ATOM     26  H   UNL     1      27.656 -23.906 -14.874  0.00  0.00    +0.292 HD
ENDBRANCH  21  25
ENDBRANCH   3  17
TORSDOF 4
ENDMDL
MODEL 5
REMARK VINA RESULT:     -10.2      4.384      9.349
REMARK  Name = 9547901
REMARK  4 active torsions:
REMARK  status: ('A' for Active; 'I' for Inactive)
REMARK    1  A    between atoms: N_3  and  C_17
REMARK    2  A    between atoms: C_6  and  C_11
REMARK    3  A    between atoms: C_18  and  O_23
REMARK    4  A    between atoms: C_21  and  O_25
REMARK                            x       y       z     vdW  Elec       q    Type
REMARK                         _______ _______ _______ _____ _____    ______ ____
ROOT
ATOM      1  O   UNL     1      34.268 -19.400 -22.089  0.00  0.00    -0.252 OA
ATOM      2  O   UNL     1      34.603 -21.686 -20.542  0.00  0.00    -0.270 OA
ATOM      3  N   UNL     1      34.610 -17.428 -20.858  0.00  0.00    -0.265 N 
ATOM      4  N   UNL     1      34.824 -19.478 -19.834  0.00  0.00    -0.236 N 
ATOM      5  C   UNL     1      34.539 -18.814 -21.044  0.00  0.00    +0.310 C 
ATOM      6  C   UNL     1      34.844 -20.870 -19.637  0.00  0.00    +0.253 C 
ATOM      7  H   UNL     1      34.839 -17.125 -19.950  0.00  0.00    +0.157 HD
ATOM      8  H   UNL     1      35.027 -18.914 -19.053  0.00  0.00    +0.159 HD
ENDROOT
BRANCH   6  11
ATOM      9 CL   UNL     1      32.695 -22.388 -18.044  0.00  0.00    -0.082 Cl
ATOM     10  F   UNL     1      36.330 -22.599 -14.537  0.00  0.00    -0.204 F 
ATOM     11  C   UNL     1      35.198 -21.337 -18.302  0.00  0.00    +0.064 C 
ATOM     12  C   UNL     1      34.296 -22.035 -17.500  0.00  0.00    +0.064 C 
ATOM     13  C   UNL     1      36.483 -21.066 -17.833  0.00  0.00    +0.008 C 
ATOM     14  C   UNL     1      34.678 -22.461 -16.228  0.00  0.00    +0.041 C 
ATOM     15  C   UNL     1      36.865 -21.492 -16.561  0.00  0.00    +0.030 C 
ATOM     16  C   UNL     1      35.962 -22.190 -15.758  0.00  0.00    +0.141 C 
ENDBRANCH   6  11
BRANCH   3  17
ATOM     17  C   UNL     1      34.392 -16.413 -21.818  0.00  0.00    +0.089 C 
ATOM     18  C   UNL     1      34.053 -15.132 -21.408  0.00  0.00    +0.152 C 
ATOM     19  C   UNL     1      34.525 -16.726 -23.162  0.00  0.00    +0.054 C 
ATOM     20  C   UNL     1      33.842 -14.141 -22.366  0.00  0.00    +0.041 C 
ATOM     21  C   UNL     1      34.315 -15.735 -24.120  0.00  0.00    +0.135 C 
ATOM     22  C   UNL     1      33.972 -14.442 -23.722  0.00  0.00    +0.040 C 
BRANCH  18  23
ATOM     23  O   UNL     1      33.921 -14.818 -20.088  0.00  0.00    -0.470 OA
ATOM     24  C   UNL     1      32.730 -14.135 -19.702  0.00  0.00    +0.253 C 
ENDBRANCH  18  23
BRANCH  21  25
ATOM     25  O   UNL     1      34.441 -16.028 -25.442  0.00  0.00    -0.505 OA
ATOM     26  H   UNL     1      33.734 -15.851 -26.031  0.00  0.00    +0.292 HD
ENDBRANCH  21  25
ENDBRANCH   3  17
TORSDOF 4
ENDMDL
MODEL 6
REMARK VINA RESULT:     -10.1     11.232     15.400
REMARK  Name = 9547901
REMARK  4 active torsions:
REMARK  status: ('A' for Active; 'I' for Inactive)
REMARK    1  A    between atoms: N_3  and  C_17
REMARK    2  A    between atoms: C_6  and  C_11
REMARK    3  A    between atoms: C_18  and  O_23
REMARK    4  A    between atoms: C_21  and  O_25
REMARK                            x       y       z     vdW  Elec       q    Type
REMARK                         _______ _______ _______ _____ _____    ______ ____
ROOT
ATOM      1  O   UNL     1      30.747  -9.383 -22.215  0.00  0.00    -0.252 OA
ATOM      2  O   UNL     1      30.810 -12.119 -21.725  0.00  0.00    -0.270 OA
ATOM      3  N   UNL     1      32.798  -8.573 -23.027  0.00  0.00    -0.265 N 
ATOM      4  N   UNL     1      32.555 -10.807 -22.535  0.00  0.00    -0.236 N 
ATOM      5  C   UNL     1      31.913  -9.552 -22.562  0.00  0.00    +0.310 C 
ATOM      6  C   UNL     1      31.983 -12.024 -22.123  0.00  0.00    +0.253 C 
ATOM      7  H   UNL     1      33.702  -8.881 -23.261  0.00  0.00    +0.157 HD
ATOM      8  H   UNL     1      33.493 -10.834 -22.833  0.00  0.00    +0.159 HD
ENDROOT
BRANCH   6  11
ATOM      9 CL   UNL     1      32.680 -13.066 -24.931  0.00  0.00    -0.082 Cl
ATOM     10  F   UNL     1      35.223 -16.570 -22.320  0.00  0.00    -0.204 F 
ATOM     11  C   UNL     1      32.828 -13.208 -22.211  0.00  0.00    +0.064 C 
ATOM     12  C   UNL     1      33.201 -13.759 -23.437  0.00  0.00    +0.064 C 
ATOM     13  C   UNL     1      33.264 -13.792 -21.022  0.00  0.00    +0.008 C 
ATOM     14  C   UNL     1      34.010 -14.895 -23.474  0.00  0.00    +0.041 C 
ATOM     15  C   UNL     1      34.073 -14.928 -21.059  0.00  0.00    +0.030 C 
ATOM     16  C   UNL     1      34.446 -15.479 -22.285  0.00  0.00    +0.141 C 
ENDBRANCH   6  11
BRANCH   3  17
ATOM     17  C   UNL     1      32.546  -7.192 -23.202  0.00  0.00    +0.089 C 
ATOM     18  C   UNL     1      32.617  -6.331 -22.117  0.00  0.00    +0.152 C 
ATOM     19  C   UNL     1      32.230  -6.726 -24.469  0.00  0.00    +0.054 C 
ATOM     20  C   UNL     1      32.368  -4.972 -22.305  0.00  0.00    +0.041 C 
ATOM     21  C   UNL     1      31.980  -5.368 -24.657  0.00  0.00    +0.135 C 
ATOM     22  C   UNL     1      32.048  -4.490 -23.575  0.00  0.00    +0.040 C 
BRANCH  18  23
ATOM     23  O   UNL     1      32.927  -6.782 -20.869  0.00  0.00    -0.470 OA
ATOM     24  C   UNL     1      31.865  -6.840 -19.920  0.00  0.00    +0.253 C 
ENDBRANCH  18  23
BRANCH  21  25
ATOM     25  O   UNL     1      31.669  -4.897 -25.895  0.00  0.00    -0.505 OA
ATOM     26  H   UNL     1      32.349  -4.726 -26.516  0.00  0.00    +0.292 HD
ENDBRANCH  21  25
ENDBRANCH   3  17
TORSDOF 4
ENDMDL
MODEL 7
REMARK VINA RESULT:     -10.1      1.337      2.380
REMARK  Name = 9547901
REMARK  4 active torsions:
REMARK  status: ('A' for Active; 'I' for Inactive)
REMARK    1  A    between atoms: N_3  and  C_17
REMARK    2  A    between atoms: C_6  and  C_11
REMARK    3  A    between atoms: C_18  and  O_23
REMARK    4  A    between atoms: C_21  and  O_25
REMARK                            x       y       z     vdW  Elec       q    Type
REMARK                         _______ _______ _______ _____ _____    ______ ____
ROOT
ATOM      1  O   UNL     1      34.178 -23.640 -16.570  0.00  0.00    -0.252 OA
ATOM      2  O   UNL     1      33.822 -22.705 -19.164  0.00  0.00    -0.270 OA
ATOM      3  N   UNL     1      35.392 -22.134 -15.236  0.00  0.00    -0.265 N 
ATOM      4  N   UNL     1      34.942 -21.622 -17.433  0.00  0.00    -0.236 N 
ATOM      5  C   UNL     1      34.777 -22.579 -16.412  0.00  0.00    +0.310 C 
ATOM      6  C   UNL     1      34.463 -21.724 -18.752  0.00  0.00    +0.253 C 
ATOM      7  H   UNL     1      35.833 -21.256 -15.283  0.00  0.00    +0.157 HD
ATOM      8  H   UNL     1      35.440 -20.805 -17.202  0.00  0.00    +0.159 HD
ENDROOT
BRANCH   6  11
ATOM      9 CL   UNL     1      32.052 -20.431 -20.157  0.00  0.00    -0.082 Cl
ATOM     10  F   UNL     1      35.603 -17.402 -22.102  0.00  0.00    -0.204 F 
ATOM     11  C   UNL     1      34.724 -20.593 -19.632  0.00  0.00    +0.064 C 
ATOM     12  C   UNL     1      33.700 -19.937 -20.316  0.00  0.00    +0.064 C 
ATOM     13  C   UNL     1      36.045 -20.170 -19.783  0.00  0.00    +0.008 C 
ATOM     14  C   UNL     1      33.997 -18.859 -21.150  0.00  0.00    +0.041 C 
ATOM     15  C   UNL     1      36.341 -19.092 -20.617  0.00  0.00    +0.030 C 
ATOM     16  C   UNL     1      35.317 -18.437 -21.300  0.00  0.00    +0.141 C 
ENDBRANCH   6  11
BRANCH   3  17
ATOM     17  C   UNL     1      35.455 -22.797 -13.987  0.00  0.00    +0.089 C 
ATOM     18  C   UNL     1      34.288 -23.203 -13.359  0.00  0.00    +0.152 C 
ATOM     19  C   UNL     1      36.697 -23.024 -13.415  0.00  0.00    +0.054 C 
ATOM     20  C   UNL     1      34.366 -23.856 -12.128  0.00  0.00    +0.041 C 
ATOM     21  C   UNL     1      36.775 -23.676 -12.185  0.00  0.00    +0.135 C 
ATOM     22  C   UNL     1      35.609 -24.092 -11.541  0.00  0.00    +0.040 C 
BRANCH  18  23
ATOM     23  O   UNL     1      33.064 -22.983 -13.916  0.00  0.00    -0.470 OA
ATOM     24  C   UNL     1      32.079 -23.999 -13.738  0.00  0.00    +0.253 C 
ENDBRANCH  18  23
BRANCH  21  25
ATOM     25  O   UNL     1      37.987 -23.907 -11.612  0.00  0.00    -0.505 OA
ATOM     26  H   UNL     1      38.188 -23.535 -10.775  0.00  0.00    +0.292 HD
ENDBRANCH  21  25
ENDBRANCH   3  17
TORSDOF 4
ENDMDL
MODEL 8
REMARK VINA RESULT:     -10.1      3.775      8.324
REMARK  Name = 9547901
REMARK  4 active torsions:
REMARK  status: ('A' for Active; 'I' for Inactive)
REMARK    1  A    between atoms: N_3  and  C_17
REMARK    2  A    between atoms: C_6  and  C_11
REMARK    3  A    between atoms: C_18  and  O_23
REMARK    4  A    between atoms: C_21  and  O_25
REMARK                            x       y       z     vdW  Elec       q    Type
REMARK                         _______ _______ _______ _____ _____    ______ ____
ROOT
ATOM      1  O   UNL     1      36.860 -19.843 -17.230  0.00  0.00    -0.252 OA
ATOM      2  O   UNL     1      37.528 -21.295 -14.954  0.00  0.00    -0.270 OA
ATOM      3  N   UNL     1      35.750 -21.154 -18.833  0.00  0.00    -0.265 N 
ATOM      4  N   UNL     1      36.422 -22.092 -16.842  0.00  0.00    -0.236 N 
ATOM      5  C   UNL     1      36.387 -20.911 -17.610  0.00  0.00    +0.310 C 
ATOM      6  C   UNL     1      36.985 -22.233 -15.561  0.00  0.00    +0.253 C 
ATOM      7  H   UNL     1      35.430 -22.073 -18.980  0.00  0.00    +0.157 HD
ATOM      8  H   UNL     1      36.015 -22.895 -17.241  0.00  0.00    +0.159 HD
ENDROOT
BRANCH   6  11
ATOM      9 CL   UNL     1      34.163 -23.384 -15.151  0.00  0.00    -0.082 Cl
ATOM     10  F   UNL     1      36.712 -27.271 -13.163  0.00  0.00    -0.204 F 
ATOM     11  C   UNL     1      36.877 -23.546 -14.939  0.00  0.00    +0.064 C 
ATOM     12  C   UNL     1      35.644 -24.156 -14.710  0.00  0.00    +0.064 C 
ATOM     13  C   UNL     1      38.055 -24.195 -14.570  0.00  0.00    +0.008 C 
ATOM     14  C   UNL     1      35.588 -25.414 -14.110  0.00  0.00    +0.041 C 
ATOM     15  C   UNL     1      37.999 -25.453 -13.970  0.00  0.00    +0.030 C 
ATOM     16  C   UNL     1      36.765 -26.063 -13.740  0.00  0.00    +0.141 C 
ENDBRANCH   6  11
BRANCH   3  17
ATOM     17  C   UNL     1      35.511 -20.237 -19.883  0.00  0.00    +0.089 C 
ATOM     18  C   UNL     1      34.251 -20.149 -20.453  0.00  0.00    +0.152 C 
ATOM     19  C   UNL     1      36.557 -19.439 -20.322  0.00  0.00    +0.054 C 
ATOM     20  C   UNL     1      34.030 -19.239 -21.488  0.00  0.00    +0.041 C 
ATOM     21  C   UNL     1      36.336 -18.529 -21.355  0.00  0.00    +0.135 C 
ATOM     22  C   UNL     1      35.073 -18.430 -21.939  0.00  0.00    +0.040 C 
BRANCH  18  23
ATOM     23  O   UNL     1      33.219 -20.930 -20.027  0.00  0.00    -0.470 OA
ATOM     24  C   UNL     1      32.036 -20.260 -19.596  0.00  0.00    +0.253 C 
ENDBRANCH  18  23
BRANCH  21  25
ATOM     25  O   UNL     1      37.353 -17.740 -21.797  0.00  0.00    -0.505 OA
ATOM     26  H   UNL     1      38.203 -17.811 -21.410  0.00  0.00    +0.292 HD
ENDBRANCH  21  25
ENDBRANCH   3  17
TORSDOF 4
ENDMDL
MODEL 9
REMARK VINA RESULT:      -9.9      3.758      8.829
REMARK  Name = 9547901
REMARK  4 active torsions:
REMARK  status: ('A' for Active; 'I' for Inactive)
REMARK    1  A    between atoms: N_3  and  C_17
REMARK    2  A    between atoms: C_6  and  C_11
REMARK    3  A    between atoms: C_18  and  O_23
REMARK    4  A    between atoms: C_21  and  O_25
REMARK                            x       y       z     vdW  Elec       q    Type
REMARK                         _______ _______ _______ _____ _____    ______ ____
ROOT
ATOM      1  O   UNL     1      32.882 -20.534 -20.456  0.00  0.00    -0.252 OA
ATOM      2  O   UNL     1      33.076 -22.242 -18.271  0.00  0.00    -0.270 OA
ATOM      3  N   UNL     1      34.732 -19.097 -20.635  0.00  0.00    -0.265 N 
ATOM      4  N   UNL     1      34.622 -20.626 -18.919  0.00  0.00    -0.236 N 
ATOM      5  C   UNL     1      33.967 -20.118 -20.059  0.00  0.00    +0.310 C 
ATOM      6  C   UNL     1      34.154 -21.655 -18.083  0.00  0.00    +0.253 C 
ATOM      7  H   UNL     1      35.582 -18.886 -20.185  0.00  0.00    +0.157 HD
ATOM      8  H   UNL     1      35.489 -20.222 -18.685  0.00  0.00    +0.159 HD
ENDROOT
BRANCH   6  11
ATOM      9 CL   UNL     1      32.865 -23.172 -15.738  0.00  0.00    -0.082 Cl
ATOM     10  F   UNL     1      37.573 -23.073 -13.899  0.00  0.00    -0.204 F 
ATOM     11  C   UNL     1      35.017 -22.042 -16.974  0.00  0.00    +0.064 C 
ATOM     12  C   UNL     1      34.531 -22.732 -15.864  0.00  0.00    +0.064 C 
ATOM     13  C   UNL     1      36.368 -21.700 -17.045  0.00  0.00    +0.008 C 
ATOM     14  C   UNL     1      35.394 -23.081 -14.826  0.00  0.00    +0.041 C 
ATOM     15  C   UNL     1      37.231 -22.048 -16.007  0.00  0.00    +0.030 C 
ATOM     16  C   UNL     1      36.743 -22.739 -14.896  0.00  0.00    +0.141 C 
ENDBRANCH   6  11
BRANCH   3  17
ATOM     17  C   UNL     1      34.431 -18.333 -21.787  0.00  0.00    +0.089 C 
ATOM     18  C   UNL     1      34.447 -16.948 -21.723  0.00  0.00    +0.152 C 
ATOM     19  C   UNL     1      34.121 -18.995 -22.964  0.00  0.00    +0.054 C 
ATOM     20  C   UNL     1      34.149 -16.207 -22.867  0.00  0.00    +0.041 C 
ATOM     21  C   UNL     1      33.823 -18.256 -24.108  0.00  0.00    +0.135 C 
ATOM     22  C   UNL     1      33.835 -16.861 -24.059  0.00  0.00    +0.040 C 
BRANCH  18  23
ATOM     23  O   UNL     1      34.751 -16.291 -20.569  0.00  0.00    -0.470 OA
ATOM     24  C   UNL     1      34.073 -15.060 -20.328  0.00  0.00    +0.253 C 
ENDBRANCH  18  23
BRANCH  21  25
ATOM     25  O   UNL     1      33.517 -18.892 -25.271  0.00  0.00    -0.505 OA
ATOM     26  H   UNL     1      33.710 -18.486 -26.092  0.00  0.00    +0.292 HD
ENDBRANCH  21  25
ENDBRANCH   3  17
TORSDOF 4
ENDMDL
