MODEL 1
REMARK VINA RESULT:     -13.0      0.000      0.000
REMARK  Name = 135565884
REMARK  6 active torsions:
REMARK  status: ('A' for Active; 'I' for Inactive)
REMARK    1  A    between atoms: C_4  and  C_13
REMARK    2  A    between atoms: C_8  and  C_36
REMARK    3  A    between atoms: C_9  and  C_21
REMARK    4  A    between atoms: C_18  and  C_19
REMARK    5  A    between atoms: C_26  and  O_27
REMARK    6  A    between atoms: O_27  and  C_28
REMARK                            x       y       z     vdW  Elec       q    Type
REMARK                         _______ _______ _______ _____ _____    ______ ____
ROOT
ATOM      1  N   UNL     1      34.331 -23.213 -14.681  0.00  0.00    -0.240 N 
ATOM      2  N   UNL     1      36.336 -23.051 -13.438  0.00  0.00    -0.318 N 
ATOM      3  N   UNL     1      33.782 -22.922 -15.875  0.00  0.00    -0.168 NA
ATOM      4  C   UNL     1      33.603 -23.963 -13.663  0.00  0.00    +0.108 C 
ATOM      5  C   UNL     1      34.288 -23.770 -12.297  0.00  0.00    +0.046 C 
ATOM      6  C   UNL     1      35.803 -23.940 -12.418  0.00  0.00    +0.090 C 
ATOM      7  C   UNL     1      35.630 -22.795 -14.557  0.00  0.00    +0.131 A 
ATOM      8  C   UNL     1      35.928 -22.136 -15.725  0.00  0.00    +0.103 A 
ATOM      9  C   UNL     1      34.755 -22.250 -16.499  0.00  0.00    +0.108 A 
ATOM     10  H   UNL     1      37.219 -22.634 -13.310  0.00  0.00    +0.148 HD
ENDROOT
BRANCH   4  13
ATOM     11  O   UNL     1      28.498 -21.615 -16.346  0.00  0.00    -0.270 OA
ATOM     12  N   UNL     1      29.554 -22.988 -14.794  0.00  0.00    -0.276 N 
ATOM     13  C   UNL     1      32.128 -23.579 -13.572  0.00  0.00    +0.026 C 
ATOM     14  C   UNL     1      31.862 -22.256 -14.302  0.00  0.00    +0.023 C 
ATOM     15  C   UNL     1      31.237 -24.685 -14.152  0.00  0.00    +0.023 C 
ATOM     16  C   UNL     1      30.379 -21.899 -14.264  0.00  0.00    +0.094 C 
ATOM     17  C   UNL     1      29.760 -24.288 -14.137  0.00  0.00    +0.094 C 
ATOM     18  C   UNL     1      28.648 -22.717 -15.816  0.00  0.00    +0.249 C 
BRANCH  18  19
ATOM     19  C   UNL     1      27.800 -23.827 -16.297  0.00  0.00    +0.058 C 
ATOM     20  C   UNL     1      27.056 -23.641 -17.389  0.00  0.00    +0.005 C 
ENDBRANCH  18  19
ENDBRANCH   4  13
BRANCH   9  21
ATOM     21  C   UNL     1      34.538 -21.736 -17.828  0.00  0.00    +0.020 C 
ATOM     22  C   UNL     1      35.624 -21.337 -18.608  0.00  0.00    +0.005 C 
ATOM     23  C   UNL     1      33.242 -21.636 -18.334  0.00  0.00    +0.005 C 
ATOM     24  C   UNL     1      35.414 -20.837 -19.894  0.00  0.00    +0.038 C 
ATOM     25  C   UNL     1      33.032 -21.137 -19.619  0.00  0.00    +0.038 C 
ATOM     26  C   UNL     1      34.117 -20.737 -20.398  0.00  0.00    +0.145 C 
BRANCH  26  27
ATOM     27  O   UNL     1      33.911 -20.251 -21.653  0.00  0.00    -0.453 OA
BRANCH  27  28
ATOM     28  C   UNL     1      34.174 -18.911 -21.875  0.00  0.00    +0.145 C 
ATOM     29  C   UNL     1      34.067 -18.382 -23.162  0.00  0.00    +0.037 C 
ATOM     30  C   UNL     1      34.549 -18.087 -20.813  0.00  0.00    +0.037 C 
ATOM     31  C   UNL     1      34.333 -17.031 -23.386  0.00  0.00    +0.003 C 
ATOM     32  C   UNL     1      34.816 -16.737 -21.038  0.00  0.00    +0.003 C 
ATOM     33  C   UNL     1      34.708 -16.208 -22.324  0.00  0.00    +0.000 C 
ENDBRANCH  27  28
ENDBRANCH  26  27
ENDBRANCH   9  21
BRANCH   8  36
ATOM     34  O   UNL     1      38.269 -22.102 -15.980  0.00  0.00    -0.270 OA
ATOM     35  N   UNL     1      37.151 -20.152 -16.434  0.00  0.00    -0.325 N 
ATOM     36  C   UNL     1      37.172 -21.496 -16.036  0.00  0.00    +0.247 C 
ATOM     37  H   UNL     1      37.993 -19.690 -16.653  0.00  0.00    +0.145 HD
ATOM     38  H   UNL     1      36.295 -19.670 -16.494  0.00  0.00    +0.145 HD
ENDBRANCH   8  36
TORSDOF 6
ENDMDL
MODEL 2
REMARK VINA RESULT:     -11.6     11.526     17.710
REMARK  Name = 135565884
REMARK  6 active torsions:
REMARK  status: ('A' for Active; 'I' for Inactive)
REMARK    1  A    between atoms: C_4  and  C_13
REMARK    2  A    between atoms: C_8  and  C_36
REMARK    3  A    between atoms: C_9  and  C_21
REMARK    4  A    between atoms: C_18  and  C_19
REMARK    5  A    between atoms: C_26  and  O_27
REMARK    6  A    between atoms: O_27  and  C_28
REMARK                            x       y       z     vdW  Elec       q    Type
REMARK                         _______ _______ _______ _____ _____    ______ ____
ROOT
ATOM      1  N   UNL     1      31.728  -5.609 -23.581  0.00  0.00    -0.240 N 
ATOM      2  N   UNL     1      31.567  -3.967 -21.887  0.00  0.00    -0.318 N 
ATOM      3  N   UNL     1      31.760  -6.938 -23.787  0.00  0.00    -0.168 NA
ATOM      4  C   UNL     1      31.707  -4.660 -24.690  0.00  0.00    +0.108 C 
ATOM      5  C   UNL     1      32.101  -3.263 -24.174  0.00  0.00    +0.046 C 
ATOM      6  C   UNL     1      31.355  -2.928 -22.882  0.00  0.00    +0.090 C 
ATOM      7  C   UNL     1      31.654  -5.260 -22.258  0.00  0.00    +0.131 A 
ATOM      8  C   UNL     1      31.702  -6.438 -21.553  0.00  0.00    +0.103 A 
ATOM      9  C   UNL     1      31.762  -7.437 -22.546  0.00  0.00    +0.108 A 
ATOM     10  H   UNL     1      31.646  -3.724 -20.936  0.00  0.00    +0.148 HD
ENDROOT
BRANCH   4  13
ATOM     11  O   UNL     1      35.697  -3.070 -29.198  0.00  0.00    -0.270 OA
ATOM     12  N   UNL     1      34.842  -4.584 -27.653  0.00  0.00    -0.276 N 
ATOM     13  C   UNL     1      32.611  -5.069 -25.849  0.00  0.00    +0.026 C 
ATOM     14  C   UNL     1      32.520  -4.055 -26.998  0.00  0.00    +0.023 C 
ATOM     15  C   UNL     1      34.068  -5.205 -25.386  0.00  0.00    +0.023 C 
ATOM     16  C   UNL     1      33.468  -4.430 -28.134  0.00  0.00    +0.094 C 
ATOM     17  C   UNL     1      35.002  -5.543 -26.549  0.00  0.00    +0.094 C 
ATOM     18  C   UNL     1      35.863  -3.866 -28.273  0.00  0.00    +0.249 C 
BRANCH  18  19
ATOM     19  C   UNL     1      37.243  -4.079 -27.794  0.00  0.00    +0.058 C 
ATOM     20  C   UNL     1      37.744  -3.242 -26.883  0.00  0.00    +0.005 C 
ENDBRANCH  18  19
ENDBRANCH   4  13
BRANCH   9  21
ATOM     21  C   UNL     1      31.818  -8.862 -22.341  0.00  0.00    +0.020 C 
ATOM     22  C   UNL     1      32.723  -9.638 -23.066  0.00  0.00    +0.005 C 
ATOM     23  C   UNL     1      30.964  -9.467 -21.419  0.00  0.00    +0.005 C 
ATOM     24  C   UNL     1      32.774 -11.018 -22.868  0.00  0.00    +0.038 C 
ATOM     25  C   UNL     1      31.016 -10.846 -21.221  0.00  0.00    +0.038 C 
ATOM     26  C   UNL     1      31.920 -11.622 -21.946  0.00  0.00    +0.145 C 
BRANCH  26  27
ATOM     27  O   UNL     1      31.970 -12.968 -21.751  0.00  0.00    -0.453 OA
BRANCH  27  28
ATOM     28  C   UNL     1      32.747 -13.716 -22.619  0.00  0.00    +0.145 C 
ATOM     29  C   UNL     1      33.788 -14.500 -22.123  0.00  0.00    +0.037 C 
ATOM     30  C   UNL     1      32.491 -13.683 -23.990  0.00  0.00    +0.037 C 
ATOM     31  C   UNL     1      34.573 -15.253 -22.997  0.00  0.00    +0.003 C 
ATOM     32  C   UNL     1      33.276 -14.436 -24.864  0.00  0.00    +0.003 C 
ATOM     33  C   UNL     1      34.316 -15.221 -24.368  0.00  0.00    +0.000 C 
ENDBRANCH  27  28
ENDBRANCH  26  27
ENDBRANCH   9  21
BRANCH   8  36
ATOM     34  O   UNL     1      30.618  -6.623 -19.470  0.00  0.00    -0.270 OA
ATOM     35  N   UNL     1      32.911  -6.645 -19.448  0.00  0.00    -0.325 N 
ATOM     36  C   UNL     1      31.686  -6.565 -20.125  0.00  0.00    +0.247 C 
ATOM     37  H   UNL     1      32.926  -6.733 -18.468  0.00  0.00    +0.145 HD
ATOM     38  H   UNL     1      33.755  -6.613 -19.953  0.00  0.00    +0.145 HD
ENDBRANCH   8  36
TORSDOF 6
ENDMDL
MODEL 3
REMARK VINA RESULT:     -10.5     12.316     17.278
REMARK  Name = 135565884
REMARK  6 active torsions:
REMARK  status: ('A' for Active; 'I' for Inactive)
REMARK    1  A    between atoms: C_4  and  C_13
REMARK    2  A    between atoms: C_8  and  C_36
REMARK    3  A    between atoms: C_9  and  C_21
REMARK    4  A    between atoms: C_18  and  C_19
REMARK    5  A    between atoms: C_26  and  O_27
REMARK    6  A    between atoms: O_27  and  C_28
REMARK                            x       y       z     vdW  Elec       q    Type
REMARK                         _______ _______ _______ _____ _____    ______ ____
ROOT
ATOM      1  N   UNL     1      32.272  -6.166 -22.569  0.00  0.00    -0.240 N 
ATOM      2  N   UNL     1      31.287  -4.380 -21.372  0.00  0.00    -0.318 N 
ATOM      3  N   UNL     1      32.905  -6.467 -23.717  0.00  0.00    -0.168 NA
ATOM      4  C   UNL     1      32.084  -7.155 -21.512  0.00  0.00    +0.108 C 
ATOM      5  C   UNL     1      30.986  -6.670 -20.547  0.00  0.00    +0.046 C 
ATOM      6  C   UNL     1      31.198  -5.201 -20.174  0.00  0.00    +0.090 C 
ATOM      7  C   UNL     1      31.892  -4.852 -22.480  0.00  0.00    +0.131 A 
ATOM      8  C   UNL     1      32.248  -4.274 -23.674  0.00  0.00    +0.103 A 
ATOM      9  C   UNL     1      32.871  -5.314 -24.394  0.00  0.00    +0.108 A 
ATOM     10  H   UNL     1      30.904  -3.473 -21.372  0.00  0.00    +0.148 HD
ENDROOT
BRANCH   4  13
ATOM     11  O   UNL     1      33.854 -12.981 -22.813  0.00  0.00    -0.270 OA
ATOM     12  N   UNL     1      32.242 -11.405 -22.243  0.00  0.00    -0.276 N 
ATOM     13  C   UNL     1      31.743  -8.545 -22.043  0.00  0.00    +0.026 C 
ATOM     14  C   UNL     1      32.900  -9.110 -22.879  0.00  0.00    +0.023 C 
ATOM     15  C   UNL     1      31.412  -9.504 -20.892  0.00  0.00    +0.023 C 
ATOM     16  C   UNL     1      32.586 -10.523 -23.361  0.00  0.00    +0.094 C 
ATOM     17  C   UNL     1      31.139 -10.921 -21.398  0.00  0.00    +0.094 C 
ATOM     18  C   UNL     1      32.934 -12.604 -22.087  0.00  0.00    +0.249 C 
BRANCH  18  19
ATOM     19  C   UNL     1      32.532 -13.490 -20.976  0.00  0.00    +0.058 C 
ATOM     20  C   UNL     1      33.418 -14.370 -20.502  0.00  0.00    +0.005 C 
ENDBRANCH  18  19
ENDBRANCH   4  13
BRANCH   9  21
ATOM     21  C   UNL     1      33.442  -5.235 -25.714  0.00  0.00    +0.020 C 
ATOM     22  C   UNL     1      32.685  -5.603 -26.826  0.00  0.00    +0.005 C 
ATOM     23  C   UNL     1      34.755  -4.792 -25.880  0.00  0.00    +0.005 C 
ATOM     24  C   UNL     1      33.239  -5.528 -28.104  0.00  0.00    +0.038 C 
ATOM     25  C   UNL     1      35.309  -4.717 -27.158  0.00  0.00    +0.038 C 
ATOM     26  C   UNL     1      34.552  -5.085 -28.269  0.00  0.00    +0.145 C 
BRANCH  26  27
ATOM     27  O   UNL     1      35.093  -5.010 -29.516  0.00  0.00    -0.453 OA
BRANCH  27  28
ATOM     28  C   UNL     1      36.472  -5.068 -29.623  0.00  0.00    +0.145 C 
ATOM     29  C   UNL     1      37.222  -3.892 -29.610  0.00  0.00    +0.037 C 
ATOM     30  C   UNL     1      37.112  -6.301 -29.745  0.00  0.00    +0.037 C 
ATOM     31  C   UNL     1      38.612  -3.949 -29.719  0.00  0.00    +0.003 C 
ATOM     32  C   UNL     1      38.502  -6.359 -29.854  0.00  0.00    +0.003 C 
ATOM     33  C   UNL     1      39.252  -5.183 -29.841  0.00  0.00    +0.000 C 
ENDBRANCH  27  28
ENDBRANCH  26  27
ENDBRANCH   9  21
BRANCH   8  36
ATOM     34  O   UNL     1      31.624  -2.047 -23.229  0.00  0.00    -0.270 OA
ATOM     35  N   UNL     1      32.260  -2.533 -25.378  0.00  0.00    -0.325 N 
ATOM     36  C   UNL     1      32.017  -2.910 -24.050  0.00  0.00    +0.247 C 
ATOM     37  H   UNL     1      32.109  -1.602 -25.661  0.00  0.00    +0.145 HD
ATOM     38  H   UNL     1      32.581  -3.199 -26.028  0.00  0.00    +0.145 HD
ENDBRANCH   8  36
TORSDOF 6
ENDMDL
MODEL 4
REMARK VINA RESULT:     -10.4      2.370      6.116
REMARK  Name = 135565884
REMARK  6 active torsions:
REMARK  status: ('A' for Active; 'I' for Inactive)
REMARK    1  A    between atoms: C_4  and  C_13
REMARK    2  A    between atoms: C_8  and  C_36
REMARK    3  A    between atoms: C_9  and  C_21
REMARK    4  A    between atoms: C_18  and  C_19
REMARK    5  A    between atoms: C_26  and  O_27
REMARK    6  A    between atoms: O_27  and  C_28
REMARK                            x       y       z     vdW  Elec       q    Type
REMARK                         _______ _______ _______ _____ _____    ______ ____
ROOT
ATOM      1  N   UNL     1      34.056 -22.973 -15.577  0.00  0.00    -0.240 N 
ATOM      2  N   UNL     1      31.935 -23.452 -14.648  0.00  0.00    -0.318 N 
ATOM      3  N   UNL     1      34.660 -22.363 -16.614  0.00  0.00    -0.168 NA
ATOM      4  C   UNL     1      34.819 -23.558 -14.479  0.00  0.00    +0.108 C 
ATOM      5  C   UNL     1      33.920 -24.532 -13.694  0.00  0.00    +0.046 C 
ATOM      6  C   UNL     1      32.553 -23.904 -13.412  0.00  0.00    +0.090 C 
ATOM      7  C   UNL     1      32.688 -22.927 -15.635  0.00  0.00    +0.131 A 
ATOM      8  C   UNL     1      32.381 -22.298 -16.818  0.00  0.00    +0.103 A 
ATOM      9  C   UNL     1      33.634 -21.970 -17.375  0.00  0.00    +0.108 A 
ATOM     10  H   UNL     1      30.960 -23.529 -14.764  0.00  0.00    +0.148 HD
ENDROOT
BRANCH   4  13
ATOM     11  O   UNL     1      40.998 -24.251 -14.144  0.00  0.00    -0.270 OA
ATOM     12  N   UNL     1      38.860 -25.069 -14.556  0.00  0.00    -0.276 N 
ATOM     13  C   UNL     1      36.089 -24.268 -14.940  0.00  0.00    +0.026 C 
ATOM     14  C   UNL     1      37.249 -23.273 -15.088  0.00  0.00    +0.023 C 
ATOM     15  C   UNL     1      36.478 -25.383 -13.961  0.00  0.00    +0.023 C 
ATOM     16  C   UNL     1      38.534 -23.989 -15.491  0.00  0.00    +0.094 C 
ATOM     17  C   UNL     1      37.789 -26.059 -14.366  0.00  0.00    +0.094 C 
ATOM     18  C   UNL     1      40.121 -25.096 -13.964  0.00  0.00    +0.249 C 
BRANCH  18  19
ATOM     19  C   UNL     1      40.433 -26.223 -13.061  0.00  0.00    +0.058 C 
ATOM     20  C   UNL     1      41.328 -27.132 -13.453  0.00  0.00    +0.005 C 
ENDBRANCH  18  19
ENDBRANCH   4  13
BRANCH   9  21
ATOM     21  C   UNL     1      33.878 -21.284 -18.618  0.00  0.00    +0.020 C 
ATOM     22  C   UNL     1      32.808 -20.786 -19.363  0.00  0.00    +0.005 C 
ATOM     23  C   UNL     1      35.184 -21.120 -19.079  0.00  0.00    +0.005 C 
ATOM     24  C   UNL     1      33.045 -20.124 -20.568  0.00  0.00    +0.038 C 
ATOM     25  C   UNL     1      35.421 -20.458 -20.283  0.00  0.00    +0.038 C 
ATOM     26  C   UNL     1      34.352 -19.961 -21.027  0.00  0.00    +0.145 C 
BRANCH  26  27
ATOM     27  O   UNL     1      34.585 -19.314 -22.202  0.00  0.00    -0.453 OA
BRANCH  27  28
ATOM     28  C   UNL     1      34.469 -17.934 -22.212  0.00  0.00    +0.145 C 
ATOM     29  C   UNL     1      34.551 -17.219 -21.018  0.00  0.00    +0.037 C 
ATOM     30  C   UNL     1      34.269 -17.259 -23.416  0.00  0.00    +0.037 C 
ATOM     31  C   UNL     1      34.434 -15.829 -21.027  0.00  0.00    +0.003 C 
ATOM     32  C   UNL     1      34.152 -15.869 -23.426  0.00  0.00    +0.003 C 
ATOM     33  C   UNL     1      34.234 -15.154 -22.231  0.00  0.00    +0.000 C 
ENDBRANCH  27  28
ENDBRANCH  26  27
ENDBRANCH   9  21
BRANCH   8  36
ATOM     34  O   UNL     1      30.800 -21.079 -18.067  0.00  0.00    -0.270 OA
ATOM     35  N   UNL     1      30.039 -22.949 -16.980  0.00  0.00    -0.325 N 
ATOM     36  C   UNL     1      31.061 -22.053 -17.322  0.00  0.00    +0.247 C 
ATOM     37  H   UNL     1      29.124 -22.802 -17.313  0.00  0.00    +0.145 HD
ATOM     38  H   UNL     1      30.235 -23.724 -16.406  0.00  0.00    +0.145 HD
ENDBRANCH   8  36
TORSDOF 6
ENDMDL
