MODEL 1
REMARK VINA RESULT:     -12.6      0.000      0.000
REMARK  Name = 15984937
REMARK  6 active torsions:
REMARK  status: ('A' for Active; 'I' for Inactive)
REMARK    1  A    between atoms: C_1  and  C_9
REMARK    2  A    between atoms: C_1  and  C_20
REMARK    3  A    between atoms: C_4  and  N_10
REMARK    4  A    between atoms: N_10  and  C_13
REMARK    5  A    between atoms: C_19  and  C_25
REMARK    6  A    between atoms: C_25  and  N_26
REMARK                            x       y       z     vdW  Elec       q    Type
REMARK                         _______ _______ _______ _____ _____    ______ ____
ROOT
ATOM      1  C   UNL     1      35.459 -18.640 -21.207  0.00  0.00    +0.112 C 
ENDROOT
BRANCH   1   9
ATOM      2  O   UNL     1      34.809 -19.442 -23.339  0.00  0.00    -0.275 OA
ATOM      3  N   UNL     1      34.148 -17.281 -22.800  0.00  0.00    -0.279 N 
ATOM      4  C   UNL     1      33.983 -14.590 -23.893  0.00  0.00    +0.072 C 
ATOM      5  C   UNL     1      34.648 -14.881 -22.544  0.00  0.00    +0.041 C 
ATOM      6  C   UNL     1      33.966 -15.834 -24.789  0.00  0.00    +0.041 C 
ATOM      7  C   UNL     1      34.095 -16.142 -21.877  0.00  0.00    +0.095 C 
ATOM      8  C   UNL     1      33.443 -17.076 -24.066  0.00  0.00    +0.095 C 
ATOM      9  C   UNL     1      34.779 -18.499 -22.544  0.00  0.00    +0.230 C 
BRANCH   4  10
ATOM     10  N   UNL     1      32.635 -14.099 -23.685  0.00  0.00    -0.334 N 
ATOM     11  H   UNL     1      31.886 -14.624 -24.051  0.00  0.00    +0.147 HD
BRANCH  10  13
ATOM     12  F   UNL     1      32.483  -9.308 -23.484  0.00  0.00    -0.204 F 
ATOM     13  C   UNL     1      32.344 -12.933 -23.001  0.00  0.00    +0.047 C 
ATOM     14  C   UNL     1      32.562 -11.673 -23.593  0.00  0.00    +0.044 C 
ATOM     15  C   UNL     1      31.821 -12.970 -21.694  0.00  0.00    +0.014 C 
ATOM     16  C   UNL     1      32.269 -10.496 -22.902  0.00  0.00    +0.141 C 
ATOM     17  C   UNL     1      31.529 -11.793 -21.003  0.00  0.00    +0.004 C 
ATOM     18  C   UNL     1      31.753 -10.557 -21.609  0.00  0.00    +0.030 C 
ENDBRANCH  10  13
ENDBRANCH   4  10
ENDBRANCH   1   9
BRANCH   1  20
ATOM     19  C   UNL     1      33.598 -21.717 -18.884  0.00  0.00    -0.043 C 
ATOM     20  C   UNL     1      34.808 -19.715 -20.395  0.00  0.00    -0.013 C 
ATOM     21  C   UNL     1      34.989 -21.622 -18.930  0.00  0.00    -0.007 C 
ATOM     22  C   UNL     1      32.814 -20.809 -19.595  0.00  0.00    -0.007 C 
ATOM     23  C   UNL     1      35.596 -20.620 -19.686  0.00  0.00    -0.004 C 
ATOM     24  C   UNL     1      33.420 -19.806 -20.353  0.00  0.00    -0.004 C 
BRANCH  19  25
ATOM     25  C   UNL     1      32.950 -22.789 -18.076  0.00  0.00    -0.050 C 
BRANCH  25  26
ATOM     26  N   UNL     1      32.879 -22.449 -16.655  0.00  0.00    +0.387 N 
ATOM     27  N   UNL     1      32.465 -23.090 -13.869  0.00  0.00    +0.382 N 
ATOM     28  C   UNL     1      33.811 -22.839 -14.396  0.00  0.00    -0.083 C 
ATOM     29  C   UNL     1      33.884 -23.198 -15.889  0.00  0.00    -0.099 C 
ATOM     30  C   UNL     1      31.534 -22.706 -16.125  0.00  0.00    -0.101 C 
ATOM     31  C   UNL     1      31.460 -22.356 -14.639  0.00  0.00    -0.105 C 
ATOM     32  C   UNL     1      34.820 -23.659 -13.594  0.00  0.00    -0.026 C 
ATOM     33  H   UNL     1      33.077 -21.454 -16.558  0.00  0.00    -0.079 HD
ATOM     34  H   UNL     1      32.424 -22.790 -12.896  0.00  0.00    -0.085 HD
ATOM     35  H   UNL     1      32.266 -24.088 -13.943  0.00  0.00    -0.085 HD
ENDBRANCH  25  26
ENDBRANCH  19  25
ENDBRANCH   1  20
TORSDOF 6
ENDMDL
MODEL 2
REMARK VINA RESULT:     -12.5      2.016      3.309
REMARK  Name = 15984937
REMARK  6 active torsions:
REMARK  status: ('A' for Active; 'I' for Inactive)
REMARK    1  A    between atoms: C_1  and  C_9
REMARK    2  A    between atoms: C_1  and  C_20
REMARK    3  A    between atoms: C_4  and  N_10
REMARK    4  A    between atoms: N_10  and  C_13
REMARK    5  A    between atoms: C_19  and  C_25
REMARK    6  A    between atoms: C_25  and  N_26
REMARK                            x       y       z     vdW  Elec       q    Type
REMARK                         _______ _______ _______ _____ _____    ______ ____
ROOT
ATOM      1  C   UNL     1      34.582 -16.525 -22.298  0.00  0.00    +0.112 C 
ENDROOT
BRANCH   1   9
ATOM      2  O   UNL     1      34.243 -15.634 -20.130  0.00  0.00    -0.275 OA
ATOM      3  N   UNL     1      33.955 -14.167 -21.909  0.00  0.00    -0.279 N 
ATOM      4  C   UNL     1      32.179 -12.094 -22.911  0.00  0.00    +0.072 C 
ATOM      5  C   UNL     1      32.602 -13.288 -23.772  0.00  0.00    +0.041 C 
ATOM      6  C   UNL     1      32.296 -12.411 -21.416  0.00  0.00    +0.041 C 
ATOM      7  C   UNL     1      33.951 -13.869 -23.346  0.00  0.00    +0.095 C 
ATOM      8  C   UNL     1      33.646 -13.026 -21.047  0.00  0.00    +0.095 C 
ATOM      9  C   UNL     1      34.248 -15.408 -21.343  0.00  0.00    +0.230 C 
BRANCH   4  10
ATOM     10  N   UNL     1      32.981 -10.933 -23.245  0.00  0.00    -0.334 N 
ATOM     11  H   UNL     1      33.880 -11.081 -23.621  0.00  0.00    +0.147 HD
BRANCH  10  13
ATOM     12  F   UNL     1      33.885  -6.222 -23.153  0.00  0.00    -0.204 F 
ATOM     13  C   UNL     1      32.554  -9.631 -23.064  0.00  0.00    +0.047 C 
ATOM     14  C   UNL     1      33.448  -8.549 -23.201  0.00  0.00    +0.044 C 
ATOM     15  C   UNL     1      31.215  -9.344 -22.736  0.00  0.00    +0.014 C 
ATOM     16  C   UNL     1      33.018  -7.235 -23.017  0.00  0.00    +0.141 C 
ATOM     17  C   UNL     1      30.785  -8.031 -22.552  0.00  0.00    +0.004 C 
ATOM     18  C   UNL     1      31.687  -6.976 -22.693  0.00  0.00    +0.030 C 
ENDBRANCH  10  13
ENDBRANCH   4  10
ENDBRANCH   1   9
BRANCH   1  20
ATOM     19  C   UNL     1      35.319 -20.164 -20.167  0.00  0.00    -0.043 C 
ATOM     20  C   UNL     1      34.840 -17.797 -21.553  0.00  0.00    -0.013 C 
ATOM     21  C   UNL     1      34.028 -19.857 -20.598  0.00  0.00    -0.007 C 
ATOM     22  C   UNL     1      36.369 -19.285 -20.430  0.00  0.00    -0.007 C 
ATOM     23  C   UNL     1      33.788 -18.672 -21.293  0.00  0.00    -0.004 C 
ATOM     24  C   UNL     1      36.129 -18.098 -21.124  0.00  0.00    -0.004 C 
BRANCH  19  25
ATOM     25  C   UNL     1      35.575 -21.430 -19.424  0.00  0.00    -0.050 C 
BRANCH  25  26
ATOM     26  N   UNL     1      34.732 -21.560 -18.236  0.00  0.00    +0.387 N 
ATOM     27  N   UNL     1      33.533 -23.057 -16.076  0.00  0.00    +0.382 N 
ATOM     28  C   UNL     1      34.637 -22.124 -15.828  0.00  0.00    -0.083 C 
ATOM     29  C   UNL     1      35.525 -21.991 -17.077  0.00  0.00    -0.099 C 
ATOM     30  C   UNL     1      33.630 -22.499 -18.481  0.00  0.00    -0.101 C 
ATOM     31  C   UNL     1      32.749 -22.638 -17.238  0.00  0.00    -0.105 C 
ATOM     32  C   UNL     1      35.454 -22.624 -14.638  0.00  0.00    -0.026 C 
ATOM     33  H   UNL     1      34.333 -20.644 -18.031  0.00  0.00    -0.079 HD
ATOM     34  H   UNL     1      32.927 -23.085 -15.257  0.00  0.00    -0.085 HD
ATOM     35  H   UNL     1      33.922 -23.982 -16.262  0.00  0.00    -0.085 HD
ENDBRANCH  25  26
ENDBRANCH  19  25
ENDBRANCH   1  20
TORSDOF 6
ENDMDL
MODEL 3
REMARK VINA RESULT:     -12.2      4.706      9.009
REMARK  Name = 15984937
REMARK  6 active torsions:
REMARK  status: ('A' for Active; 'I' for Inactive)
REMARK    1  A    between atoms: C_1  and  C_9
REMARK    2  A    between atoms: C_1  and  C_20
REMARK    3  A    between atoms: C_4  and  N_10
REMARK    4  A    between atoms: N_10  and  C_13
REMARK    5  A    between atoms: C_19  and  C_25
REMARK    6  A    between atoms: C_25  and  N_26
REMARK                            x       y       z     vdW  Elec       q    Type
REMARK                         _______ _______ _______ _____ _____    ______ ____
ROOT
ATOM      1  C   UNL     1      30.557 -10.778 -21.291  0.00  0.00    +0.112 C 
ENDROOT
BRANCH   1   9
ATOM      2  O   UNL     1      31.174 -10.066 -19.117  0.00  0.00    -0.275 OA
ATOM      3  N   UNL     1      31.591  -8.578 -20.852  0.00  0.00    -0.279 N 
ATOM      4  C   UNL     1      31.353  -5.770 -21.575  0.00  0.00    +0.072 C 
ATOM      5  C   UNL     1      30.811  -6.890 -22.470  0.00  0.00    +0.041 C 
ATOM      6  C   UNL     1      31.473  -6.227 -20.117  0.00  0.00    +0.041 C 
ATOM      7  C   UNL     1      31.556  -8.211 -22.272  0.00  0.00    +0.095 C 
ATOM      8  C   UNL     1      32.188  -7.570 -19.975  0.00  0.00    +0.095 C 
ATOM      9  C   UNL     1      31.134  -9.782 -20.318  0.00  0.00    +0.230 C 
BRANCH   4  10
ATOM     10  N   UNL     1      32.640  -5.320 -22.071  0.00  0.00    -0.334 N 
ATOM     11  H   UNL     1      33.392  -5.270 -21.436  0.00  0.00    +0.147 HD
BRANCH  10  13
ATOM     12  F   UNL     1      34.940  -5.945 -26.234  0.00  0.00    -0.204 F 
ATOM     13  C   UNL     1      32.868  -4.955 -23.385  0.00  0.00    +0.047 C 
ATOM     14  C   UNL     1      33.809  -5.644 -24.175  0.00  0.00    +0.044 C 
ATOM     15  C   UNL     1      32.167  -3.884 -23.972  0.00  0.00    +0.014 C 
ATOM     16  C   UNL     1      34.041  -5.275 -25.500  0.00  0.00    +0.141 C 
ATOM     17  C   UNL     1      32.398  -3.515 -25.297  0.00  0.00    +0.004 C 
ATOM     18  C   UNL     1      33.336  -4.211 -26.061  0.00  0.00    +0.030 C 
ENDBRANCH  10  13
ENDBRANCH   4  10
ENDBRANCH   1   9
BRANCH   1  20
ATOM     19  C   UNL     1      33.512 -13.656 -22.436  0.00  0.00    -0.043 C 
ATOM     20  C   UNL     1      31.590 -11.783 -21.691  0.00  0.00    -0.013 C 
ATOM     21  C   UNL     1      32.905 -13.740 -21.183  0.00  0.00    -0.007 C 
ATOM     22  C   UNL     1      33.156 -12.634 -23.315  0.00  0.00    -0.007 C 
ATOM     23  C   UNL     1      31.942 -12.803 -20.810  0.00  0.00    -0.004 C 
ATOM     24  C   UNL     1      32.194 -11.695 -22.943  0.00  0.00    -0.004 C 
BRANCH  19  25
ATOM     25  C   UNL     1      34.542 -14.657 -22.834  0.00  0.00    -0.050 C 
BRANCH  25  26
ATOM     26  N   UNL     1      34.032 -16.027 -22.792  0.00  0.00    +0.387 N 
ATOM     27  N   UNL     1      34.263 -18.878 -23.198  0.00  0.00    +0.382 N 
ATOM     28  C   UNL     1      34.307 -18.300 -21.851  0.00  0.00    -0.083 C 
ATOM     29  C   UNL     1      34.846 -16.860 -21.896  0.00  0.00    -0.099 C 
ATOM     30  C   UNL     1      33.994 -16.609 -24.139  0.00  0.00    -0.101 C 
ATOM     31  C   UNL     1      33.465 -18.044 -24.096  0.00  0.00    -0.105 C 
ATOM     32  C   UNL     1      35.187 -19.176 -20.961  0.00  0.00    -0.026 C 
ATOM     33  H   UNL     1      33.080 -15.998 -22.428  0.00  0.00    -0.079 HD
ATOM     34  H   UNL     1      33.849 -19.808 -23.151  0.00  0.00    -0.085 HD
ATOM     35  H   UNL     1      35.215 -18.930 -23.562  0.00  0.00    -0.085 HD
ENDBRANCH  25  26
ENDBRANCH  19  25
ENDBRANCH   1  20
TORSDOF 6
ENDMDL
MODEL 4
REMARK VINA RESULT:     -12.2      2.541      4.305
REMARK  Name = 15984937
REMARK  6 active torsions:
REMARK  status: ('A' for Active; 'I' for Inactive)
REMARK    1  A    between atoms: C_1  and  C_9
REMARK    2  A    between atoms: C_1  and  C_20
REMARK    3  A    between atoms: C_4  and  N_10
REMARK    4  A    between atoms: N_10  and  C_13
REMARK    5  A    between atoms: C_19  and  C_25
REMARK    6  A    between atoms: C_25  and  N_26
REMARK                            x       y       z     vdW  Elec       q    Type
REMARK                         _______ _______ _______ _____ _____    ______ ____
ROOT
ATOM      1  C   UNL     1      36.066 -21.183 -19.246  0.00  0.00    +0.112 C 
ENDROOT
BRANCH   1   9
ATOM      2  O   UNL     1      33.743 -21.267 -19.704  0.00  0.00    -0.275 OA
ATOM      3  N   UNL     1      34.886 -19.401 -20.487  0.00  0.00    -0.279 N 
ATOM      4  C   UNL     1      35.165 -17.694 -22.825  0.00  0.00    +0.072 C 
ATOM      5  C   UNL     1      36.376 -18.327 -22.130  0.00  0.00    +0.041 C 
ATOM      6  C   UNL     1      33.882 -18.482 -22.543  0.00  0.00    +0.041 C 
ATOM      7  C   UNL     1      36.116 -18.619 -20.652  0.00  0.00    +0.095 C 
ATOM      8  C   UNL     1      33.688 -18.784 -21.057  0.00  0.00    +0.095 C 
ATOM      9  C   UNL     1      34.791 -20.627 -19.828  0.00  0.00    +0.230 C 
BRANCH   4  10
ATOM     10  N   UNL     1      35.016 -16.316 -22.399  0.00  0.00    -0.334 N 
ATOM     11  H   UNL     1      35.444 -16.040 -21.556  0.00  0.00    +0.147 HD
BRANCH  10  13
ATOM     12  F   UNL     1      32.880 -12.028 -22.658  0.00  0.00    -0.204 F 
ATOM     13  C   UNL     1      34.302 -15.369 -23.111  0.00  0.00    +0.047 C 
ATOM     14  C   UNL     1      33.937 -14.142 -22.521  0.00  0.00    +0.044 C 
ATOM     15  C   UNL     1      33.917 -15.602 -24.446  0.00  0.00    +0.014 C 
ATOM     16  C   UNL     1      33.216 -13.188 -23.238  0.00  0.00    +0.141 C 
ATOM     17  C   UNL     1      33.196 -14.648 -25.163  0.00  0.00    +0.004 C 
ATOM     18  C   UNL     1      32.846 -13.441 -24.558  0.00  0.00    +0.030 C 
ENDBRANCH  10  13
ENDBRANCH   4  10
ENDBRANCH   1   9
BRANCH   1  20
ATOM     19  C   UNL     1      35.490 -22.308 -15.156  0.00  0.00    -0.043 C 
ATOM     20  C   UNL     1      35.864 -21.576 -17.816  0.00  0.00    -0.013 C 
ATOM     21  C   UNL     1      34.531 -22.642 -16.113  0.00  0.00    -0.007 C 
ATOM     22  C   UNL     1      36.636 -21.609 -15.532  0.00  0.00    -0.007 C 
ATOM     23  C   UNL     1      34.718 -22.275 -17.446  0.00  0.00    -0.004 C 
ATOM     24  C   UNL     1      36.824 -21.241 -16.864  0.00  0.00    -0.004 C 
BRANCH  19  25
ATOM     25  C   UNL     1      35.289 -22.700 -13.732  0.00  0.00    -0.050 C 
BRANCH  25  26
ATOM     26  N   UNL     1      36.437 -23.422 -13.185  0.00  0.00    +0.387 N 
ATOM     27  N   UNL     1      38.125 -25.750 -12.911  0.00  0.00    +0.382 N 
ATOM     28  C   UNL     1      38.567 -24.581 -13.680  0.00  0.00    -0.083 C 
ATOM     29  C   UNL     1      37.358 -23.824 -14.257  0.00  0.00    -0.099 C 
ATOM     30  C   UNL     1      35.997 -24.595 -12.420  0.00  0.00    -0.101 C 
ATOM     31  C   UNL     1      37.197 -25.354 -11.852  0.00  0.00    -0.105 C 
ATOM     32  C   UNL     1      39.495 -25.045 -14.801  0.00  0.00    -0.026 C 
ATOM     33  H   UNL     1      36.933 -22.794 -12.553  0.00  0.00    -0.079 HD
ATOM     34  H   UNL     1      38.938 -26.201 -12.491  0.00  0.00    -0.085 HD
ATOM     35  H   UNL     1      37.646 -26.394 -13.540  0.00  0.00    -0.085 HD
ENDBRANCH  25  26
ENDBRANCH  19  25
ENDBRANCH   1  20
TORSDOF 6
ENDMDL
MODEL 5
REMARK VINA RESULT:     -12.0      2.661      4.312
REMARK  Name = 15984937
REMARK  6 active torsions:
REMARK  status: ('A' for Active; 'I' for Inactive)
REMARK    1  A    between atoms: C_1  and  C_9
REMARK    2  A    between atoms: C_1  and  C_20
REMARK    3  A    between atoms: C_4  and  N_10
REMARK    4  A    between atoms: N_10  and  C_13
REMARK    5  A    between atoms: C_19  and  C_25
REMARK    6  A    between atoms: C_25  and  N_26
REMARK                            x       y       z     vdW  Elec       q    Type
REMARK                         _______ _______ _______ _____ _____    ______ ____
ROOT
ATOM      1  C   UNL     1      35.979 -21.259 -19.264  0.00  0.00    +0.112 C 
ENDROOT
BRANCH   1   9
ATOM      2  O   UNL     1      33.647 -21.134 -19.665  0.00  0.00    -0.275 OA
ATOM      3  N   UNL     1      34.928 -19.357 -20.441  0.00  0.00    -0.279 N 
ATOM      4  C   UNL     1      35.299 -17.631 -22.752  0.00  0.00    +0.072 C 
ATOM      5  C   UNL     1      36.466 -18.380 -22.100  0.00  0.00    +0.041 C 
ATOM      6  C   UNL     1      33.959 -18.312 -22.453  0.00  0.00    +0.041 C 
ATOM      7  C   UNL     1      36.217 -18.681 -20.621  0.00  0.00    +0.095 C 
ATOM      8  C   UNL     1      33.775 -18.628 -20.969  0.00  0.00    +0.095 C 
ATOM      9  C   UNL     1      34.743 -20.585 -19.803  0.00  0.00    +0.230 C 
BRANCH   4  10
ATOM     10  N   UNL     1      35.279 -16.255 -22.297  0.00  0.00    -0.334 N 
ATOM     11  H   UNL     1      35.916 -15.987 -21.595  0.00  0.00    +0.147 HD
BRANCH  10  13
ATOM     12  F   UNL     1      32.946 -14.246 -25.976  0.00  0.00    -0.204 F 
ATOM     13  C   UNL     1      34.412 -15.298 -22.793  0.00  0.00    +0.047 C 
ATOM     14  C   UNL     1      34.101 -15.245 -24.166  0.00  0.00    +0.044 C 
ATOM     15  C   UNL     1      33.815 -14.349 -21.941  0.00  0.00    +0.014 C 
ATOM     16  C   UNL     1      33.228 -14.279 -24.667  0.00  0.00    +0.141 C 
ATOM     17  C   UNL     1      32.942 -13.383 -22.441  0.00  0.00    +0.004 C 
ATOM     18  C   UNL     1      32.649 -13.348 -23.805  0.00  0.00    +0.030 C 
ENDBRANCH  10  13
ENDBRANCH   4  10
ENDBRANCH   1   9
BRANCH   1  20
ATOM     19  C   UNL     1      35.440 -22.326 -15.153  0.00  0.00    -0.043 C 
ATOM     20  C   UNL     1      35.790 -21.632 -17.827  0.00  0.00    -0.013 C 
ATOM     21  C   UNL     1      34.466 -22.661 -16.094  0.00  0.00    -0.007 C 
ATOM     22  C   UNL     1      36.589 -21.644 -15.552  0.00  0.00    -0.007 C 
ATOM     23  C   UNL     1      34.641 -22.314 -17.434  0.00  0.00    -0.004 C 
ATOM     24  C   UNL     1      36.765 -21.295 -16.891  0.00  0.00    -0.004 C 
BRANCH  19  25
ATOM     25  C   UNL     1      35.252 -22.697 -13.722  0.00  0.00    -0.050 C 
BRANCH  25  26
ATOM     26  N   UNL     1      36.424 -23.370 -13.162  0.00  0.00    +0.387 N 
ATOM     27  N   UNL     1      38.114 -25.673 -12.730  0.00  0.00    +0.382 N 
ATOM     28  C   UNL     1      38.519 -24.597 -13.642  0.00  0.00    -0.083 C 
ATOM     29  C   UNL     1      37.286 -23.892 -14.231  0.00  0.00    -0.099 C 
ATOM     30  C   UNL     1      36.020 -24.451 -12.255  0.00  0.00    -0.101 C 
ATOM     31  C   UNL     1      37.245 -25.158 -11.673  0.00  0.00    -0.105 C 
ATOM     32  C   UNL     1      39.385 -25.186 -14.754  0.00  0.00    -0.026 C 
ATOM     33  H   UNL     1      36.956 -22.684 -12.627  0.00  0.00    -0.079 HD
ATOM     34  H   UNL     1      38.945 -26.085 -12.308  0.00  0.00    -0.085 HD
ATOM     35  H   UNL     1      37.599 -26.374 -13.262  0.00  0.00    -0.085 HD
ENDBRANCH  25  26
ENDBRANCH  19  25
ENDBRANCH   1  20
TORSDOF 6
ENDMDL
MODEL 6
REMARK VINA RESULT:     -11.8      4.044     11.502
REMARK  Name = 15984937
REMARK  6 active torsions:
REMARK  status: ('A' for Active; 'I' for Inactive)
REMARK    1  A    between atoms: C_1  and  C_9
REMARK    2  A    between atoms: C_1  and  C_20
REMARK    3  A    between atoms: C_4  and  N_10
REMARK    4  A    between atoms: N_10  and  C_13
REMARK    5  A    between atoms: C_19  and  C_25
REMARK    6  A    between atoms: C_25  and  N_26
REMARK                            x       y       z     vdW  Elec       q    Type
REMARK                         _______ _______ _______ _____ _____    ______ ____
ROOT
ATOM      1  C   UNL     1      35.463 -20.738 -19.063  0.00  0.00    +0.112 C 
ENDROOT
BRANCH   1   9
ATOM      2  O   UNL     1      33.233 -21.428 -19.473  0.00  0.00    -0.275 OA
ATOM      3  N   UNL     1      34.239 -22.264 -17.553  0.00  0.00    -0.279 N 
ATOM      4  C   UNL     1      33.745 -22.752 -14.728  0.00  0.00    +0.072 C 
ATOM      5  C   UNL     1      34.978 -21.986 -15.218  0.00  0.00    +0.041 C 
ATOM      6  C   UNL     1      32.608 -22.700 -15.755  0.00  0.00    +0.041 C 
ATOM      7  C   UNL     1      35.383 -22.375 -16.641  0.00  0.00    +0.095 C 
ATOM      8  C   UNL     1      33.071 -23.057 -17.168  0.00  0.00    +0.095 C 
ATOM      9  C   UNL     1      34.210 -21.505 -18.723  0.00  0.00    +0.230 C 
BRANCH   4  10
ATOM     10  N   UNL     1      34.100 -24.127 -14.438  0.00  0.00    -0.334 N 
ATOM     11  H   UNL     1      33.507 -24.842 -14.768  0.00  0.00    +0.147 HD
BRANCH  10  13
ATOM     12  F   UNL     1      38.430 -26.184 -14.229  0.00  0.00    -0.204 F 
ATOM     13  C   UNL     1      35.225 -24.492 -13.721  0.00  0.00    +0.047 C 
ATOM     14  C   UNL     1      36.292 -25.171 -14.342  0.00  0.00    +0.044 C 
ATOM     15  C   UNL     1      35.338 -24.196 -12.348  0.00  0.00    +0.014 C 
ATOM     16  C   UNL     1      37.426 -25.540 -13.618  0.00  0.00    +0.141 C 
ATOM     17  C   UNL     1      36.471 -24.565 -11.624  0.00  0.00    +0.004 C 
ATOM     18  C   UNL     1      37.516 -25.237 -12.261  0.00  0.00    +0.030 C 
ENDBRANCH  10  13
ENDBRANCH   4  10
ENDBRANCH   1   9
BRANCH   1  20
ATOM     19  C   UNL     1      34.800 -18.184 -22.433  0.00  0.00    -0.043 C 
ATOM     20  C   UNL     1      35.231 -19.845 -20.240  0.00  0.00    -0.013 C 
ATOM     21  C   UNL     1      36.051 -18.215 -21.817  0.00  0.00    -0.007 C 
ATOM     22  C   UNL     1      33.765 -18.985 -21.951  0.00  0.00    -0.007 C 
ATOM     23  C   UNL     1      36.267 -19.047 -20.719  0.00  0.00    -0.004 C 
ATOM     24  C   UNL     1      33.980 -19.817 -20.852  0.00  0.00    -0.004 C 
BRANCH  19  25
ATOM     25  C   UNL     1      34.568 -17.293 -23.606  0.00  0.00    -0.050 C 
BRANCH  25  26
ATOM     26  N   UNL     1      33.824 -16.086 -23.251  0.00  0.00    +0.387 N 
ATOM     27  N   UNL     1      33.543 -13.227 -22.944  0.00  0.00    +0.382 N 
ATOM     28  C   UNL     1      32.881 -13.939 -24.043  0.00  0.00    -0.083 C 
ATOM     29  C   UNL     1      33.667 -15.207 -24.418  0.00  0.00    -0.099 C 
ATOM     30  C   UNL     1      34.488 -15.369 -22.155  0.00  0.00    -0.101 C 
ATOM     31  C   UNL     1      33.713 -14.104 -21.785  0.00  0.00    -0.105 C 
ATOM     32  C   UNL     1      32.766 -13.002 -25.245  0.00  0.00    -0.026 C 
ATOM     33  H   UNL     1      32.897 -16.369 -22.934  0.00  0.00    -0.079 HD
ATOM     34  H   UNL     1      32.975 -12.424 -22.675  0.00  0.00    -0.085 HD
ATOM     35  H   UNL     1      34.463 -12.922 -23.259  0.00  0.00    -0.085 HD
ENDBRANCH  25  26
ENDBRANCH  19  25
ENDBRANCH   1  20
TORSDOF 6
ENDMDL
MODEL 7
REMARK VINA RESULT:     -11.6      1.551      2.153
REMARK  Name = 15984937
REMARK  6 active torsions:
REMARK  status: ('A' for Active; 'I' for Inactive)
REMARK    1  A    between atoms: C_1  and  C_9
REMARK    2  A    between atoms: C_1  and  C_20
REMARK    3  A    between atoms: C_4  and  N_10
REMARK    4  A    between atoms: N_10  and  C_13
REMARK    5  A    between atoms: C_19  and  C_25
REMARK    6  A    between atoms: C_25  and  N_26
REMARK                            x       y       z     vdW  Elec       q    Type
REMARK                         _______ _______ _______ _____ _____    ______ ____
ROOT
ATOM      1  C   UNL     1      35.522 -17.111 -21.805  0.00  0.00    +0.112 C 
ENDROOT
BRANCH   1   9
ATOM      2  O   UNL     1      34.536 -17.546 -23.916  0.00  0.00    -0.275 OA
ATOM      3  N   UNL     1      33.832 -15.622 -22.820  0.00  0.00    -0.279 N 
ATOM      4  C   UNL     1      33.261 -12.805 -23.267  0.00  0.00    +0.072 C 
ATOM      5  C   UNL     1      34.192 -13.279 -22.146  0.00  0.00    +0.041 C 
ATOM      6  C   UNL     1      33.165 -13.841 -24.391  0.00  0.00    +0.041 C 
ATOM      7  C   UNL     1      33.873 -14.700 -21.680  0.00  0.00    +0.095 C 
ATOM      8  C   UNL     1      32.884 -15.252 -23.872  0.00  0.00    +0.095 C 
ATOM      9  C   UNL     1      34.589 -16.787 -22.944  0.00  0.00    +0.230 C 
BRANCH   4  10
ATOM     10  N   UNL     1      31.946 -12.519 -22.729  0.00  0.00    -0.334 N 
ATOM     11  H   UNL     1      31.211 -13.142 -22.938  0.00  0.00    +0.147 HD
BRANCH  10  13
ATOM     12  F   UNL     1      31.044  -7.828 -22.282  0.00  0.00    -0.204 F 
ATOM     13  C   UNL     1      31.664 -11.419 -21.940  0.00  0.00    +0.047 C 
ATOM     14  C   UNL     1      31.490 -10.142 -22.513  0.00  0.00    +0.044 C 
ATOM     15  C   UNL     1      31.546 -11.539 -20.542  0.00  0.00    +0.014 C 
ATOM     16  C   UNL     1      31.208  -9.032 -21.717  0.00  0.00    +0.141 C 
ATOM     17  C   UNL     1      31.263 -10.429 -19.746  0.00  0.00    +0.004 C 
ATOM     18  C   UNL     1      31.094  -9.175 -20.335  0.00  0.00    +0.030 C 
ENDBRANCH  10  13
ENDBRANCH   4  10
ENDBRANCH   1   9
BRANCH   1  20
ATOM     19  C   UNL     1      34.313 -20.722 -19.849  0.00  0.00    -0.043 C 
ATOM     20  C   UNL     1      35.100 -18.373 -21.121  0.00  0.00    -0.013 C 
ATOM     21  C   UNL     1      33.358 -19.897 -20.443  0.00  0.00    -0.007 C 
ATOM     22  C   UNL     1      35.662 -20.370 -19.893  0.00  0.00    -0.007 C 
ATOM     23  C   UNL     1      33.751 -18.720 -21.080  0.00  0.00    -0.004 C 
ATOM     24  C   UNL     1      36.056 -19.193 -20.530  0.00  0.00    -0.004 C 
BRANCH  19  25
ATOM     25  C   UNL     1      33.892 -21.979 -19.167  0.00  0.00    -0.050 C 
BRANCH  25  26
ATOM     26  N   UNL     1      34.033 -21.898 -17.714  0.00  0.00    +0.387 N 
ATOM     27  N   UNL     1      34.737 -22.976 -15.128  0.00  0.00    +0.382 N 
ATOM     28  C   UNL     1      35.584 -21.976 -15.787  0.00  0.00    -0.083 C 
ATOM     29  C   UNL     1      35.437 -22.064 -17.315  0.00  0.00    -0.099 C 
ATOM     30  C   UNL     1      33.190 -22.902 -17.053  0.00  0.00    -0.101 C 
ATOM     31  C   UNL     1      33.340 -22.822 -15.533  0.00  0.00    -0.105 C 
ATOM     32  C   UNL     1      37.037 -22.203 -15.372  0.00  0.00    -0.026 C 
ATOM     33  H   UNL     1      33.722 -20.973 -17.418  0.00  0.00    -0.079 HD
ATOM     34  H   UNL     1      34.806 -22.860 -14.117  0.00  0.00    -0.085 HD
ATOM     35  H   UNL     1      35.055 -23.905 -15.402  0.00  0.00    -0.085 HD
ENDBRANCH  25  26
ENDBRANCH  19  25
ENDBRANCH   1  20
TORSDOF 6
ENDMDL
MODEL 8
REMARK VINA RESULT:     -11.5      3.228      6.043
REMARK  Name = 15984937
REMARK  6 active torsions:
REMARK  status: ('A' for Active; 'I' for Inactive)
REMARK    1  A    between atoms: C_1  and  C_9
REMARK    2  A    between atoms: C_1  and  C_20
REMARK    3  A    between atoms: C_4  and  N_10
REMARK    4  A    between atoms: N_10  and  C_13
REMARK    5  A    between atoms: C_19  and  C_25
REMARK    6  A    between atoms: C_25  and  N_26
REMARK                            x       y       z     vdW  Elec       q    Type
REMARK                         _______ _______ _______ _____ _____    ______ ____
ROOT
ATOM      1  C   UNL     1      33.460 -13.376 -22.983  0.00  0.00    +0.112 C 
ENDROOT
BRANCH   1   9
ATOM      2  O   UNL     1      32.103 -13.686 -21.066  0.00  0.00    -0.275 OA
ATOM      3  N   UNL     1      32.310 -11.507 -21.847  0.00  0.00    -0.279 N 
ATOM      4  C   UNL     1      30.756  -9.115 -22.414  0.00  0.00    +0.072 C 
ATOM      5  C   UNL     1      31.706  -9.731 -23.445  0.00  0.00    +0.041 C 
ATOM      6  C   UNL     1      30.304 -10.151 -21.378  0.00  0.00    +0.041 C 
ATOM      7  C   UNL     1      32.842 -10.524 -22.797  0.00  0.00    +0.095 C 
ATOM      8  C   UNL     1      31.470 -10.944 -20.789  0.00  0.00    +0.095 C 
ATOM      9  C   UNL     1      32.564 -12.879 -21.877  0.00  0.00    +0.230 C 
BRANCH   4  10
ATOM     10  N   UNL     1      31.398  -7.992 -21.758  0.00  0.00    -0.334 N 
ATOM     11  H   UNL     1      31.589  -8.063 -20.794  0.00  0.00    +0.147 HD
BRANCH  10  13
ATOM     12  F   UNL     1      30.190  -4.016 -24.155  0.00  0.00    -0.204 F 
ATOM     13  C   UNL     1      31.755  -6.827 -22.412  0.00  0.00    +0.047 C 
ATOM     14  C   UNL     1      30.777  -5.981 -22.971  0.00  0.00    +0.044 C 
ATOM     15  C   UNL     1      33.107  -6.452 -22.539  0.00  0.00    +0.014 C 
ATOM     16  C   UNL     1      31.137  -4.807 -23.632  0.00  0.00    +0.141 C 
ATOM     17  C   UNL     1      33.467  -5.277 -23.200  0.00  0.00    +0.004 C 
ATOM     18  C   UNL     1      32.481  -4.455 -23.746  0.00  0.00    +0.030 C 
ENDBRANCH  10  13
ENDBRANCH   4  10
ENDBRANCH   1   9
BRANCH   1  20
ATOM     19  C   UNL     1      34.744 -17.383 -22.198  0.00  0.00    -0.043 C 
ATOM     20  C   UNL     1      33.908 -14.776 -22.708  0.00  0.00    -0.013 C 
ATOM     21  C   UNL     1      34.407 -17.001 -23.497  0.00  0.00    -0.007 C 
ATOM     22  C   UNL     1      34.662 -16.460 -21.156  0.00  0.00    -0.007 C 
ATOM     23  C   UNL     1      33.988 -15.695 -23.753  0.00  0.00    -0.004 C 
ATOM     24  C   UNL     1      34.243 -15.154 -21.411  0.00  0.00    -0.004 C 
BRANCH  19  25
ATOM     25  C   UNL     1      35.190 -18.779 -21.925  0.00  0.00    -0.050 C 
BRANCH  25  26
ATOM     26  N   UNL     1      34.665 -19.294 -20.661  0.00  0.00    +0.387 N 
ATOM     27  N   UNL     1      33.832 -21.418 -18.889  0.00  0.00    +0.382 N 
ATOM     28  C   UNL     1      35.096 -20.705 -18.673  0.00  0.00    -0.083 C 
ATOM     29  C   UNL     1      35.648 -20.167 -20.004  0.00  0.00    -0.099 C 
ATOM     30  C   UNL     1      33.404 -20.014 -20.876  0.00  0.00    -0.101 C 
ATOM     31  C   UNL     1      32.856 -20.557 -19.555  0.00  0.00    -0.105 C 
ATOM     32  C   UNL     1      36.099 -21.654 -18.020  0.00  0.00    -0.026 C 
ATOM     33  H   UNL     1      34.481 -18.499 -20.049  0.00  0.00    -0.079 HD
ATOM     34  H   UNL     1      33.457 -21.715 -17.989  0.00  0.00    -0.085 HD
ATOM     35  H   UNL     1      34.011 -22.228 -19.484  0.00  0.00    -0.085 HD
ENDBRANCH  25  26
ENDBRANCH  19  25
ENDBRANCH   1  20
TORSDOF 6
ENDMDL
MODEL 9
REMARK VINA RESULT:     -11.4      3.368     10.590
REMARK  Name = 15984937
REMARK  6 active torsions:
REMARK  status: ('A' for Active; 'I' for Inactive)
REMARK    1  A    between atoms: C_1  and  C_9
REMARK    2  A    between atoms: C_1  and  C_20
REMARK    3  A    between atoms: C_4  and  N_10
REMARK    4  A    between atoms: N_10  and  C_13
REMARK    5  A    between atoms: C_19  and  C_25
REMARK    6  A    between atoms: C_25  and  N_26
REMARK                            x       y       z     vdW  Elec       q    Type
REMARK                         _______ _______ _______ _____ _____    ______ ____
ROOT
ATOM      1  C   UNL     1      34.965 -21.508 -19.333  0.00  0.00    +0.112 C 
ENDROOT
BRANCH   1   9
ATOM      2  O   UNL     1      36.627 -20.678 -17.862  0.00  0.00    -0.275 OA
ATOM      3  N   UNL     1      34.814 -21.749 -16.879  0.00  0.00    -0.279 N 
ATOM      4  C   UNL     1      34.133 -23.692 -14.825  0.00  0.00    +0.072 C 
ATOM      5  C   UNL     1      33.612 -23.810 -16.261  0.00  0.00    +0.041 C 
ATOM      6  C   UNL     1      35.418 -22.859 -14.761  0.00  0.00    +0.041 C 
ATOM      7  C   UNL     1      33.532 -22.456 -16.968  0.00  0.00    +0.095 C 
ATOM      8  C   UNL     1      35.301 -21.535 -15.516  0.00  0.00    +0.095 C 
ATOM      9  C   UNL     1      35.549 -21.270 -17.964  0.00  0.00    +0.230 C 
BRANCH   4  10
ATOM     10  N   UNL     1      33.113 -23.112 -13.974  0.00  0.00    -0.334 N 
ATOM     11  H   UNL     1      33.394 -22.474 -13.278  0.00  0.00    +0.147 HD
BRANCH  10  13
ATOM     12  F   UNL     1      28.625 -21.793 -15.041  0.00  0.00    -0.204 F 
ATOM     13  C   UNL     1      31.767 -23.408 -14.084  0.00  0.00    +0.047 C 
ATOM     14  C   UNL     1      30.844 -22.435 -14.516  0.00  0.00    +0.044 C 
ATOM     15  C   UNL     1      31.277 -24.690 -13.766  0.00  0.00    +0.014 C 
ATOM     16  C   UNL     1      29.485 -22.733 -14.626  0.00  0.00    +0.141 C 
ATOM     17  C   UNL     1      29.919 -24.988 -13.875  0.00  0.00    +0.004 C 
ATOM     18  C   UNL     1      29.023 -24.009 -14.305  0.00  0.00    +0.030 C 
ENDBRANCH  10  13
ENDBRANCH   4  10
ENDBRANCH   1   9
BRANCH   1  20
ATOM     19  C   UNL     1      35.134 -17.935 -21.685  0.00  0.00    -0.043 C 
ATOM     20  C   UNL     1      35.024 -20.259 -20.155  0.00  0.00    -0.013 C 
ATOM     21  C   UNL     1      36.288 -18.421 -21.072  0.00  0.00    -0.007 C 
ATOM     22  C   UNL     1      33.925 -18.613 -21.533  0.00  0.00    -0.007 C 
ATOM     23  C   UNL     1      36.234 -19.585 -20.305  0.00  0.00    -0.004 C 
ATOM     24  C   UNL     1      33.869 -19.777 -20.766  0.00  0.00    -0.004 C 
BRANCH  19  25
ATOM     25  C   UNL     1      35.192 -16.690 -22.504  0.00  0.00    -0.050 C 
BRANCH  25  26
ATOM     26  N   UNL     1      34.132 -15.745 -22.155  0.00  0.00    +0.387 N 
ATOM     27  N   UNL     1      33.160 -13.160 -21.307  0.00  0.00    +0.382 N 
ATOM     28  C   UNL     1      33.025 -13.599 -22.700  0.00  0.00    -0.083 C 
ATOM     29  C   UNL     1      34.142 -14.591 -23.066  0.00  0.00    -0.099 C 
ATOM     30  C   UNL     1      34.270 -15.300 -20.763  0.00  0.00    -0.101 C 
ATOM     31  C   UNL     1      33.165 -14.307 -20.399  0.00  0.00    -0.105 C 
ATOM     32  C   UNL     1      33.072 -12.376 -23.614  0.00  0.00    -0.026 C 
ATOM     33  H   UNL     1      33.237 -16.224 -22.252  0.00  0.00    -0.079 HD
ATOM     34  H   UNL     1      32.378 -12.550 -21.070  0.00  0.00    -0.085 HD
ATOM     35  H   UNL     1      34.044 -12.661 -21.205  0.00  0.00    -0.085 HD
ENDBRANCH  25  26
ENDBRANCH  19  25
ENDBRANCH   1  20
TORSDOF 6
ENDMDL
