MODEL 1
REMARK VINA RESULT:     -14.2      0.000      0.000
REMARK  Name = 16049404
REMARK  7 active torsions:
REMARK  status: ('A' for Active; 'I' for Inactive)
REMARK    1  A    between atoms: C_3  and  C_30
REMARK    2  A    between atoms: C_4  and  C_18
REMARK    3  A    between atoms: C_15  and  C_27
REMARK    4  A    between atoms: N_29  and  C_31
REMARK    5  A    between atoms: N_29  and  C_34
REMARK    6  A    between atoms: C_31  and  C_32
REMARK    7  A    between atoms: C_34  and  C_35
REMARK                            x       y       z     vdW  Elec       q    Type
REMARK                         _______ _______ _______ _____ _____    ______ ____
ROOT
ATOM      1  N   UNL     1      36.348 -19.504 -20.969  0.00  0.00    -0.396 NA
ATOM      2  N   UNL     1      37.626 -17.943 -22.144  0.00  0.00    -0.336 N 
ATOM      3  C   UNL     1      34.232 -17.974 -22.475  0.00  0.00    +0.040 C 
ATOM      4  C   UNL     1      34.225 -21.235 -18.497  0.00  0.00    -0.015 C 
ATOM      5  C   UNL     1      35.301 -17.350 -21.636  0.00  0.00    +0.105 C 
ATOM      6  C   UNL     1      33.865 -19.820 -20.893  0.00  0.00    +0.026 C 
ATOM      7  C   UNL     1      33.582 -19.099 -22.144  0.00  0.00    +0.003 C 
ATOM      8  C   UNL     1      35.163 -19.957 -20.354  0.00  0.00    +0.114 C 
ATOM      9  C   UNL     1      35.319 -20.672 -19.155  0.00  0.00    +0.085 C 
ATOM     10  C   UNL     1      32.952 -21.106 -19.036  0.00  0.00    -0.004 C 
ATOM     11  C   UNL     1      32.773 -20.408 -20.230  0.00  0.00    +0.002 C 
ATOM     12  C   UNL     1      36.450 -18.341 -21.554  0.00  0.00    +0.158 C 
ATOM     13  H   UNL     1      38.411 -18.537 -22.127  0.00  0.00    +0.144 HD
ATOM     14  H   UNL     1      37.684 -17.064 -22.582  0.00  0.00    +0.144 HD
ENDROOT
BRANCH   4  18
ATOM     15  C   UNL     1      34.793 -23.363 -14.878  0.00  0.00    +0.054 C 
ATOM     16  C   UNL     1      35.825 -22.583 -15.398  0.00  0.00    +0.005 C 
ATOM     17  C   UNL     1      33.572 -23.442 -15.549  0.00  0.00    +0.005 C 
ATOM     18  C   UNL     1      34.418 -21.962 -17.260  0.00  0.00    -0.004 C 
ATOM     19  C   UNL     1      35.638 -21.883 -16.589  0.00  0.00    -0.000 C 
ATOM     20  C   UNL     1      33.385 -22.741 -16.740  0.00  0.00    -0.000 C 
BRANCH  15  27
ATOM     21  O   UNL     1      34.011 -24.253 -12.893  0.00  0.00    -0.270 OA
ATOM     22  N   UNL     1      36.263 -24.582 -13.353  0.00  0.00    -0.276 N 
ATOM     23  C   UNL     1      38.431 -25.466 -13.623  0.00  0.00    +0.023 C 
ATOM     24  C   UNL     1      38.052 -25.530 -12.149  0.00  0.00    +0.023 C 
ATOM     25  C   UNL     1      37.461 -24.434 -14.178  0.00  0.00    +0.094 C 
ATOM     26  C   UNL     1      36.537 -25.406 -12.185  0.00  0.00    +0.094 C 
ATOM     27  C   UNL     1      34.990 -24.103 -13.621  0.00  0.00    +0.249 C 
ENDBRANCH  15  27
ENDBRANCH   4  18
BRANCH   3  30
ATOM     28  O   UNL     1      33.412 -18.042 -24.648  0.00  0.00    -0.270 OA
ATOM     29  N   UNL     1      33.998 -15.943 -23.827  0.00  0.00    -0.276 N 
ATOM     30  C   UNL     1      33.853 -17.331 -23.736  0.00  0.00    +0.245 C 
BRANCH  29  31
ATOM     31  C   UNL     1      33.635 -15.200 -25.031  0.00  0.00    +0.094 C 
BRANCH  31  32
ATOM     32  C   UNL     1      32.711 -14.026 -24.733  0.00  0.00    +0.022 C 
ATOM     33  C   UNL     1      32.698 -12.989 -25.847  0.00  0.00    +0.002 C 
ENDBRANCH  31  32
ENDBRANCH  29  31
BRANCH  29  34
ATOM     34  C   UNL     1      34.521 -15.142 -22.727  0.00  0.00    +0.094 C 
BRANCH  34  35
ATOM     35  C   UNL     1      33.440 -14.308 -22.051  0.00  0.00    +0.022 C 
ATOM     36  C   UNL     1      33.602 -14.249 -20.539  0.00  0.00    +0.002 C 
ENDBRANCH  34  35
ENDBRANCH  29  34
ENDBRANCH   3  30
TORSDOF 7
ENDMDL
MODEL 2
REMARK VINA RESULT:     -13.5      1.962     11.056
REMARK  Name = 16049404
REMARK  7 active torsions:
REMARK  status: ('A' for Active; 'I' for Inactive)
REMARK    1  A    between atoms: C_3  and  C_30
REMARK    2  A    between atoms: C_4  and  C_18
REMARK    3  A    between atoms: C_15  and  C_27
REMARK    4  A    between atoms: N_29  and  C_31
REMARK    5  A    between atoms: N_29  and  C_34
REMARK    6  A    between atoms: C_31  and  C_32
REMARK    7  A    between atoms: C_34  and  C_35
REMARK                            x       y       z     vdW  Elec       q    Type
REMARK                         _______ _______ _______ _____ _____    ______ ____
ROOT
ATOM      1  N   UNL     1      32.195 -21.889 -18.480  0.00  0.00    -0.396 NA
ATOM      2  N   UNL     1      30.736 -22.812 -16.909  0.00  0.00    -0.336 N 
ATOM      3  C   UNL     1      34.101 -22.878 -16.365  0.00  0.00    +0.040 C 
ATOM      4  C   UNL     1      34.457 -19.670 -20.370  0.00  0.00    -0.015 C 
ATOM      5  C   UNL     1      32.911 -22.014 -16.102  0.00  0.00    +0.105 C 
ATOM      6  C   UNL     1      34.691 -21.688 -18.434  0.00  0.00    +0.026 C 
ATOM      7  C   UNL     1      34.909 -22.737 -17.426  0.00  0.00    +0.003 C 
ATOM      8  C   UNL     1      33.409 -21.291 -18.875  0.00  0.00    +0.114 C 
ATOM      9  C   UNL     1      33.317 -20.280 -19.847  0.00  0.00    +0.085 C 
ATOM     10  C   UNL     1      35.716 -20.071 -19.941  0.00  0.00    -0.004 C 
ATOM     11  C   UNL     1      35.832 -21.077 -18.983  0.00  0.00    +0.002 C 
ATOM     12  C   UNL     1      31.933 -22.228 -17.247  0.00  0.00    +0.158 C 
ATOM     13  H   UNL     1      30.057 -22.979 -17.602  0.00  0.00    +0.144 HD
ATOM     14  H   UNL     1      30.557 -23.063 -15.974  0.00  0.00    +0.144 HD
ENDROOT
BRANCH   4  18
ATOM     15  C   UNL     1      34.082 -16.620 -23.286  0.00  0.00    +0.054 C 
ATOM     16  C   UNL     1      34.593 -16.320 -22.024  0.00  0.00    +0.005 C 
ATOM     17  C   UNL     1      33.695 -17.926 -23.590  0.00  0.00    +0.005 C 
ATOM     18  C   UNL     1      34.329 -18.629 -21.367  0.00  0.00    -0.004 C 
ATOM     19  C   UNL     1      34.716 -17.323 -21.064  0.00  0.00    -0.000 C 
ATOM     20  C   UNL     1      33.820 -18.930 -22.630  0.00  0.00    -0.000 C 
BRANCH  15  27
ATOM     21  O   UNL     1      34.249 -15.845 -25.457  0.00  0.00    -0.270 OA
ATOM     22  N   UNL     1      33.496 -14.321 -23.875  0.00  0.00    -0.276 N 
ATOM     23  C   UNL     1      32.342 -12.638 -22.697  0.00  0.00    +0.023 C 
ATOM     24  C   UNL     1      32.975 -12.025 -23.940  0.00  0.00    +0.023 C 
ATOM     25  C   UNL     1      33.130 -13.926 -22.516  0.00  0.00    +0.094 C 
ATOM     26  C   UNL     1      33.243 -13.239 -24.815  0.00  0.00    +0.094 C 
ATOM     27  C   UNL     1      33.952 -15.560 -24.299  0.00  0.00    +0.249 C 
ENDBRANCH  15  27
ENDBRANCH   4  18
BRANCH   3  30
ATOM     28  O   UNL     1      33.829 -25.024 -15.517  0.00  0.00    -0.270 OA
ATOM     29  N   UNL     1      35.413 -23.685 -14.458  0.00  0.00    -0.276 N 
ATOM     30  C   UNL     1      34.428 -23.946 -15.416  0.00  0.00    +0.245 C 
BRANCH  29  31
ATOM     31  C   UNL     1      35.827 -24.683 -13.475  0.00  0.00    +0.094 C 
BRANCH  31  32
ATOM     32  C   UNL     1      36.939 -25.586 -13.996  0.00  0.00    +0.022 C 
ATOM     33  C   UNL     1      38.261 -25.367 -13.275  0.00  0.00    +0.002 C 
ENDBRANCH  31  32
ENDBRANCH  29  31
BRANCH  29  34
ATOM     34  C   UNL     1      36.095 -22.400 -14.375  0.00  0.00    +0.094 C 
BRANCH  34  35
ATOM     35  C   UNL     1      37.327 -22.337 -15.270  0.00  0.00    +0.022 C 
ATOM     36  C   UNL     1      37.472 -20.999 -15.980  0.00  0.00    +0.002 C 
ENDBRANCH  34  35
ENDBRANCH  29  34
ENDBRANCH   3  30
TORSDOF 7
ENDMDL
MODEL 3
REMARK VINA RESULT:     -13.2      1.542     11.240
REMARK  Name = 16049404
REMARK  7 active torsions:
REMARK  status: ('A' for Active; 'I' for Inactive)
REMARK    1  A    between atoms: C_3  and  C_30
REMARK    2  A    between atoms: C_4  and  C_18
REMARK    3  A    between atoms: C_15  and  C_27
REMARK    4  A    between atoms: N_29  and  C_31
REMARK    5  A    between atoms: N_29  and  C_34
REMARK    6  A    between atoms: C_31  and  C_32
REMARK    7  A    between atoms: C_34  and  C_35
REMARK                            x       y       z     vdW  Elec       q    Type
REMARK                         _______ _______ _______ _____ _____    ______ ____
ROOT
ATOM      1  N   UNL     1      32.770 -23.043 -16.837  0.00  0.00    -0.396 NA
ATOM      2  N   UNL     1      31.338 -23.913 -15.212  0.00  0.00    -0.336 N 
ATOM      3  C   UNL     1      34.588 -23.228 -14.441  0.00  0.00    +0.040 C 
ATOM      4  C   UNL     1      34.794 -20.831 -18.988  0.00  0.00    -0.015 C 
ATOM      5  C   UNL     1      33.244 -22.574 -14.442  0.00  0.00    +0.105 C 
ATOM      6  C   UNL     1      35.173 -22.361 -16.666  0.00  0.00    +0.026 C 
ATOM      7  C   UNL     1      35.465 -23.138 -15.451  0.00  0.00    +0.003 C 
ATOM      8  C   UNL     1      33.895 -22.309 -17.265  0.00  0.00    +0.114 C 
ATOM      9  C   UNL     1      33.730 -21.539 -18.428  0.00  0.00    +0.085 C 
ATOM     10  C   UNL     1      36.051 -20.894 -18.401  0.00  0.00    -0.004 C 
ATOM     11  C   UNL     1      36.242 -21.659 -17.251  0.00  0.00    +0.002 C 
ATOM     12  C   UNL     1      32.444 -23.186 -15.581  0.00  0.00    +0.158 C 
ATOM     13  H   UNL     1      30.775 -24.336 -15.899  0.00  0.00    +0.144 HD
ATOM     14  H   UNL     1      31.109 -24.012 -14.259  0.00  0.00    +0.144 HD
ENDROOT
BRANCH   4  18
ATOM     15  C   UNL     1      34.202 -18.521 -22.489  0.00  0.00    +0.054 C 
ATOM     16  C   UNL     1      35.478 -18.642 -21.940  0.00  0.00    +0.005 C 
ATOM     17  C   UNL     1      33.119 -19.162 -21.886  0.00  0.00    +0.005 C 
ATOM     18  C   UNL     1      34.591 -20.043 -20.184  0.00  0.00    -0.004 C 
ATOM     19  C   UNL     1      35.673 -19.403 -20.788  0.00  0.00    -0.000 C 
ATOM     20  C   UNL     1      33.314 -19.923 -20.733  0.00  0.00    -0.000 C 
BRANCH  15  27
ATOM     21  O   UNL     1      33.792 -18.324 -24.755  0.00  0.00    -0.270 OA
ATOM     22  N   UNL     1      34.040 -16.339 -23.578  0.00  0.00    -0.276 N 
ATOM     23  C   UNL     1      33.824 -14.158 -22.712  0.00  0.00    +0.023 C 
ATOM     24  C   UNL     1      34.118 -14.069 -24.204  0.00  0.00    +0.023 C 
ATOM     25  C   UNL     1      34.279 -15.566 -22.360  0.00  0.00    +0.094 C 
ATOM     26  C   UNL     1      33.754 -15.459 -24.702  0.00  0.00    +0.094 C 
ATOM     27  C   UNL     1      33.997 -17.718 -23.705  0.00  0.00    +0.249 C 
ENDBRANCH  15  27
ENDBRANCH   4  18
BRANCH   3  30
ATOM     28  O   UNL     1      34.291 -23.962 -12.256  0.00  0.00    -0.270 OA
ATOM     29  N   UNL     1      36.156 -24.786 -13.381  0.00  0.00    -0.276 N 
ATOM     30  C   UNL     1      34.996 -24.012 -13.272  0.00  0.00    +0.245 C 
BRANCH  29  31
ATOM     31  C   UNL     1      36.643 -25.617 -12.283  0.00  0.00    +0.094 C 
BRANCH  31  32
ATOM     32  C   UNL     1      37.169 -24.790 -11.118  0.00  0.00    +0.022 C 
ATOM     33  C   UNL     1      37.811 -23.484 -11.565  0.00  0.00    +0.002 C 
ENDBRANCH  31  32
ENDBRANCH  29  31
BRANCH  29  34
ATOM     34  C   UNL     1      36.958 -24.817 -14.598  0.00  0.00    +0.094 C 
BRANCH  34  35
ATOM     35  C   UNL     1      38.209 -25.672 -14.447  0.00  0.00    +0.022 C 
ATOM     36  C   UNL     1      39.493 -24.875 -14.631  0.00  0.00    +0.002 C 
ENDBRANCH  34  35
ENDBRANCH  29  34
ENDBRANCH   3  30
TORSDOF 7
ENDMDL
MODEL 4
REMARK VINA RESULT:     -13.1      5.397      9.376
REMARK  Name = 16049404
REMARK  7 active torsions:
REMARK  status: ('A' for Active; 'I' for Inactive)
REMARK    1  A    between atoms: C_3  and  C_30
REMARK    2  A    between atoms: C_4  and  C_18
REMARK    3  A    between atoms: C_15  and  C_27
REMARK    4  A    between atoms: N_29  and  C_31
REMARK    5  A    between atoms: N_29  and  C_34
REMARK    6  A    between atoms: C_31  and  C_32
REMARK    7  A    between atoms: C_34  and  C_35
REMARK                            x       y       z     vdW  Elec       q    Type
REMARK                         _______ _______ _______ _____ _____    ______ ____
ROOT
ATOM      1  N   UNL     1      32.026 -10.785 -20.362  0.00  0.00    -0.396 NA
ATOM      2  N   UNL     1      30.596  -9.321 -19.242  0.00  0.00    -0.336 N 
ATOM      3  C   UNL     1      30.892  -9.164 -22.635  0.00  0.00    +0.040 C 
ATOM      4  C   UNL     1      33.472 -13.598 -22.263  0.00  0.00    -0.015 C 
ATOM      5  C   UNL     1      30.076  -9.842 -21.581  0.00  0.00    +0.105 C 
ATOM      6  C   UNL     1      32.482 -11.031 -22.812  0.00  0.00    +0.026 C 
ATOM      7  C   UNL     1      31.988  -9.698 -23.192  0.00  0.00    +0.003 C 
ATOM      8  C   UNL     1      32.450 -11.521 -21.488  0.00  0.00    +0.114 C 
ATOM      9  C   UNL     1      32.953 -12.808 -21.237  0.00  0.00    +0.085 C 
ATOM     10  C   UNL     1      33.510 -13.108 -23.562  0.00  0.00    -0.004 C 
ATOM     11  C   UNL     1      33.024 -11.830 -23.834  0.00  0.00    +0.002 C 
ATOM     12  C   UNL     1      30.968 -10.022 -20.363  0.00  0.00    +0.158 C 
ATOM     13  H   UNL     1      31.128  -9.392 -18.417  0.00  0.00    +0.144 HD
ATOM     14  H   UNL     1      29.795  -8.748 -19.262  0.00  0.00    +0.144 HD
ENDROOT
BRANCH   4  18
ATOM     15  C   UNL     1      34.958 -17.473 -21.412  0.00  0.00    +0.054 C 
ATOM     16  C   UNL     1      34.606 -16.616 -20.369  0.00  0.00    +0.005 C 
ATOM     17  C   UNL     1      34.820 -17.055 -22.736  0.00  0.00    +0.005 C 
ATOM     18  C   UNL     1      33.979 -14.922 -21.973  0.00  0.00    -0.004 C 
ATOM     19  C   UNL     1      34.116 -15.341 -20.650  0.00  0.00    -0.000 C 
ATOM     20  C   UNL     1      34.330 -15.779 -23.016  0.00  0.00    -0.000 C 
BRANCH  15  27
ATOM     21  O   UNL     1      36.663 -19.032 -21.345  0.00  0.00    -0.270 OA
ATOM     22  N   UNL     1      34.586 -19.745 -20.591  0.00  0.00    -0.276 N 
ATOM     23  C   UNL     1      32.804 -20.716 -19.394  0.00  0.00    +0.023 C 
ATOM     24  C   UNL     1      33.735 -21.822 -19.875  0.00  0.00    +0.023 C 
ATOM     25  C   UNL     1      33.167 -19.549 -20.299  0.00  0.00    +0.094 C 
ATOM     26  C   UNL     1      35.023 -21.070 -20.176  0.00  0.00    +0.094 C 
ATOM     27  C   UNL     1      35.474 -18.819 -21.115  0.00  0.00    +0.249 C 
ENDBRANCH  15  27
ENDBRANCH   4  18
BRANCH   3  30
ATOM     28  O   UNL     1      29.563  -7.767 -23.932  0.00  0.00    -0.270 OA
ATOM     29  N   UNL     1      31.150  -6.727 -22.581  0.00  0.00    -0.276 N 
ATOM     30  C   UNL     1      30.483  -7.838 -23.106  0.00  0.00    +0.245 C 
BRANCH  29  31
ATOM     31  C   UNL     1      30.812  -5.360 -22.971  0.00  0.00    +0.094 C 
BRANCH  31  32
ATOM     32  C   UNL     1      30.065  -4.612 -21.873  0.00  0.00    +0.022 C 
ATOM     33  C   UNL     1      30.166  -3.100 -22.018  0.00  0.00    +0.002 C 
ENDBRANCH  31  32
ENDBRANCH  29  31
BRANCH  29  34
ATOM     34  C   UNL     1      32.228  -6.856 -21.609  0.00  0.00    +0.094 C 
BRANCH  34  35
ATOM     35  C   UNL     1      33.528  -6.228 -22.097  0.00  0.00    +0.022 C 
ATOM     36  C   UNL     1      34.174  -7.016 -23.228  0.00  0.00    +0.002 C 
ENDBRANCH  34  35
ENDBRANCH  29  34
ENDBRANCH   3  30
TORSDOF 7
ENDMDL
MODEL 5
REMARK VINA RESULT:     -13.1      4.570     12.435
REMARK  Name = 16049404
REMARK  7 active torsions:
REMARK  status: ('A' for Active; 'I' for Inactive)
REMARK    1  A    between atoms: C_3  and  C_30
REMARK    2  A    between atoms: C_4  and  C_18
REMARK    3  A    between atoms: C_15  and  C_27
REMARK    4  A    between atoms: N_29  and  C_31
REMARK    5  A    between atoms: N_29  and  C_34
REMARK    6  A    between atoms: C_31  and  C_32
REMARK    7  A    between atoms: C_34  and  C_35
REMARK                            x       y       z     vdW  Elec       q    Type
REMARK                         _______ _______ _______ _____ _____    ______ ____
ROOT
ATOM      1  N   UNL     1      34.171 -15.825 -23.822  0.00  0.00    -0.396 NA
ATOM      2  N   UNL     1      34.340 -17.818 -25.024  0.00  0.00    -0.336 N 
ATOM      3  C   UNL     1      34.568 -17.848 -21.622  0.00  0.00    +0.040 C 
ATOM      4  C   UNL     1      32.987 -12.956 -21.826  0.00  0.00    -0.015 C 
ATOM      5  C   UNL     1      33.546 -17.958 -22.707  0.00  0.00    +0.105 C 
ATOM      6  C   UNL     1      34.229 -15.428 -21.350  0.00  0.00    +0.026 C 
ATOM      7  C   UNL     1      34.886 -16.699 -21.007  0.00  0.00    +0.003 C 
ATOM      8  C   UNL     1      33.876 -15.068 -22.669  0.00  0.00    +0.114 C 
ATOM      9  C   UNL     1      33.258 -13.825 -22.883  0.00  0.00    +0.085 C 
ATOM     10  C   UNL     1      33.346 -13.310 -20.531  0.00  0.00    -0.004 C 
ATOM     11  C   UNL     1      33.968 -14.535 -20.295  0.00  0.00    +0.002 C 
ATOM     12  C   UNL     1      34.036 -17.122 -23.879  0.00  0.00    +0.158 C 
ATOM     13  H   UNL     1      34.662 -17.339 -25.821  0.00  0.00    +0.144 HD
ATOM     14  H   UNL     1      34.234 -18.797 -25.048  0.00  0.00    +0.144 HD
ENDROOT
BRANCH   4  18
ATOM     15  C   UNL     1      31.109  -9.232 -22.565  0.00  0.00    +0.054 C 
ATOM     16  C   UNL     1      32.195  -9.633 -23.343  0.00  0.00    +0.005 C 
ATOM     17  C   UNL     1      30.640 -10.058 -21.543  0.00  0.00    +0.005 C 
ATOM     18  C   UNL     1      32.345 -11.684 -22.078  0.00  0.00    -0.004 C 
ATOM     19  C   UNL     1      32.812 -10.859 -23.100  0.00  0.00    -0.000 C 
ATOM     20  C   UNL     1      31.258 -11.285 -21.300  0.00  0.00    -0.000 C 
BRANCH  15  27
ATOM     21  O   UNL     1      29.554  -7.915 -23.656  0.00  0.00    -0.270 OA
ATOM     22  N   UNL     1      30.902  -6.841 -22.100  0.00  0.00    -0.276 N 
ATOM     23  C   UNL     1      31.756  -5.493 -20.366  0.00  0.00    +0.023 C 
ATOM     24  C   UNL     1      31.166  -4.593 -21.445  0.00  0.00    +0.023 C 
ATOM     25  C   UNL     1      31.968  -6.809 -21.099  0.00  0.00    +0.094 C 
ATOM     26  C   UNL     1      30.257  -5.541 -22.212  0.00  0.00    +0.094 C 
ATOM     27  C   UNL     1      30.457  -7.938 -22.822  0.00  0.00    +0.249 C 
ENDBRANCH  15  27
ENDBRANCH   4  18
BRANCH   3  30
ATOM     28  O   UNL     1      36.461 -19.189 -21.501  0.00  0.00    -0.270 OA
ATOM     29  N   UNL     1      34.559 -19.982 -20.416  0.00  0.00    -0.276 N 
ATOM     30  C   UNL     1      35.272 -19.055 -21.184  0.00  0.00    +0.245 C 
BRANCH  29  31
ATOM     31  C   UNL     1      35.169 -21.211 -19.915  0.00  0.00    +0.094 C 
BRANCH  31  32
ATOM     32  C   UNL     1      36.087 -20.960 -18.725  0.00  0.00    +0.022 C 
ATOM     33  C   UNL     1      35.609 -21.650 -17.456  0.00  0.00    +0.002 C 
ENDBRANCH  31  32
ENDBRANCH  29  31
BRANCH  29  34
ATOM     34  C   UNL     1      33.159 -19.784 -20.064  0.00  0.00    +0.094 C 
BRANCH  34  35
ATOM     35  C   UNL     1      32.427 -21.101 -19.833  0.00  0.00    +0.022 C 
ATOM     36  C   UNL     1      32.017 -21.299 -18.381  0.00  0.00    +0.002 C 
ENDBRANCH  34  35
ENDBRANCH  29  34
ENDBRANCH   3  30
TORSDOF 7
ENDMDL
MODEL 6
REMARK VINA RESULT:     -12.4      2.123     11.241
REMARK  Name = 16049404
REMARK  7 active torsions:
REMARK  status: ('A' for Active; 'I' for Inactive)
REMARK    1  A    between atoms: C_3  and  C_30
REMARK    2  A    between atoms: C_4  and  C_18
REMARK    3  A    between atoms: C_15  and  C_27
REMARK    4  A    between atoms: N_29  and  C_31
REMARK    5  A    between atoms: N_29  and  C_34
REMARK    6  A    between atoms: C_31  and  C_32
REMARK    7  A    between atoms: C_34  and  C_35
REMARK                            x       y       z     vdW  Elec       q    Type
REMARK                         _______ _______ _______ _____ _____    ______ ____
ROOT
ATOM      1  N   UNL     1      32.494 -22.065 -18.515  0.00  0.00    -0.396 NA
ATOM      2  N   UNL     1      31.029 -23.139 -17.050  0.00  0.00    -0.336 N 
ATOM      3  C   UNL     1      34.314 -22.764 -16.217  0.00  0.00    +0.040 C 
ATOM      4  C   UNL     1      34.618 -19.607 -20.267  0.00  0.00    -0.015 C 
ATOM      5  C   UNL     1      33.005 -22.056 -16.082  0.00  0.00    +0.105 C 
ATOM      6  C   UNL     1      34.931 -21.544 -18.260  0.00  0.00    +0.026 C 
ATOM      7  C   UNL     1      35.189 -22.540 -17.208  0.00  0.00    +0.003 C 
ATOM      8  C   UNL     1      33.654 -21.322 -18.821  0.00  0.00    +0.114 C 
ATOM      9  C   UNL     1      33.522 -20.349 -19.826  0.00  0.00    +0.085 C 
ATOM     10  C   UNL     1      35.874 -19.836 -19.719  0.00  0.00    -0.004 C 
ATOM     11  C   UNL     1      36.031 -20.803 -18.726  0.00  0.00    +0.002 C 
ATOM     12  C   UNL     1      32.168 -22.413 -17.300  0.00  0.00    +0.158 C 
ATOM     13  H   UNL     1      30.441 -23.403 -17.794  0.00  0.00    +0.144 HD
ATOM     14  H   UNL     1      30.801 -23.395 -16.127  0.00  0.00    +0.144 HD
ENDROOT
BRANCH   4  18
ATOM     15  C   UNL     1      34.125 -16.686 -23.295  0.00  0.00    +0.054 C 
ATOM     16  C   UNL     1      33.736 -18.005 -23.527  0.00  0.00    +0.005 C 
ATOM     17  C   UNL     1      34.676 -16.328 -22.064  0.00  0.00    +0.005 C 
ATOM     18  C   UNL     1      34.449 -18.608 -21.300  0.00  0.00    -0.004 C 
ATOM     19  C   UNL     1      33.897 -18.966 -22.530  0.00  0.00    -0.000 C 
ATOM     20  C   UNL     1      34.838 -17.290 -21.066  0.00  0.00    -0.000 C 
BRANCH  15  27
ATOM     21  O   UNL     1      34.227 -16.000 -25.499  0.00  0.00    -0.270 OA
ATOM     22  N   UNL     1      33.487 -14.423 -23.964  0.00  0.00    -0.276 N 
ATOM     23  C   UNL     1      32.333 -12.710 -22.830  0.00  0.00    +0.023 C 
ATOM     24  C   UNL     1      32.926 -12.140 -24.112  0.00  0.00    +0.023 C 
ATOM     25  C   UNL     1      33.147 -13.977 -22.614  0.00  0.00    +0.094 C 
ATOM     26  C   UNL     1      33.194 -13.386 -24.942  0.00  0.00    +0.094 C 
ATOM     27  C   UNL     1      33.953 -15.671 -24.347  0.00  0.00    +0.249 C 
ENDBRANCH  15  27
ENDBRANCH   4  18
BRANCH   3  30
ATOM     28  O   UNL     1      35.649 -24.506 -15.452  0.00  0.00    -0.270 OA
ATOM     29  N   UNL     1      33.939 -23.812 -14.032  0.00  0.00    -0.276 N 
ATOM     30  C   UNL     1      34.687 -23.765 -15.213  0.00  0.00    +0.245 C 
BRANCH  29  31
ATOM     31  C   UNL     1      34.235 -24.759 -12.960  0.00  0.00    +0.094 C 
BRANCH  31  32
ATOM     32  C   UNL     1      34.961 -24.104 -11.791  0.00  0.00    +0.022 C 
ATOM     33  C   UNL     1      36.474 -24.221 -11.898  0.00  0.00    +0.002 C 
ENDBRANCH  31  32
ENDBRANCH  29  31
BRANCH  29  34
ATOM     34  C   UNL     1      32.813 -22.918 -13.790  0.00  0.00    +0.094 C 
BRANCH  34  35
ATOM     35  C   UNL     1      31.558 -23.670 -13.364  0.00  0.00    +0.022 C 
ATOM     36  C   UNL     1      30.284 -22.871 -13.602  0.00  0.00    +0.002 C 
ENDBRANCH  34  35
ENDBRANCH  29  34
ENDBRANCH   3  30
TORSDOF 7
ENDMDL
MODEL 7
REMARK VINA RESULT:     -12.3      5.658      9.783
REMARK  Name = 16049404
REMARK  7 active torsions:
REMARK  status: ('A' for Active; 'I' for Inactive)
REMARK    1  A    between atoms: C_3  and  C_30
REMARK    2  A    between atoms: C_4  and  C_18
REMARK    3  A    between atoms: C_15  and  C_27
REMARK    4  A    between atoms: N_29  and  C_31
REMARK    5  A    between atoms: N_29  and  C_34
REMARK    6  A    between atoms: C_31  and  C_32
REMARK    7  A    between atoms: C_34  and  C_35
REMARK                            x       y       z     vdW  Elec       q    Type
REMARK                         _______ _______ _______ _____ _____    ______ ____
ROOT
ATOM      1  N   UNL     1      33.978  -9.933 -23.979  0.00  0.00    -0.396 NA
ATOM      2  N   UNL     1      34.820  -7.856 -24.629  0.00  0.00    -0.336 N 
ATOM      3  C   UNL     1      31.908  -8.047 -22.866  0.00  0.00    +0.040 C 
ATOM      4  C   UNL     1      33.093 -12.998 -22.124  0.00  0.00    -0.015 C 
ATOM      5  C   UNL     1      33.381  -7.923 -22.644  0.00  0.00    +0.105 C 
ATOM      6  C   UNL     1      31.934 -10.496 -22.647  0.00  0.00    +0.026 C 
ATOM      7  C   UNL     1      31.247  -9.215 -22.874  0.00  0.00    +0.003 C 
ATOM      8  C   UNL     1      33.223 -10.784 -23.145  0.00  0.00    +0.114 C 
ATOM      9  C   UNL     1      33.782 -12.044 -22.873  0.00  0.00    +0.085 C 
ATOM     10  C   UNL     1      31.821 -12.713 -21.644  0.00  0.00    -0.004 C 
ATOM     11  C   UNL     1      31.242 -11.473 -21.909  0.00  0.00    +0.002 C 
ATOM     12  C   UNL     1      34.074  -8.646 -23.788  0.00  0.00    +0.158 C 
ATOM     13  H   UNL     1      35.296  -8.259 -25.390  0.00  0.00    +0.144 HD
ATOM     14  H   UNL     1      34.879  -6.886 -24.471  0.00  0.00    +0.144 HD
ENDROOT
BRANCH   4  18
ATOM     15  C   UNL     1      34.861 -16.768 -21.343  0.00  0.00    +0.054 C 
ATOM     16  C   UNL     1      34.782 -16.291 -22.651  0.00  0.00    +0.005 C 
ATOM     17  C   UNL     1      34.358 -16.002 -20.291  0.00  0.00    +0.005 C 
ATOM     18  C   UNL     1      33.697 -14.285 -21.856  0.00  0.00    -0.004 C 
ATOM     19  C   UNL     1      34.201 -15.050 -22.908  0.00  0.00    -0.000 C 
ATOM     20  C   UNL     1      33.776 -14.761 -20.548  0.00  0.00    -0.000 C 
BRANCH  15  27
ATOM     21  O   UNL     1      36.697 -18.161 -21.175  0.00  0.00    -0.270 OA
ATOM     22  N   UNL     1      34.633 -19.118 -20.713  0.00  0.00    -0.276 N 
ATOM     23  C   UNL     1      32.838 -20.337 -19.794  0.00  0.00    +0.023 C 
ATOM     24  C   UNL     1      33.923 -21.312 -20.231  0.00  0.00    +0.023 C 
ATOM     25  C   UNL     1      33.178 -19.077 -20.576  0.00  0.00    +0.094 C 
ATOM     26  C   UNL     1      35.153 -20.423 -20.333  0.00  0.00    +0.094 C 
ATOM     27  C   UNL     1      35.475 -18.077 -21.073  0.00  0.00    +0.249 C 
ENDBRANCH  15  27
ENDBRANCH   4  18
BRANCH   3  30
ATOM     28  O   UNL     1      30.450  -6.745 -24.122  0.00  0.00    -0.270 OA
ATOM     29  N   UNL     1      31.152  -5.848 -22.091  0.00  0.00    -0.276 N 
ATOM     30  C   UNL     1      31.117  -6.833 -23.083  0.00  0.00    +0.245 C 
BRANCH  29  31
ATOM     31  C   UNL     1      30.390  -4.606 -22.199  0.00  0.00    +0.094 C 
BRANCH  31  32
ATOM     32  C   UNL     1      31.280  -3.400 -22.471  0.00  0.00    +0.022 C 
ATOM     33  C   UNL     1      31.684  -3.284 -23.934  0.00  0.00    +0.002 C 
ENDBRANCH  31  32
ENDBRANCH  29  31
BRANCH  29  34
ATOM     34  C   UNL     1      31.952  -5.992 -20.881  0.00  0.00    +0.094 C 
BRANCH  34  35
ATOM     35  C   UNL     1      31.145  -6.552 -19.716  0.00  0.00    +0.022 C 
ATOM     36  C   UNL     1      31.495  -7.999 -19.398  0.00  0.00    +0.002 C 
ENDBRANCH  34  35
ENDBRANCH  29  34
ENDBRANCH   3  30
TORSDOF 7
ENDMDL
MODEL 8
REMARK VINA RESULT:     -12.3      6.725     11.733
REMARK  Name = 16049404
REMARK  7 active torsions:
REMARK  status: ('A' for Active; 'I' for Inactive)
REMARK    1  A    between atoms: C_3  and  C_30
REMARK    2  A    between atoms: C_4  and  C_18
REMARK    3  A    between atoms: C_15  and  C_27
REMARK    4  A    between atoms: N_29  and  C_31
REMARK    5  A    between atoms: N_29  and  C_34
REMARK    6  A    between atoms: C_31  and  C_32
REMARK    7  A    between atoms: C_34  and  C_35
REMARK                            x       y       z     vdW  Elec       q    Type
REMARK                         _______ _______ _______ _____ _____    ______ ____
ROOT
ATOM      1  N   UNL     1      33.632  -7.937 -23.361  0.00  0.00    -0.396 NA
ATOM      2  N   UNL     1      34.574  -5.805 -23.463  0.00  0.00    -0.336 N 
ATOM      3  C   UNL     1      31.353  -6.205 -22.418  0.00  0.00    +0.040 C 
ATOM      4  C   UNL     1      32.397 -11.240 -22.273  0.00  0.00    -0.015 C 
ATOM      5  C   UNL     1      32.743  -6.158 -21.870  0.00  0.00    +0.105 C 
ATOM      6  C   UNL     1      31.354  -8.656 -22.608  0.00  0.00    +0.026 C 
ATOM      7  C   UNL     1      30.721  -7.337 -22.760  0.00  0.00    +0.003 C 
ATOM      8  C   UNL     1      32.723  -8.893 -22.861  0.00  0.00    +0.114 C 
ATOM      9  C   UNL     1      33.222 -10.195 -22.689  0.00  0.00    +0.085 C 
ATOM     10  C   UNL     1      31.049 -11.004 -22.035  0.00  0.00    -0.004 C 
ATOM     11  C   UNL     1      30.529  -9.722 -22.208  0.00  0.00    +0.002 C 
ATOM     12  C   UNL     1      33.673  -6.702 -22.943  0.00  0.00    +0.158 C 
ATOM     13  H   UNL     1      35.206  -6.090 -24.161  0.00  0.00    +0.144 HD
ATOM     14  H   UNL     1      34.589  -4.876 -23.136  0.00  0.00    +0.144 HD
ENDROOT
BRANCH   4  18
ATOM     15  C   UNL     1      33.992 -15.131 -21.764  0.00  0.00    +0.054 C 
ATOM     16  C   UNL     1      33.440 -14.455 -20.676  0.00  0.00    +0.005 C 
ATOM     17  C   UNL     1      34.018 -14.526 -23.021  0.00  0.00    +0.005 C 
ATOM     18  C   UNL     1      32.942 -12.570 -22.100  0.00  0.00    -0.004 C 
ATOM     19  C   UNL     1      32.915 -13.175 -20.844  0.00  0.00    -0.000 C 
ATOM     20  C   UNL     1      33.492 -13.245 -23.189  0.00  0.00    -0.000 C 
BRANCH  15  27
ATOM     21  O   UNL     1      35.142 -16.717 -20.537  0.00  0.00    -0.270 OA
ATOM     22  N   UNL     1      34.350 -17.396 -22.611  0.00  0.00    -0.276 N 
ATOM     23  C   UNL     1      33.393 -18.574 -24.414  0.00  0.00    +0.023 C 
ATOM     24  C   UNL     1      34.577 -19.369 -23.879  0.00  0.00    +0.023 C 
ATOM     25  C   UNL     1      33.654 -17.175 -23.878  0.00  0.00    +0.094 C 
ATOM     26  C   UNL     1      34.775 -18.783 -22.489  0.00  0.00    +0.094 C 
ATOM     27  C   UNL     1      34.547 -16.483 -21.587  0.00  0.00    +0.249 C 
ENDBRANCH  15  27
ENDBRANCH   4  18
BRANCH   3  30
ATOM     28  O   UNL     1      29.734  -4.668 -21.773  0.00  0.00    -0.270 OA
ATOM     29  N   UNL     1      30.966  -4.137 -23.676  0.00  0.00    -0.276 N 
ATOM     30  C   UNL     1      30.616  -4.951 -22.594  0.00  0.00    +0.245 C 
BRANCH  29  31
ATOM     31  C   UNL     1      30.307  -2.860 -23.936  0.00  0.00    +0.094 C 
BRANCH  31  32
ATOM     32  C   UNL     1      31.059  -2.016 -24.957  0.00  0.00    +0.022 C 
ATOM     33  C   UNL     1      30.261  -1.787 -26.233  0.00  0.00    +0.002 C 
ENDBRANCH  31  32
ENDBRANCH  29  31
BRANCH  29  34
ATOM     34  C   UNL     1      32.014  -4.508 -24.620  0.00  0.00    +0.094 C 
BRANCH  34  35
ATOM     35  C   UNL     1      31.496  -5.404 -25.739  0.00  0.00    +0.022 C 
ATOM     36  C   UNL     1      32.602  -5.879 -26.671  0.00  0.00    +0.002 C 
ENDBRANCH  34  35
ENDBRANCH  29  34
ENDBRANCH   3  30
TORSDOF 7
ENDMDL
MODEL 9
REMARK VINA RESULT:     -11.5      5.634     10.026
REMARK  Name = 16049404
REMARK  7 active torsions:
REMARK  status: ('A' for Active; 'I' for Inactive)
REMARK    1  A    between atoms: C_3  and  C_30
REMARK    2  A    between atoms: C_4  and  C_18
REMARK    3  A    between atoms: C_15  and  C_27
REMARK    4  A    between atoms: N_29  and  C_31
REMARK    5  A    between atoms: N_29  and  C_34
REMARK    6  A    between atoms: C_31  and  C_32
REMARK    7  A    between atoms: C_34  and  C_35
REMARK                            x       y       z     vdW  Elec       q    Type
REMARK                         _______ _______ _______ _____ _____    ______ ____
ROOT
ATOM      1  N   UNL     1      33.933  -9.718 -23.836  0.00  0.00    -0.396 NA
ATOM      2  N   UNL     1      34.770  -7.609 -24.378  0.00  0.00    -0.336 N 
ATOM      3  C   UNL     1      31.815  -7.897 -22.702  0.00  0.00    +0.040 C 
ATOM      4  C   UNL     1      33.029 -12.864 -22.131  0.00  0.00    -0.015 C 
ATOM      5  C   UNL     1      33.280  -7.770 -22.437  0.00  0.00    +0.105 C 
ATOM      6  C   UNL     1      31.859 -10.353 -22.582  0.00  0.00    +0.026 C 
ATOM      7  C   UNL     1      31.167  -9.070 -22.775  0.00  0.00    +0.003 C 
ATOM      8  C   UNL     1      33.164 -10.609 -23.058  0.00  0.00    +0.114 C 
ATOM      9  C   UNL     1      33.728 -11.874 -22.822  0.00  0.00    +0.085 C 
ATOM     10  C   UNL     1      31.742 -12.610 -21.674  0.00  0.00    -0.004 C 
ATOM     11  C   UNL     1      31.158 -11.365 -21.904  0.00  0.00    +0.002 C 
ATOM     12  C   UNL     1      34.011  -8.439 -23.590  0.00  0.00    +0.158 C 
ATOM     13  H   UNL     1      35.270  -7.976 -25.142  0.00  0.00    +0.144 HD
ATOM     14  H   UNL     1      34.815  -6.645 -24.179  0.00  0.00    +0.144 HD
ENDROOT
BRANCH   4  18
ATOM     15  C   UNL     1      34.813 -16.646 -21.457  0.00  0.00    +0.054 C 
ATOM     16  C   UNL     1      34.748 -16.125 -22.749  0.00  0.00    +0.005 C 
ATOM     17  C   UNL     1      34.291 -15.921 -20.385  0.00  0.00    +0.005 C 
ATOM     18  C   UNL     1      33.639 -14.155 -21.900  0.00  0.00    -0.004 C 
ATOM     19  C   UNL     1      34.162 -14.880 -22.971  0.00  0.00    -0.000 C 
ATOM     20  C   UNL     1      33.704 -14.675 -20.607  0.00  0.00    -0.000 C 
BRANCH  15  27
ATOM     21  O   UNL     1      36.645 -18.055 -21.409  0.00  0.00    -0.270 OA
ATOM     22  N   UNL     1      34.609 -18.993 -20.803  0.00  0.00    -0.276 N 
ATOM     23  C   UNL     1      32.870 -20.191 -19.758  0.00  0.00    +0.023 C 
ATOM     24  C   UNL     1      33.915 -21.179 -20.264  0.00  0.00    +0.023 C 
ATOM     25  C   UNL     1      33.167 -18.938 -20.567  0.00  0.00    +0.094 C 
ATOM     26  C   UNL     1      35.142 -20.301 -20.454  0.00  0.00    +0.094 C 
ATOM     27  C   UNL     1      35.433 -17.961 -21.224  0.00  0.00    +0.249 C 
ENDBRANCH  15  27
ENDBRANCH   4  18
BRANCH   3  30
ATOM     28  O   UNL     1      30.467  -6.182 -21.902  0.00  0.00    -0.270 OA
ATOM     29  N   UNL     1      30.940  -6.150 -24.182  0.00  0.00    -0.276 N 
ATOM     30  C   UNL     1      31.018  -6.683 -22.891  0.00  0.00    +0.245 C 
BRANCH  29  31
ATOM     31  C   UNL     1      30.186  -4.935 -24.479  0.00  0.00    +0.094 C 
BRANCH  31  32
ATOM     32  C   UNL     1      30.759  -3.710 -23.777  0.00  0.00    +0.022 C 
ATOM     33  C   UNL     1      30.876  -2.504 -24.698  0.00  0.00    +0.002 C 
ENDBRANCH  31  32
ENDBRANCH  29  31
BRANCH  29  34
ATOM     34  C   UNL     1      31.606  -6.771 -25.320  0.00  0.00    +0.094 C 
BRANCH  34  35
ATOM     35  C   UNL     1      31.922  -5.771 -26.425  0.00  0.00    +0.022 C 
ATOM     36  C   UNL     1      33.417  -5.548 -26.608  0.00  0.00    +0.002 C 
ENDBRANCH  34  35
ENDBRANCH  29  34
ENDBRANCH   3  30
TORSDOF 7
ENDMDL
