MODEL 1
REMARK VINA RESULT:     -13.9      0.000      0.000
REMARK  Name = 10138993
REMARK  4 active torsions:
REMARK  status: ('A' for Active; 'I' for Inactive)
REMARK    1  A    between atoms: C_5  and  N_18
REMARK    2  A    between atoms: C_12  and  C_22
REMARK    3  A    between atoms: C_22  and  C_26
REMARK    4  A    between atoms: C_23  and  N_29
REMARK                            x       y       z     vdW  Elec       q    Type
REMARK                         _______ _______ _______ _____ _____    ______ ____
ROOT
ATOM      1  O   UNL     1      33.009 -20.585 -20.582  0.00  0.00    -0.274 OA
ATOM      2  N   UNL     1      31.965 -22.845 -17.195  0.00  0.00    -0.275 N 
ATOM      3  N   UNL     1      34.442 -21.068 -18.785  0.00  0.00    -0.268 N 
ATOM      4  N   UNL     1      32.369 -22.114 -18.247  0.00  0.00    -0.157 NA
ATOM      5  C   UNL     1      35.227 -23.040 -14.722  0.00  0.00    +0.069 C 
ATOM      6  C   UNL     1      35.226 -22.360 -15.946  0.00  0.00    +0.020 C 
ATOM      7  C   UNL     1      34.085 -23.704 -14.268  0.00  0.00    +0.018 C 
ATOM      8  C   UNL     1      34.049 -22.359 -16.713  0.00  0.00    +0.052 A 
ATOM      9  C   UNL     1      32.927 -23.029 -16.238  0.00  0.00    +0.077 A 
ATOM     10  C   UNL     1      32.906 -23.713 -15.020  0.00  0.00    +0.020 C 
ATOM     11  C   UNL     1      33.626 -21.831 -17.940  0.00  0.00    +0.155 A 
ATOM     12  C   UNL     1      34.092 -20.512 -20.012  0.00  0.00    +0.232 C 
ATOM     13  H   UNL     1      31.057 -23.217 -17.119  0.00  0.00    +0.189 HD
ATOM     14  H   UNL     1      35.363 -20.907 -18.477  0.00  0.00    +0.156 HD
ENDROOT
BRANCH   5  18
ATOM     15  S   UNL     1      37.720 -24.133 -14.367  0.00  0.00    +0.057 S 
ATOM     16  O   UNL     1      37.185 -25.413 -14.785  0.00  0.00    -0.154 OA
ATOM     17  O   UNL     1      38.695 -23.410 -15.156  0.00  0.00    -0.154 OA
ATOM     18  N   UNL     1      36.433 -23.053 -13.913  0.00  0.00    -0.194 N 
ATOM     19  C   UNL     1      38.336 -24.312 -12.700  0.00  0.00    +0.174 C 
ATOM     20  C   UNL     1      37.788 -23.114 -11.942  0.00  0.00    +0.051 C 
ATOM     21  C   UNL     1      36.353 -22.927 -12.429  0.00  0.00    +0.117 C 
ENDBRANCH   5  18
BRANCH  12  22
ATOM     22  C   UNL     1      35.269 -19.749 -20.618  0.00  0.00    +0.112 C 
BRANCH  22  26
ATOM     23  C   UNL     1      34.129 -16.190 -22.760  0.00  0.00    +0.048 C 
ATOM     24  C   UNL     1      34.138 -17.446 -23.396  0.00  0.00    +0.014 C 
ATOM     25  C   UNL     1      34.503 -16.130 -21.403  0.00  0.00    +0.014 C 
ATOM     26  C   UNL     1      34.874 -18.516 -21.359  0.00  0.00    -0.013 C 
ATOM     27  C   UNL     1      34.507 -18.599 -22.703  0.00  0.00    -0.003 C 
ATOM     28  C   UNL     1      34.872 -17.282 -20.710  0.00  0.00    -0.003 C 
BRANCH  23  29
ATOM     29  N   UNL     1      33.758 -15.032 -23.456  0.00  0.00    -0.307 N 
ATOM     30  C   UNL     1      32.866 -12.647 -24.814  0.00  0.00    +0.004 C 
ATOM     31  C   UNL     1      33.353 -13.866 -25.587  0.00  0.00    +0.021 C 
ATOM     32  C   UNL     1      33.553 -12.577 -23.455  0.00  0.00    +0.021 C 
ATOM     33  C   UNL     1      33.157 -15.155 -24.789  0.00  0.00    +0.091 C 
ATOM     34  C   UNL     1      33.350 -13.865 -22.661  0.00  0.00    +0.091 C 
ENDBRANCH  23  29
ENDBRANCH  22  26
ENDBRANCH  12  22
TORSDOF 4
ENDMDL
MODEL 2
REMARK VINA RESULT:     -12.8      1.316      1.743
REMARK  Name = 10138993
REMARK  4 active torsions:
REMARK  status: ('A' for Active; 'I' for Inactive)
REMARK    1  A    between atoms: C_5  and  N_18
REMARK    2  A    between atoms: C_12  and  C_22
REMARK    3  A    between atoms: C_22  and  C_26
REMARK    4  A    between atoms: C_23  and  N_29
REMARK                            x       y       z     vdW  Elec       q    Type
REMARK                         _______ _______ _______ _____ _____    ______ ____
ROOT
ATOM      1  O   UNL     1      32.436 -20.550 -20.036  0.00  0.00    -0.274 OA
ATOM      2  N   UNL     1      31.400 -22.714 -16.585  0.00  0.00    -0.275 N 
ATOM      3  N   UNL     1      33.964 -21.462 -18.503  0.00  0.00    -0.268 N 
ATOM      4  N   UNL     1      31.805 -22.032 -17.669  0.00  0.00    -0.157 NA
ATOM      5  C   UNL     1      34.852 -23.813 -14.669  0.00  0.00    +0.069 C 
ATOM      6  C   UNL     1      34.831 -23.076 -15.859  0.00  0.00    +0.020 C 
ATOM      7  C   UNL     1      33.665 -24.221 -14.055  0.00  0.00    +0.018 C 
ATOM      8  C   UNL     1      33.587 -22.755 -16.429  0.00  0.00    +0.052 A 
ATOM      9  C   UNL     1      32.421 -23.175 -15.798  0.00  0.00    +0.077 A 
ATOM     10  C   UNL     1      32.419 -23.910 -14.610  0.00  0.00    +0.020 C 
ATOM     11  C   UNL     1      33.125 -22.067 -17.559  0.00  0.00    +0.155 A 
ATOM     12  C   UNL     1      33.579 -20.765 -19.645  0.00  0.00    +0.232 C 
ATOM     13  H   UNL     1      30.451 -22.870 -16.374  0.00  0.00    +0.189 HD
ATOM     14  H   UNL     1      34.932 -21.538 -18.343  0.00  0.00    +0.156 HD
ENDROOT
BRANCH   5  18
ATOM     15  S   UNL     1      36.286 -24.006 -12.336  0.00  0.00    +0.057 S 
ATOM     16  O   UNL     1      35.626 -22.803 -11.867  0.00  0.00    -0.154 OA
ATOM     17  O   UNL     1      36.061 -25.297 -11.722  0.00  0.00    -0.154 OA
ATOM     18  N   UNL     1      36.127 -24.155 -14.063  0.00  0.00    -0.194 N 
ATOM     19  C   UNL     1      38.042 -23.684 -12.393  0.00  0.00    +0.174 C 
ATOM     20  C   UNL     1      38.498 -24.200 -13.747  0.00  0.00    +0.051 C 
ATOM     21  C   UNL     1      37.408 -23.803 -14.739  0.00  0.00    +0.117 C 
ENDBRANCH   5  18
BRANCH  12  22
ATOM     22  C   UNL     1      34.799 -20.259 -20.411  0.00  0.00    +0.112 C 
BRANCH  22  26
ATOM     23  C   UNL     1      34.094 -16.635 -22.628  0.00  0.00    +0.048 C 
ATOM     24  C   UNL     1      33.852 -17.896 -23.207  0.00  0.00    +0.014 C 
ATOM     25  C   UNL     1      34.572 -16.592 -21.305  0.00  0.00    +0.014 C 
ATOM     26  C   UNL     1      34.555 -19.004 -21.178  0.00  0.00    -0.013 C 
ATOM     27  C   UNL     1      34.081 -19.070 -22.489  0.00  0.00    -0.003 C 
ATOM     28  C   UNL     1      34.801 -17.766 -20.587  0.00  0.00    -0.003 C 
BRANCH  23  29
ATOM     29  N   UNL     1      33.864 -15.456 -23.350  0.00  0.00    -0.307 N 
ATOM     30  C   UNL     1      33.523 -13.044 -24.898  0.00  0.00    +0.004 C 
ATOM     31  C   UNL     1      33.316 -13.055 -23.389  0.00  0.00    +0.021 C 
ATOM     32  C   UNL     1      33.202 -14.415 -25.482  0.00  0.00    +0.021 C 
ATOM     33  C   UNL     1      34.130 -14.160 -22.716  0.00  0.00    +0.091 C 
ATOM     34  C   UNL     1      34.021 -15.514 -24.810  0.00  0.00    +0.091 C 
ENDBRANCH  23  29
ENDBRANCH  22  26
ENDBRANCH  12  22
TORSDOF 4
ENDMDL
MODEL 3
REMARK VINA RESULT:     -12.0      7.818     14.896
REMARK  Name = 10138993
REMARK  4 active torsions:
REMARK  status: ('A' for Active; 'I' for Inactive)
REMARK    1  A    between atoms: C_5  and  N_18
REMARK    2  A    between atoms: C_12  and  C_22
REMARK    3  A    between atoms: C_22  and  C_26
REMARK    4  A    between atoms: C_23  and  N_29
REMARK                            x       y       z     vdW  Elec       q    Type
REMARK                         _______ _______ _______ _____ _____    ______ ____
ROOT
ATOM      1  O   UNL     1      31.743 -12.270 -21.940  0.00  0.00    -0.274 OA
ATOM      2  N   UNL     1      30.983  -8.209 -21.169  0.00  0.00    -0.275 N 
ATOM      3  N   UNL     1      32.627 -10.473 -23.168  0.00  0.00    -0.268 N 
ATOM      4  N   UNL     1      31.271  -9.485 -21.474  0.00  0.00    -0.157 NA
ATOM      5  C   UNL     1      33.033  -5.970 -23.922  0.00  0.00    +0.069 C 
ATOM      6  C   UNL     1      33.062  -7.369 -23.889  0.00  0.00    +0.020 C 
ATOM      7  C   UNL     1      32.282  -5.245 -22.994  0.00  0.00    +0.018 C 
ATOM      8  C   UNL     1      32.320  -8.034 -22.899  0.00  0.00    +0.052 A 
ATOM      9  C   UNL     1      31.582  -7.288 -21.987  0.00  0.00    +0.077 A 
ATOM     10  C   UNL     1      31.538  -5.892 -22.002  0.00  0.00    +0.020 C 
ATOM     11  C   UNL     1      32.077  -9.360 -22.518  0.00  0.00    +0.155 A 
ATOM     12  C   UNL     1      32.430 -11.813 -22.847  0.00  0.00    +0.232 C 
ATOM     13  H   UNL     1      30.394  -7.957 -20.422  0.00  0.00    +0.189 HD
ATOM     14  H   UNL     1      33.215 -10.287 -23.934  0.00  0.00    +0.156 HD
ENDROOT
BRANCH   5  18
ATOM     15  S   UNL     1      32.989  -4.021 -25.854  0.00  0.00    +0.057 S 
ATOM     16  O   UNL     1      31.642  -4.433 -26.196  0.00  0.00    -0.154 OA
ATOM     17  O   UNL     1      33.273  -2.730 -25.263  0.00  0.00    -0.154 OA
ATOM     18  N   UNL     1      33.793  -5.263 -24.938  0.00  0.00    -0.194 N 
ATOM     19  C   UNL     1      34.015  -4.239 -27.300  0.00  0.00    +0.174 C 
ATOM     20  C   UNL     1      35.262  -4.950 -26.800  0.00  0.00    +0.051 C 
ATOM     21  C   UNL     1      34.779  -5.987 -25.789  0.00  0.00    +0.117 C 
ENDBRANCH   5  18
BRANCH  12  22
ATOM     22  C   UNL     1      33.207 -12.719 -23.801  0.00  0.00    +0.112 C 
BRANCH  22  26
ATOM     23  C   UNL     1      34.384 -16.483 -22.068  0.00  0.00    +0.048 C 
ATOM     24  C   UNL     1      34.202 -15.341 -21.264  0.00  0.00    +0.014 C 
ATOM     25  C   UNL     1      34.169 -16.360 -23.454  0.00  0.00    +0.014 C 
ATOM     26  C   UNL     1      33.614 -14.022 -23.202  0.00  0.00    -0.013 C 
ATOM     27  C   UNL     1      33.822 -14.122 -21.825  0.00  0.00    -0.003 C 
ATOM     28  C   UNL     1      33.788 -15.141 -24.015  0.00  0.00    -0.003 C 
BRANCH  23  29
ATOM     29  N   UNL     1      34.766 -17.707 -21.505  0.00  0.00    -0.307 N 
ATOM     30  C   UNL     1      35.631 -20.257 -20.466  0.00  0.00    +0.004 C 
ATOM     31  C   UNL     1      34.158 -19.871 -20.498  0.00  0.00    +0.021 C 
ATOM     32  C   UNL     1      36.499 -19.010 -20.334  0.00  0.00    +0.021 C 
ATOM     33  C   UNL     1      33.864 -18.860 -21.606  0.00  0.00    +0.091 C 
ATOM     34  C   UNL     1      36.204 -18.006 -21.446  0.00  0.00    +0.091 C 
ENDBRANCH  23  29
ENDBRANCH  22  26
ENDBRANCH  12  22
TORSDOF 4
ENDMDL
MODEL 4
REMARK VINA RESULT:     -11.5      3.426      5.160
REMARK  Name = 10138993
REMARK  4 active torsions:
REMARK  status: ('A' for Active; 'I' for Inactive)
REMARK    1  A    between atoms: C_5  and  N_18
REMARK    2  A    between atoms: C_12  and  C_22
REMARK    3  A    between atoms: C_22  and  C_26
REMARK    4  A    between atoms: C_23  and  N_29
REMARK                            x       y       z     vdW  Elec       q    Type
REMARK                         _______ _______ _______ _____ _____    ______ ____
ROOT
ATOM      1  O   UNL     1      36.749 -21.569 -17.913  0.00  0.00    -0.274 OA
ATOM      2  N   UNL     1      34.857 -22.321 -14.235  0.00  0.00    -0.275 N 
ATOM      3  N   UNL     1      34.454 -21.982 -17.633  0.00  0.00    -0.268 N 
ATOM      4  N   UNL     1      35.394 -22.088 -15.445  0.00  0.00    -0.157 NA
ATOM      5  C   UNL     1      30.862 -22.899 -14.937  0.00  0.00    +0.069 C 
ATOM      6  C   UNL     1      31.791 -22.625 -15.948  0.00  0.00    +0.020 C 
ATOM      7  C   UNL     1      31.260 -22.994 -13.601  0.00  0.00    +0.018 C 
ATOM      8  C   UNL     1      33.138 -22.445 -15.591  0.00  0.00    +0.052 A 
ATOM      9  C   UNL     1      33.507 -22.542 -14.254  0.00  0.00    +0.077 A 
ATOM     10  C   UNL     1      32.596 -22.816 -13.230  0.00  0.00    +0.020 C 
ATOM     11  C   UNL     1      34.343 -22.166 -16.249  0.00  0.00    +0.155 A 
ATOM     12  C   UNL     1      35.612 -21.704 -18.353  0.00  0.00    +0.232 C 
ATOM     13  H   UNL     1      35.389 -22.330 -13.407  0.00  0.00    +0.189 HD
ATOM     14  H   UNL     1      33.622 -22.057 -18.153  0.00  0.00    +0.156 HD
ENDROOT
BRANCH   5  18
ATOM     15  S   UNL     1      28.802 -24.697 -15.185  0.00  0.00    +0.057 S 
ATOM     16  O   UNL     1      29.752 -25.670 -15.686  0.00  0.00    -0.154 OA
ATOM     17  O   UNL     1      28.131 -24.861 -13.913  0.00  0.00    -0.154 OA
ATOM     18  N   UNL     1      29.464 -23.091 -15.284  0.00  0.00    -0.194 N 
ATOM     19  C   UNL     1      27.581 -24.414 -16.457  0.00  0.00    +0.174 C 
ATOM     20  C   UNL     1      27.441 -22.904 -16.547  0.00  0.00    +0.051 C 
ATOM     21  C   UNL     1      28.855 -22.341 -16.419  0.00  0.00    +0.117 C 
ENDBRANCH   5  18
BRANCH  12  22
ATOM     22  C   UNL     1      35.308 -21.578 -19.844  0.00  0.00    +0.112 C 
BRANCH  22  26
ATOM     23  C   UNL     1      34.531 -17.542 -21.134  0.00  0.00    +0.048 C 
ATOM     24  C   UNL     1      33.480 -18.467 -20.979  0.00  0.00    +0.014 C 
ATOM     25  C   UNL     1      35.842 -17.973 -20.856  0.00  0.00    +0.014 C 
ATOM     26  C   UNL     1      35.039 -20.180 -20.291  0.00  0.00    -0.013 C 
ATOM     27  C   UNL     1      33.732 -19.774 -20.561  0.00  0.00    -0.003 C 
ATOM     28  C   UNL     1      36.093 -19.280 -20.438  0.00  0.00    -0.003 C 
BRANCH  23  29
ATOM     29  N   UNL     1      34.278 -16.229 -21.553  0.00  0.00    -0.307 N 
ATOM     30  C   UNL     1      33.902 -13.508 -22.439  0.00  0.00    +0.004 C 
ATOM     31  C   UNL     1      33.330 -13.999 -21.116  0.00  0.00    +0.021 C 
ATOM     32  C   UNL     1      33.993 -14.661 -23.432  0.00  0.00    +0.021 C 
ATOM     33  C   UNL     1      34.136 -15.167 -20.550  0.00  0.00    +0.091 C 
ATOM     34  C   UNL     1      34.804 -15.824 -22.865  0.00  0.00    +0.091 C 
ENDBRANCH  23  29
ENDBRANCH  22  26
ENDBRANCH  12  22
TORSDOF 4
ENDMDL
MODEL 5
REMARK VINA RESULT:     -11.4      1.987      3.205
REMARK  Name = 10138993
REMARK  4 active torsions:
REMARK  status: ('A' for Active; 'I' for Inactive)
REMARK    1  A    between atoms: C_5  and  N_18
REMARK    2  A    between atoms: C_12  and  C_22
REMARK    3  A    between atoms: C_22  and  C_26
REMARK    4  A    between atoms: C_23  and  N_29
REMARK                            x       y       z     vdW  Elec       q    Type
REMARK                         _______ _______ _______ _____ _____    ______ ____
ROOT
ATOM      1  O   UNL     1      31.483 -21.918 -17.926  0.00  0.00    -0.274 OA
ATOM      2  N   UNL     1      31.793 -22.781 -13.824  0.00  0.00    -0.275 N 
ATOM      3  N   UNL     1      33.372 -22.841 -16.878  0.00  0.00    -0.268 N 
ATOM      4  N   UNL     1      31.766 -22.532 -15.143  0.00  0.00    -0.157 NA
ATOM      5  C   UNL     1      35.512 -24.351 -13.115  0.00  0.00    +0.069 C 
ATOM      6  C   UNL     1      35.071 -23.950 -14.383  0.00  0.00    +0.020 C 
ATOM      7  C   UNL     1      34.684 -24.231 -11.996  0.00  0.00    +0.018 C 
ATOM      8  C   UNL     1      33.774 -23.425 -14.509  0.00  0.00    +0.052 A 
ATOM      9  C   UNL     1      32.971 -23.318 -13.379  0.00  0.00    +0.077 A 
ATOM     10  C   UNL     1      33.390 -23.711 -12.105  0.00  0.00    +0.020 C 
ATOM     11  C   UNL     1      32.967 -22.926 -15.539  0.00  0.00    +0.155 A 
ATOM     12  C   UNL     1      32.628 -22.358 -17.951  0.00  0.00    +0.232 C 
ATOM     13  H   UNL     1      31.031 -22.595 -13.229  0.00  0.00    +0.189 HD
ATOM     14  H   UNL     1      34.281 -23.158 -17.082  0.00  0.00    +0.156 HD
ENDROOT
BRANCH   5  18
ATOM     15  S   UNL     1      38.005 -23.994 -12.026  0.00  0.00    +0.057 S 
ATOM     16  O   UNL     1      37.892 -22.576 -12.307  0.00  0.00    -0.154 OA
ATOM     17  O   UNL     1      38.035 -24.511 -10.674  0.00  0.00    -0.154 OA
ATOM     18  N   UNL     1      36.849 -24.896 -12.962  0.00  0.00    -0.194 N 
ATOM     19  C   UNL     1      39.418 -24.621 -12.922  0.00  0.00    +0.174 C 
ATOM     20  C   UNL     1      38.930 -25.892 -13.596  0.00  0.00    +0.051 C 
ATOM     21  C   UNL     1      37.520 -25.589 -14.099  0.00  0.00    +0.117 C 
ENDBRANCH   5  18
BRANCH  12  22
ATOM     22  C   UNL     1      33.431 -22.435 -19.247  0.00  0.00    +0.112 C 
BRANCH  22  26
ATOM     23  C   UNL     1      33.945 -18.637 -21.213  0.00  0.00    +0.048 C 
ATOM     24  C   UNL     1      35.056 -19.367 -20.748  0.00  0.00    +0.014 C 
ATOM     25  C   UNL     1      32.662 -19.183 -21.018  0.00  0.00    +0.014 C 
ATOM     26  C   UNL     1      33.609 -21.120 -19.928  0.00  0.00    -0.013 C 
ATOM     27  C   UNL     1      34.890 -20.597 -20.111  0.00  0.00    -0.003 C 
ATOM     28  C   UNL     1      32.496 -20.413 -20.381  0.00  0.00    -0.003 C 
BRANCH  23  29
ATOM     29  N   UNL     1      34.112 -17.402 -21.853  0.00  0.00    -0.307 N 
ATOM     30  C   UNL     1      34.593 -14.900 -23.210  0.00  0.00    +0.004 C 
ATOM     31  C   UNL     1      34.085 -14.940 -21.774  0.00  0.00    +0.021 C 
ATOM     32  C   UNL     1      34.125 -16.137 -23.968  0.00  0.00    +0.021 C 
ATOM     33  C   UNL     1      34.502 -16.228 -21.064  0.00  0.00    +0.091 C 
ATOM     34  C   UNL     1      34.549 -17.420 -23.256  0.00  0.00    +0.091 C 
ENDBRANCH  23  29
ENDBRANCH  22  26
ENDBRANCH  12  22
TORSDOF 4
ENDMDL
MODEL 6
REMARK VINA RESULT:     -11.2      3.066      4.953
REMARK  Name = 10138993
REMARK  4 active torsions:
REMARK  status: ('A' for Active; 'I' for Inactive)
REMARK    1  A    between atoms: C_5  and  N_18
REMARK    2  A    between atoms: C_12  and  C_22
REMARK    3  A    between atoms: C_22  and  C_26
REMARK    4  A    between atoms: C_23  and  N_29
REMARK                            x       y       z     vdW  Elec       q    Type
REMARK                         _______ _______ _______ _____ _____    ______ ____
ROOT
ATOM      1  O   UNL     1      36.916 -21.156 -17.974  0.00  0.00    -0.274 OA
ATOM      2  N   UNL     1      35.416 -22.266 -14.207  0.00  0.00    -0.275 N 
ATOM      3  N   UNL     1      34.771 -22.026 -17.576  0.00  0.00    -0.268 N 
ATOM      4  N   UNL     1      35.828 -21.932 -15.441  0.00  0.00    -0.157 NA
ATOM      5  C   UNL     1      31.590 -23.647 -14.700  0.00  0.00    +0.069 C 
ATOM      6  C   UNL     1      32.389 -23.193 -15.757  0.00  0.00    +0.020 C 
ATOM      7  C   UNL     1      32.070 -23.655 -13.389  0.00  0.00    +0.018 C 
ATOM      8  C   UNL     1      33.688 -22.741 -15.470  0.00  0.00    +0.052 A 
ATOM      9  C   UNL     1      34.140 -22.758 -14.155  0.00  0.00    +0.077 A 
ATOM     10  C   UNL     1      33.360 -23.207 -13.087  0.00  0.00    +0.020 C 
ATOM     11  C   UNL     1      34.774 -22.225 -16.189  0.00  0.00    +0.155 A 
ATOM     12  C   UNL     1      35.809 -21.521 -18.354  0.00  0.00    +0.232 C 
ATOM     13  H   UNL     1      35.983 -22.164 -13.408  0.00  0.00    +0.189 HD
ATOM     14  H   UNL     1      33.945 -22.270 -18.052  0.00  0.00    +0.156 HD
ENDROOT
BRANCH   5  18
ATOM     15  S   UNL     1      29.035 -22.951 -15.421  0.00  0.00    +0.057 S 
ATOM     16  O   UNL     1      29.169 -21.750 -14.621  0.00  0.00    -0.154 OA
ATOM     17  O   UNL     1      28.921 -22.907 -16.863  0.00  0.00    -0.154 OA
ATOM     18  N   UNL     1      30.244 -24.120 -14.974  0.00  0.00    -0.194 N 
ATOM     19  C   UNL     1      27.678 -23.906 -14.757  0.00  0.00    +0.174 C 
ATOM     20  C   UNL     1      28.204 -25.328 -14.656  0.00  0.00    +0.051 C 
ATOM     21  C   UNL     1      29.642 -25.212 -14.157  0.00  0.00    +0.117 C 
ENDBRANCH   5  18
BRANCH  12  22
ATOM     22  C   UNL     1      35.406 -21.463 -19.825  0.00  0.00    +0.112 C 
BRANCH  22  26
ATOM     23  C   UNL     1      34.570 -17.487 -21.254  0.00  0.00    +0.048 C 
ATOM     24  C   UNL     1      35.888 -17.889 -20.963  0.00  0.00    +0.014 C 
ATOM     25  C   UNL     1      33.534 -18.421 -21.067  0.00  0.00    +0.014 C 
ATOM     26  C   UNL     1      35.116 -20.086 -20.320  0.00  0.00    -0.013 C 
ATOM     27  C   UNL     1      36.159 -19.177 -20.500  0.00  0.00    -0.003 C 
ATOM     28  C   UNL     1      33.804 -19.708 -20.603  0.00  0.00    -0.003 C 
BRANCH  23  29
ATOM     29  N   UNL     1      34.299 -16.193 -21.720  0.00  0.00    -0.307 N 
ATOM     30  C   UNL     1      33.885 -13.511 -22.702  0.00  0.00    +0.004 C 
ATOM     31  C   UNL     1      33.306 -13.967 -21.369  0.00  0.00    +0.021 C 
ATOM     32  C   UNL     1      34.009 -14.694 -23.654  0.00  0.00    +0.021 C 
ATOM     33  C   UNL     1      34.126 -15.101 -20.755  0.00  0.00    +0.091 C 
ATOM     34  C   UNL     1      34.834 -15.822 -23.038  0.00  0.00    +0.091 C 
ENDBRANCH  23  29
ENDBRANCH  22  26
ENDBRANCH  12  22
TORSDOF 4
ENDMDL
MODEL 7
REMARK VINA RESULT:     -10.9      2.802      4.488
REMARK  Name = 10138993
REMARK  4 active torsions:
REMARK  status: ('A' for Active; 'I' for Inactive)
REMARK    1  A    between atoms: C_5  and  N_18
REMARK    2  A    between atoms: C_12  and  C_22
REMARK    3  A    between atoms: C_22  and  C_26
REMARK    4  A    between atoms: C_23  and  N_29
REMARK                            x       y       z     vdW  Elec       q    Type
REMARK                         _______ _______ _______ _____ _____    ______ ____
ROOT
ATOM      1  O   UNL     1      36.591 -20.491 -19.662  0.00  0.00    -0.274 OA
ATOM      2  N   UNL     1      35.887 -21.886 -15.760  0.00  0.00    -0.275 N 
ATOM      3  N   UNL     1      34.572 -21.420 -18.902  0.00  0.00    -0.268 N 
ATOM      4  N   UNL     1      36.040 -21.460 -17.024  0.00  0.00    -0.157 NA
ATOM      5  C   UNL     1      32.041 -23.288 -15.568  0.00  0.00    +0.069 C 
ATOM      6  C   UNL     1      32.609 -22.748 -16.728  0.00  0.00    +0.020 C 
ATOM      7  C   UNL     1      32.777 -23.381 -14.384  0.00  0.00    +0.018 C 
ATOM      8  C   UNL     1      33.939 -22.297 -16.678  0.00  0.00    +0.052 A 
ATOM      9  C   UNL     1      34.648 -22.400 -15.487  0.00  0.00    +0.077 A 
ATOM     10  C   UNL     1      34.101 -22.935 -14.318  0.00  0.00    +0.020 C 
ATOM     11  C   UNL     1      34.857 -21.715 -17.563  0.00  0.00    +0.155 A 
ATOM     12  C   UNL     1      35.430 -20.845 -19.836  0.00  0.00    +0.232 C 
ATOM     13  H   UNL     1      36.603 -21.831 -15.087  0.00  0.00    +0.189 HD
ATOM     14  H   UNL     1      33.667 -21.643 -19.218  0.00  0.00    +0.156 HD
ENDROOT
BRANCH   5  18
ATOM     15  S   UNL     1      29.389 -22.583 -15.541  0.00  0.00    +0.057 S 
ATOM     16  O   UNL     1      29.710 -21.528 -14.600  0.00  0.00    -0.154 OA
ATOM     17  O   UNL     1      28.937 -22.303 -16.888  0.00  0.00    -0.154 OA
ATOM     18  N   UNL     1      30.668 -23.761 -15.597  0.00  0.00    -0.194 N 
ATOM     19  C   UNL     1      28.227 -23.688 -14.754  0.00  0.00    +0.174 C 
ATOM     20  C   UNL     1      28.760 -25.085 -15.025  0.00  0.00    +0.051 C 
ATOM     21  C   UNL     1      30.276 -24.998 -14.863  0.00  0.00    +0.117 C 
ENDBRANCH   5  18
BRANCH  12  22
ATOM     22  C   UNL     1      34.737 -20.691 -21.187  0.00  0.00    +0.112 C 
BRANCH  22  26
ATOM     23  C   UNL     1      34.069 -16.598 -22.354  0.00  0.00    +0.048 C 
ATOM     24  C   UNL     1      33.825 -17.656 -23.251  0.00  0.00    +0.014 C 
ATOM     25  C   UNL     1      34.537 -16.916 -21.064  0.00  0.00    +0.014 C 
ATOM     26  C   UNL     1      34.506 -19.273 -21.591  0.00  0.00    -0.013 C 
ATOM     27  C   UNL     1      34.041 -18.981 -22.874  0.00  0.00    -0.003 C 
ATOM     28  C   UNL     1      34.753 -18.241 -20.687  0.00  0.00    -0.003 C 
BRANCH  23  29
ATOM     29  N   UNL     1      33.851 -15.267 -22.733  0.00  0.00    -0.307 N 
ATOM     30  C   UNL     1      33.534 -12.526 -23.580  0.00  0.00    +0.004 C 
ATOM     31  C   UNL     1      33.328 -12.938 -22.128  0.00  0.00    +0.021 C 
ATOM     32  C   UNL     1      33.198 -13.688 -24.508  0.00  0.00    +0.021 C 
ATOM     33  C   UNL     1      34.131 -14.190 -21.777  0.00  0.00    +0.091 C 
ATOM     34  C   UNL     1      34.007 -14.934 -24.156  0.00  0.00    +0.091 C 
ENDBRANCH  23  29
ENDBRANCH  22  26
ENDBRANCH  12  22
TORSDOF 4
ENDMDL
