MODEL 1
REMARK VINA RESULT:     -11.3      0.000      0.000
REMARK  Name = 5281628
REMARK  5 active torsions:
REMARK  status: ('A' for Active; 'I' for Inactive)
REMARK    1  A    between atoms: C_5  and  C_12
REMARK    2  A    between atoms: C_6  and  O_22
REMARK    3  A    between atoms: C_9  and  O_20
REMARK    4  A    between atoms: C_11  and  O_24
REMARK    5  A    between atoms: C_17  and  O_18
REMARK                            x       y       z     vdW  Elec       q    Type
REMARK                         _______ _______ _______ _____ _____    ______ ____
ROOT
ATOM      1  O   UNL     1      33.163 -12.857 -22.022  0.00  0.00    -0.453 OA
ATOM      2  O   UNL     1      32.991 -14.203 -25.864  0.00  0.00    -0.286 OA
ATOM      3  C   UNL     1      33.577 -14.642 -23.617  0.00  0.00    +0.110 C 
ATOM      4  C   UNL     1      33.607 -14.120 -22.324  0.00  0.00    +0.154 C 
ATOM      5  C   UNL     1      32.674 -12.065 -23.049  0.00  0.00    +0.148 C 
ATOM      6  C   UNL     1      34.041 -15.936 -23.866  0.00  0.00    +0.177 C 
ATOM      7  C   UNL     1      33.050 -13.808 -24.707  0.00  0.00    +0.205 C 
ATOM      8  C   UNL     1      34.100 -14.891 -21.272  0.00  0.00    +0.078 C 
ATOM      9  C   UNL     1      34.535 -16.705 -22.812  0.00  0.00    +0.206 C 
ATOM     10  C   UNL     1      32.589 -12.456 -24.330  0.00  0.00    +0.080 C 
ATOM     11  C   UNL     1      34.565 -16.184 -21.518  0.00  0.00    +0.174 C 
ENDROOT
BRANCH   5  12
ATOM     12  C   UNL     1      32.219 -10.730 -22.612  0.00  0.00    +0.035 C 
ATOM     13  C   UNL     1      31.312 -10.608 -21.557  0.00  0.00    +0.006 C 
ATOM     14  C   UNL     1      32.692  -9.583 -23.254  0.00  0.00    +0.006 C 
ATOM     15  C   UNL     1      30.882  -9.346 -21.146  0.00  0.00    +0.037 C 
ATOM     16  C   UNL     1      32.262  -8.321 -22.843  0.00  0.00    +0.037 C 
ATOM     17  C   UNL     1      31.357  -8.203 -21.789  0.00  0.00    +0.134 C 
BRANCH  17  18
ATOM     18  O   UNL     1      30.936  -6.972 -21.388  0.00  0.00    -0.506 OA
ATOM     19  H   UNL     1      30.222  -6.554 -21.829  0.00  0.00    +0.292 HD
ENDBRANCH  17  18
ENDBRANCH   5  12
BRANCH   9  20
ATOM     20  O   UNL     1      34.991 -17.969 -23.043  0.00  0.00    -0.465 OA
ATOM     21  C   UNL     1      34.064 -19.036 -22.857  0.00  0.00    +0.253 C 
ENDBRANCH   9  20
BRANCH   6  22
ATOM     22  O   UNL     1      34.029 -16.478 -25.117  0.00  0.00    -0.503 OA
ATOM     23  H   UNL     1      34.835 -16.678 -25.549  0.00  0.00    +0.292 HD
ENDBRANCH   6  22
BRANCH  11  24
ATOM     24  O   UNL     1      35.046 -16.928 -20.482  0.00  0.00    -0.503 OA
ATOM     25  H   UNL     1      35.812 -16.648 -20.020  0.00  0.00    +0.292 HD
ENDBRANCH  11  24
TORSDOF 5
ENDMDL
MODEL 2
REMARK VINA RESULT:     -10.9      5.314      9.041
REMARK  Name = 5281628
REMARK  5 active torsions:
REMARK  status: ('A' for Active; 'I' for Inactive)
REMARK    1  A    between atoms: C_5  and  C_12
REMARK    2  A    between atoms: C_6  and  O_22
REMARK    3  A    between atoms: C_9  and  O_20
REMARK    4  A    between atoms: C_11  and  O_24
REMARK    5  A    between atoms: C_17  and  O_18
REMARK                            x       y       z     vdW  Elec       q    Type
REMARK                         _______ _______ _______ _____ _____    ______ ____
ROOT
ATOM      1  O   UNL     1      35.263 -20.036 -19.556  0.00  0.00    -0.453 OA
ATOM      2  O   UNL     1      31.790 -21.912 -18.549  0.00  0.00    -0.286 OA
ATOM      3  C   UNL     1      34.091 -21.600 -18.115  0.00  0.00    +0.110 C 
ATOM      4  C   UNL     1      35.244 -20.923 -18.511  0.00  0.00    +0.154 C 
ATOM      5  C   UNL     1      34.086 -19.810 -20.253  0.00  0.00    +0.148 C 
ATOM      6  C   UNL     1      34.131 -22.493 -17.041  0.00  0.00    +0.177 C 
ATOM      7  C   UNL     1      32.839 -21.356 -18.845  0.00  0.00    +0.205 C 
ATOM      8  C   UNL     1      36.445 -21.136 -17.834  0.00  0.00    +0.078 C 
ATOM      9  C   UNL     1      35.333 -22.704 -16.365  0.00  0.00    +0.206 C 
ATOM     10  C   UNL     1      32.913 -20.394 -19.963  0.00  0.00    +0.080 C 
ATOM     11  C   UNL     1      36.488 -22.027 -16.761  0.00  0.00    +0.174 C 
ENDROOT
BRANCH   5  12
ATOM     12  C   UNL     1      34.217 -18.834 -21.352  0.00  0.00    +0.035 C 
ATOM     13  C   UNL     1      34.806 -17.588 -21.120  0.00  0.00    +0.006 C 
ATOM     14  C   UNL     1      33.751 -19.150 -22.631  0.00  0.00    +0.006 C 
ATOM     15  C   UNL     1      34.928 -16.666 -22.159  0.00  0.00    +0.037 C 
ATOM     16  C   UNL     1      33.874 -18.227 -23.670  0.00  0.00    +0.037 C 
ATOM     17  C   UNL     1      34.462 -16.986 -23.434  0.00  0.00    +0.134 C 
BRANCH  17  18
ATOM     18  O   UNL     1      34.581 -16.085 -24.448  0.00  0.00    -0.506 OA
ATOM     19  H   UNL     1      33.872 -15.958 -25.048  0.00  0.00    +0.292 HD
ENDBRANCH  17  18
ENDBRANCH   5  12
BRANCH   9  20
ATOM     20  O   UNL     1      35.385 -23.574 -15.316  0.00  0.00    -0.465 OA
ATOM     21  C   UNL     1      35.187 -23.029 -14.014  0.00  0.00    +0.253 C 
ENDBRANCH   9  20
BRANCH   6  22
ATOM     22  O   UNL     1      33.024 -23.172 -16.626  0.00  0.00    -0.503 OA
ATOM     23  H   UNL     1      32.188 -22.751 -16.626  0.00  0.00    +0.292 HD
ENDBRANCH   6  22
BRANCH  11  24
ATOM     24  O   UNL     1      37.667 -22.228 -16.107  0.00  0.00    -0.503 OA
ATOM     25  H   UNL     1      37.720 -22.089 -15.182  0.00  0.00    +0.292 HD
ENDBRANCH  11  24
TORSDOF 5
ENDMDL
MODEL 3
REMARK VINA RESULT:     -10.7      2.743      8.023
REMARK  Name = 5281628
REMARK  5 active torsions:
REMARK  status: ('A' for Active; 'I' for Inactive)
REMARK    1  A    between atoms: C_5  and  C_12
REMARK    2  A    between atoms: C_6  and  O_22
REMARK    3  A    between atoms: C_9  and  O_20
REMARK    4  A    between atoms: C_11  and  O_24
REMARK    5  A    between atoms: C_17  and  O_18
REMARK                            x       y       z     vdW  Elec       q    Type
REMARK                         _______ _______ _______ _____ _____    ______ ____
ROOT
ATOM      1  O   UNL     1      34.263 -17.377 -20.982  0.00  0.00    -0.453 OA
ATOM      2  O   UNL     1      33.727 -18.202 -24.936  0.00  0.00    -0.286 OA
ATOM      3  C   UNL     1      33.933 -16.562 -23.247  0.00  0.00    +0.110 C 
ATOM      4  C   UNL     1      34.121 -16.351 -21.881  0.00  0.00    +0.154 C 
ATOM      5  C   UNL     1      34.208 -18.680 -21.453  0.00  0.00    +0.148 C 
ATOM      6  C   UNL     1      33.797 -15.478 -24.117  0.00  0.00    +0.177 C 
ATOM      7  C   UNL     1      33.884 -17.943 -23.751  0.00  0.00    +0.205 C 
ATOM      8  C   UNL     1      34.173 -15.051 -21.378  0.00  0.00    +0.078 C 
ATOM      9  C   UNL     1      33.848 -14.179 -23.610  0.00  0.00    +0.206 C 
ATOM     10  C   UNL     1      34.039 -19.011 -22.742  0.00  0.00    +0.080 C 
ATOM     11  C   UNL     1      34.036 -13.965 -22.244  0.00  0.00    +0.174 C 
ENDROOT
BRANCH   5  12
ATOM     12  C   UNL     1      34.378 -19.705 -20.404  0.00  0.00    +0.035 C 
ATOM     13  C   UNL     1      33.263 -20.355 -19.870  0.00  0.00    +0.006 C 
ATOM     14  C   UNL     1      35.655 -20.027 -19.938  0.00  0.00    +0.006 C 
ATOM     15  C   UNL     1      33.424 -21.322 -18.877  0.00  0.00    +0.037 C 
ATOM     16  C   UNL     1      35.816 -20.994 -18.945  0.00  0.00    +0.037 C 
ATOM     17  C   UNL     1      34.701 -21.640 -18.415  0.00  0.00    +0.134 C 
BRANCH  17  18
ATOM     18  O   UNL     1      34.859 -22.584 -17.446  0.00  0.00    -0.506 OA
ATOM     19  H   UNL     1      34.160 -23.178 -17.252  0.00  0.00    +0.292 HD
ENDBRANCH  17  18
ENDBRANCH   5  12
BRANCH   9  20
ATOM     20  O   UNL     1      33.715 -13.112 -24.449  0.00  0.00    -0.465 OA
ATOM     21  C   UNL     1      32.410 -12.554 -24.585  0.00  0.00    +0.253 C 
ENDBRANCH   9  20
BRANCH   6  22
ATOM     22  O   UNL     1      33.611 -15.647 -25.457  0.00  0.00    -0.503 OA
ATOM     23  H   UNL     1      32.924 -15.187 -25.896  0.00  0.00    +0.292 HD
ENDBRANCH   6  22
BRANCH  11  24
ATOM     24  O   UNL     1      34.087 -12.700 -21.741  0.00  0.00    -0.503 OA
ATOM     25  H   UNL     1      33.303 -12.281 -21.446  0.00  0.00    +0.292 HD
ENDBRANCH  11  24
TORSDOF 5
ENDMDL
MODEL 4
REMARK VINA RESULT:     -10.4      8.164     12.186
REMARK  Name = 5281628
REMARK  5 active torsions:
REMARK  status: ('A' for Active; 'I' for Inactive)
REMARK    1  A    between atoms: C_5  and  C_12
REMARK    2  A    between atoms: C_6  and  O_22
REMARK    3  A    between atoms: C_9  and  O_20
REMARK    4  A    between atoms: C_11  and  O_24
REMARK    5  A    between atoms: C_17  and  O_18
REMARK                            x       y       z     vdW  Elec       q    Type
REMARK                         _______ _______ _______ _____ _____    ______ ____
ROOT
ATOM      1  O   UNL     1      34.270 -22.214 -16.621  0.00  0.00    -0.453 OA
ATOM      2  O   UNL     1      38.167 -22.518 -15.473  0.00  0.00    -0.286 OA
ATOM      3  C   UNL     1      35.900 -22.977 -14.990  0.00  0.00    +0.110 C 
ATOM      4  C   UNL     1      34.588 -22.839 -15.443  0.00  0.00    +0.154 C 
ATOM      5  C   UNL     1      35.298 -21.689 -17.389  0.00  0.00    +0.148 C 
ATOM      6  C   UNL     1      36.165 -23.626 -13.782  0.00  0.00    +0.177 C 
ATOM      7  C   UNL     1      36.993 -22.430 -15.807  0.00  0.00    +0.205 C 
ATOM      8  C   UNL     1      33.533 -23.351 -14.688  0.00  0.00    +0.078 C 
ATOM      9  C   UNL     1      35.107 -24.136 -13.028  0.00  0.00    +0.206 C 
ATOM     10  C   UNL     1      36.598 -21.763 -17.064  0.00  0.00    +0.080 C 
ATOM     11  C   UNL     1      33.794 -23.999 -13.480  0.00  0.00    +0.174 C 
ENDROOT
BRANCH   5  12
ATOM     12  C   UNL     1      34.845 -21.044 -18.638  0.00  0.00    +0.035 C 
ATOM     13  C   UNL     1      35.769 -20.435 -19.489  0.00  0.00    +0.006 C 
ATOM     14  C   UNL     1      33.488 -21.039 -18.972  0.00  0.00    +0.006 C 
ATOM     15  C   UNL     1      35.340 -19.825 -20.668  0.00  0.00    +0.037 C 
ATOM     16  C   UNL     1      33.059 -20.428 -20.151  0.00  0.00    +0.037 C 
ATOM     17  C   UNL     1      33.985 -19.821 -20.998  0.00  0.00    +0.134 C 
BRANCH  17  18
ATOM     18  O   UNL     1      33.566 -19.226 -22.149  0.00  0.00    -0.506 OA
ATOM     19  H   UNL     1      32.650 -19.095 -22.303  0.00  0.00    +0.292 HD
ENDBRANCH  17  18
ENDBRANCH   5  12
BRANCH   9  20
ATOM     20  O   UNL     1      35.353 -24.770 -11.846  0.00  0.00    -0.465 OA
ATOM     21  C   UNL     1      35.408 -23.959 -10.675  0.00  0.00    +0.253 C 
ENDBRANCH   9  20
BRANCH   6  22
ATOM     22  O   UNL     1      37.434 -23.778 -13.307  0.00  0.00    -0.503 OA
ATOM     23  H   UNL     1      37.875 -23.054 -12.908  0.00  0.00    +0.292 HD
ENDBRANCH   6  22
BRANCH  11  24
ATOM     24  O   UNL     1      32.755 -24.494 -12.750  0.00  0.00    -0.503 OA
ATOM     25  H   UNL     1      32.025 -23.945 -12.542  0.00  0.00    +0.292 HD
ENDBRANCH  11  24
TORSDOF 5
ENDMDL
MODEL 5
REMARK VINA RESULT:     -10.3      8.161     12.148
REMARK  Name = 5281628
REMARK  5 active torsions:
REMARK  status: ('A' for Active; 'I' for Inactive)
REMARK    1  A    between atoms: C_5  and  C_12
REMARK    2  A    between atoms: C_6  and  O_22
REMARK    3  A    between atoms: C_9  and  O_20
REMARK    4  A    between atoms: C_11  and  O_24
REMARK    5  A    between atoms: C_17  and  O_18
REMARK                            x       y       z     vdW  Elec       q    Type
REMARK                         _______ _______ _______ _____ _____    ______ ____
ROOT
ATOM      1  O   UNL     1      35.300 -22.154 -16.821  0.00  0.00    -0.453 OA
ATOM      2  O   UNL     1      31.905 -23.658 -15.145  0.00  0.00    -0.286 OA
ATOM      3  C   UNL     1      34.248 -23.386 -15.011  0.00  0.00    +0.110 C 
ATOM      4  C   UNL     1      35.370 -22.844 -15.638  0.00  0.00    +0.154 C 
ATOM      5  C   UNL     1      34.060 -21.997 -17.422  0.00  0.00    +0.148 C 
ATOM      6  C   UNL     1      34.379 -24.078 -13.805  0.00  0.00    +0.177 C 
ATOM      7  C   UNL     1      32.931 -23.213 -15.641  0.00  0.00    +0.205 C 
ATOM      8  C   UNL     1      36.631 -22.992 -15.060  0.00  0.00    +0.078 C 
ATOM      9  C   UNL     1      35.642 -24.226 -13.230  0.00  0.00    +0.206 C 
ATOM     10  C   UNL     1      32.910 -22.465 -16.915  0.00  0.00    +0.080 C 
ATOM     11  C   UNL     1      36.766 -23.684 -13.856  0.00  0.00    +0.174 C 
ENDROOT
BRANCH   5  12
ATOM     12  C   UNL     1      34.099 -21.235 -18.686  0.00  0.00    +0.035 C 
ATOM     13  C   UNL     1      35.323 -20.910 -19.274  0.00  0.00    +0.006 C 
ATOM     14  C   UNL     1      32.909 -20.833 -19.299  0.00  0.00    +0.006 C 
ATOM     15  C   UNL     1      35.359 -20.188 -20.467  0.00  0.00    +0.037 C 
ATOM     16  C   UNL     1      32.945 -20.111 -20.493  0.00  0.00    +0.037 C 
ATOM     17  C   UNL     1      34.169 -19.788 -21.076  0.00  0.00    +0.134 C 
BRANCH  17  18
ATOM     18  O   UNL     1      34.204 -19.084 -22.240  0.00  0.00    -0.506 OA
ATOM     19  H   UNL     1      34.711 -19.398 -22.963  0.00  0.00    +0.292 HD
ENDBRANCH  17  18
ENDBRANCH   5  12
BRANCH   9  20
ATOM     20  O   UNL     1      35.783 -24.900 -12.053  0.00  0.00    -0.465 OA
ATOM     21  C   UNL     1      35.638 -24.145 -10.853  0.00  0.00    +0.253 C 
ENDBRANCH   9  20
BRANCH   6  22
ATOM     22  O   UNL     1      33.306 -24.622 -13.165  0.00  0.00    -0.503 OA
ATOM     23  H   UNL     1      32.879 -25.375 -13.522  0.00  0.00    +0.292 HD
ENDBRANCH   6  22
BRANCH  11  24
ATOM     24  O   UNL     1      38.003 -23.824 -13.302  0.00  0.00    -0.503 OA
ATOM     25  H   UNL     1      38.259 -23.278 -12.585  0.00  0.00    +0.292 HD
ENDBRANCH  11  24
TORSDOF 5
ENDMDL
MODEL 6
REMARK VINA RESULT:     -10.2      2.074      7.431
REMARK  Name = 5281628
REMARK  5 active torsions:
REMARK  status: ('A' for Active; 'I' for Inactive)
REMARK    1  A    between atoms: C_5  and  C_12
REMARK    2  A    between atoms: C_6  and  O_22
REMARK    3  A    between atoms: C_9  and  O_20
REMARK    4  A    between atoms: C_11  and  O_24
REMARK    5  A    between atoms: C_17  and  O_18
REMARK                            x       y       z     vdW  Elec       q    Type
REMARK                         _______ _______ _______ _____ _____    ______ ____
ROOT
ATOM      1  O   UNL     1      33.882 -15.688 -21.240  0.00  0.00    -0.453 OA
ATOM      2  O   UNL     1      33.923 -15.202 -25.285  0.00  0.00    -0.286 OA
ATOM      3  C   UNL     1      33.418 -14.284 -23.167  0.00  0.00    +0.110 C 
ATOM      4  C   UNL     1      33.433 -14.515 -21.792  0.00  0.00    +0.154 C 
ATOM      5  C   UNL     1      34.331 -16.688 -22.089  0.00  0.00    +0.148 C 
ATOM      6  C   UNL     1      32.952 -13.068 -23.674  0.00  0.00    +0.177 C 
ATOM      7  C   UNL     1      33.904 -15.338 -24.070  0.00  0.00    +0.205 C 
ATOM      8  C   UNL     1      32.980 -13.530 -20.915  0.00  0.00    +0.078 C 
ATOM      9  C   UNL     1      32.498 -12.085 -22.794  0.00  0.00    +0.206 C 
ATOM     10  C   UNL     1      34.373 -16.582 -23.426  0.00  0.00    +0.080 C 
ATOM     11  C   UNL     1      32.512 -12.315 -21.417  0.00  0.00    +0.174 C 
ENDROOT
BRANCH   5  12
ATOM     12  C   UNL     1      34.796 -17.903 -21.391  0.00  0.00    +0.035 C 
ATOM     13  C   UNL     1      33.882 -18.887 -21.009  0.00  0.00    +0.006 C 
ATOM     14  C   UNL     1      36.154 -18.072 -21.106  0.00  0.00    +0.006 C 
ATOM     15  C   UNL     1      34.322 -20.034 -20.348  0.00  0.00    +0.037 C 
ATOM     16  C   UNL     1      36.594 -19.219 -20.445  0.00  0.00    +0.037 C 
ATOM     17  C   UNL     1      35.678 -20.199 -20.066  0.00  0.00    +0.134 C 
BRANCH  17  18
ATOM     18  O   UNL     1      36.108 -21.318 -19.420  0.00  0.00    -0.506 OA
ATOM     19  H   UNL     1      35.829 -21.488 -18.541  0.00  0.00    +0.292 HD
ENDBRANCH  17  18
ENDBRANCH   5  12
BRANCH   9  20
ATOM     20  O   UNL     1      32.039 -10.895 -23.276  0.00  0.00    -0.465 OA
ATOM     21  C   UNL     1      32.954  -9.801 -23.279  0.00  0.00    +0.253 C 
ENDBRANCH   9  20
BRANCH   6  22
ATOM     22  O   UNL     1      32.922 -12.807 -25.012  0.00  0.00    -0.503 OA
ATOM     23  H   UNL     1      32.216 -12.312 -25.377  0.00  0.00    +0.292 HD
ENDBRANCH   6  22
BRANCH  11  24
ATOM     24  O   UNL     1      32.070 -11.360 -20.551  0.00  0.00    -0.503 OA
ATOM     25  H   UNL     1      31.151 -11.220 -20.437  0.00  0.00    +0.292 HD
ENDBRANCH  11  24
TORSDOF 5
ENDMDL
MODEL 7
REMARK VINA RESULT:     -10.2      5.131      8.776
REMARK  Name = 5281628
REMARK  5 active torsions:
REMARK  status: ('A' for Active; 'I' for Inactive)
REMARK    1  A    between atoms: C_5  and  C_12
REMARK    2  A    between atoms: C_6  and  O_22
REMARK    3  A    between atoms: C_9  and  O_20
REMARK    4  A    between atoms: C_11  and  O_24
REMARK    5  A    between atoms: C_17  and  O_18
REMARK                            x       y       z     vdW  Elec       q    Type
REMARK                         _______ _______ _______ _____ _____    ______ ____
ROOT
ATOM      1  O   UNL     1      33.112 -19.892 -20.216  0.00  0.00    -0.453 OA
ATOM      2  O   UNL     1      36.568 -21.309 -18.587  0.00  0.00    -0.286 OA
ATOM      3  C   UNL     1      34.205 -21.283 -18.552  0.00  0.00    +0.110 C 
ATOM      4  C   UNL     1      33.062 -20.762 -19.157  0.00  0.00    +0.154 C 
ATOM      5  C   UNL     1      34.355 -19.510 -20.698  0.00  0.00    +0.148 C 
ATOM      6  C   UNL     1      34.094 -22.167 -17.476  0.00  0.00    +0.177 C 
ATOM      7  C   UNL     1      35.524 -20.887 -19.067  0.00  0.00    +0.205 C 
ATOM      8  C   UNL     1      31.799 -21.123 -18.688  0.00  0.00    +0.078 C 
ATOM      9  C   UNL     1      32.829 -22.527 -17.009  0.00  0.00    +0.206 C 
ATOM     10  C   UNL     1      35.524 -19.947 -20.206  0.00  0.00    +0.080 C 
ATOM     11  C   UNL     1      31.684 -22.006 -17.613  0.00  0.00    +0.174 C 
ENDROOT
BRANCH   5  12
ATOM     12  C   UNL     1      34.293 -18.577 -21.842  0.00  0.00    +0.035 C 
ATOM     13  C   UNL     1      34.788 -17.278 -21.716  0.00  0.00    +0.006 C 
ATOM     14  C   UNL     1      33.737 -18.991 -23.055  0.00  0.00    +0.006 C 
ATOM     15  C   UNL     1      34.728 -16.397 -22.797  0.00  0.00    +0.037 C 
ATOM     16  C   UNL     1      33.677 -18.111 -24.135  0.00  0.00    +0.037 C 
ATOM     17  C   UNL     1      34.172 -16.814 -24.006  0.00  0.00    +0.134 C 
BRANCH  17  18
ATOM     18  O   UNL     1      34.113 -15.955 -25.060  0.00  0.00    -0.506 OA
ATOM     19  H   UNL     1      33.433 -16.043 -25.699  0.00  0.00    +0.292 HD
ENDBRANCH  17  18
ENDBRANCH   5  12
BRANCH   9  20
ATOM     20  O   UNL     1      32.706 -23.388 -15.959  0.00  0.00    -0.465 OA
ATOM     21  C   UNL     1      32.612 -22.813 -14.657  0.00  0.00    +0.253 C 
ENDBRANCH   9  20
BRANCH   6  22
ATOM     22  O   UNL     1      35.189 -22.696 -16.859  0.00  0.00    -0.503 OA
ATOM     23  H   UNL     1      36.033 -22.313 -16.994  0.00  0.00    +0.292 HD
ENDBRANCH   6  22
BRANCH  11  24
ATOM     24  O   UNL     1      30.445 -22.351 -17.163  0.00  0.00    -0.503 OA
ATOM     25  H   UNL     1      29.681 -22.043 -17.610  0.00  0.00    +0.292 HD
ENDBRANCH  11  24
TORSDOF 5
ENDMDL
MODEL 8
REMARK VINA RESULT:     -10.2      5.788     10.769
REMARK  Name = 5281628
REMARK  5 active torsions:
REMARK  status: ('A' for Active; 'I' for Inactive)
REMARK    1  A    between atoms: C_5  and  C_12
REMARK    2  A    between atoms: C_6  and  O_22
REMARK    3  A    between atoms: C_9  and  O_20
REMARK    4  A    between atoms: C_11  and  O_24
REMARK    5  A    between atoms: C_17  and  O_18
REMARK                            x       y       z     vdW  Elec       q    Type
REMARK                         _______ _______ _______ _____ _____    ______ ____
ROOT
ATOM      1  O   UNL     1      35.700 -20.845 -18.423  0.00  0.00    -0.453 OA
ATOM      2  O   UNL     1      31.999 -20.994 -20.121  0.00  0.00    -0.286 OA
ATOM      3  C   UNL     1      34.200 -20.136 -20.197  0.00  0.00    +0.110 C 
ATOM      4  C   UNL     1      35.443 -20.131 -19.566  0.00  0.00    +0.154 C 
ATOM      5  C   UNL     1      34.674 -21.596 -17.869  0.00  0.00    +0.148 C 
ATOM      6  C   UNL     1      33.996 -19.391 -21.361  0.00  0.00    +0.177 C 
ATOM      7  C   UNL     1      33.113 -20.940 -19.618  0.00  0.00    +0.205 C 
ATOM      8  C   UNL     1      36.491 -19.379 -20.096  0.00  0.00    +0.078 C 
ATOM      9  C   UNL     1      35.046 -18.638 -21.888  0.00  0.00    +0.206 C 
ATOM     10  C   UNL     1      33.439 -21.687 -18.387  0.00  0.00    +0.080 C 
ATOM     11  C   UNL     1      36.291 -18.632 -21.257  0.00  0.00    +0.174 C 
ENDROOT
BRANCH   5  12
ATOM     12  C   UNL     1      35.060 -22.329 -16.647  0.00  0.00    +0.035 C 
ATOM     13  C   UNL     1      36.363 -22.234 -16.152  0.00  0.00    +0.006 C 
ATOM     14  C   UNL     1      34.124 -23.123 -15.980  0.00  0.00    +0.006 C 
ATOM     15  C   UNL     1      36.727 -22.927 -14.998  0.00  0.00    +0.037 C 
ATOM     16  C   UNL     1      34.488 -23.817 -14.825  0.00  0.00    +0.037 C 
ATOM     17  C   UNL     1      35.789 -23.719 -14.335  0.00  0.00    +0.134 C 
BRANCH  17  18
ATOM     18  O   UNL     1      36.145 -24.396 -13.209  0.00  0.00    -0.506 OA
ATOM     19  H   UNL     1      36.833 -25.033 -13.242  0.00  0.00    +0.292 HD
ENDBRANCH  17  18
ENDBRANCH   5  12
BRANCH   9  20
ATOM     20  O   UNL     1      34.860 -17.905 -23.023  0.00  0.00    -0.465 OA
ATOM     21  C   UNL     1      34.479 -16.541 -22.857  0.00  0.00    +0.253 C 
ENDBRANCH   9  20
BRANCH   6  22
ATOM     22  O   UNL     1      32.794 -19.371 -22.004  0.00  0.00    -0.503 OA
ATOM     23  H   UNL     1      32.065 -18.926 -21.622  0.00  0.00    +0.292 HD
ENDBRANCH   6  22
BRANCH  11  24
ATOM     24  O   UNL     1      37.321 -17.899 -21.765  0.00  0.00    -0.503 OA
ATOM     25  H   UNL     1      37.805 -18.218 -22.502  0.00  0.00    +0.292 HD
ENDBRANCH  11  24
TORSDOF 5
ENDMDL
MODEL 9
REMARK VINA RESULT:     -10.0     11.933     13.812
REMARK  Name = 5281628
REMARK  5 active torsions:
REMARK  status: ('A' for Active; 'I' for Inactive)
REMARK    1  A    between atoms: C_5  and  C_12
REMARK    2  A    between atoms: C_6  and  O_22
REMARK    3  A    between atoms: C_9  and  O_20
REMARK    4  A    between atoms: C_11  and  O_24
REMARK    5  A    between atoms: C_17  and  O_18
REMARK                            x       y       z     vdW  Elec       q    Type
REMARK                         _______ _______ _______ _____ _____    ______ ____
ROOT
ATOM      1  O   UNL     1      33.700 -23.905 -14.044  0.00  0.00    -0.453 OA
ATOM      2  O   UNL     1      36.042 -22.122 -16.860  0.00  0.00    -0.286 OA
ATOM      3  C   UNL     1      35.925 -23.367 -14.855  0.00  0.00    +0.110 C 
ATOM      4  C   UNL     1      35.065 -23.957 -13.929  0.00  0.00    +0.154 C 
ATOM      5  C   UNL     1      33.153 -23.229 -15.124  0.00  0.00    +0.148 C 
ATOM      6  C   UNL     1      37.309 -23.453 -14.688  0.00  0.00    +0.177 C 
ATOM      7  C   UNL     1      35.348 -22.658 -16.007  0.00  0.00    +0.205 C 
ATOM      8  C   UNL     1      35.587 -24.637 -12.828  0.00  0.00    +0.078 C 
ATOM      9  C   UNL     1      37.828 -24.134 -13.586  0.00  0.00    +0.206 C 
ATOM     10  C   UNL     1      33.874 -22.629 -16.083  0.00  0.00    +0.080 C 
ATOM     11  C   UNL     1      36.969 -24.724 -12.658  0.00  0.00    +0.174 C 
ENDROOT
BRANCH   5  12
ATOM     12  C   UNL     1      31.677 -23.241 -15.153  0.00  0.00    +0.035 C 
ATOM     13  C   UNL     1      30.960 -23.951 -14.187  0.00  0.00    +0.006 C 
ATOM     14  C   UNL     1      30.989 -22.543 -16.150  0.00  0.00    +0.006 C 
ATOM     15  C   UNL     1      29.565 -23.962 -14.216  0.00  0.00    +0.037 C 
ATOM     16  C   UNL     1      29.595 -22.554 -16.179  0.00  0.00    +0.037 C 
ATOM     17  C   UNL     1      28.883 -23.264 -15.213  0.00  0.00    +0.134 C 
BRANCH  17  18
ATOM     18  O   UNL     1      27.522 -23.276 -15.242  0.00  0.00    -0.506 OA
ATOM     19  H   UNL     1      27.070 -23.177 -16.057  0.00  0.00    +0.292 HD
ENDBRANCH  17  18
ENDBRANCH   5  12
BRANCH   9  20
ATOM     20  O   UNL     1      39.178 -24.224 -13.411  0.00  0.00    -0.465 OA
ATOM     21  C   UNL     1      39.836 -25.335 -14.015  0.00  0.00    +0.253 C 
ENDBRANCH   9  20
BRANCH   6  22
ATOM     22  O   UNL     1      38.180 -22.889 -15.573  0.00  0.00    -0.503 OA
ATOM     23  H   UNL     1      37.862 -22.523 -16.374  0.00  0.00    +0.292 HD
ENDBRANCH   6  22
BRANCH  11  24
ATOM     24  O   UNL     1      37.468 -25.390 -11.578  0.00  0.00    -0.503 OA
ATOM     25  H   UNL     1      38.003 -26.149 -11.702  0.00  0.00    +0.292 HD
ENDBRANCH  11  24
TORSDOF 5
ENDMDL
