MODEL 1
REMARK VINA RESULT:     -11.2      0.000      0.000
REMARK  Name = 5288217
REMARK  5 active torsions:
REMARK  status: ('A' for Active; 'I' for Inactive)
REMARK    1  A    between atoms: C_7  and  C_14
REMARK    2  A    between atoms: C_8  and  O_24
REMARK    3  A    between atoms: C_11  and  O_26
REMARK    4  A    between atoms: C_15  and  O_20
REMARK    5  A    between atoms: C_19  and  O_22
REMARK                            x       y       z     vdW  Elec       q    Type
REMARK                         _______ _______ _______ _____ _____    ______ ____
ROOT
ATOM      1  O   UNL     1      33.302 -12.858 -22.220  0.00  0.00    -0.450 OA
ATOM      2  O   UNL     1      32.735 -13.671 -25.619  0.00  0.00    -0.283 OA
ATOM      3  C   UNL     1      33.574 -14.684 -23.610  0.00  0.00    +0.110 C 
ATOM      4  C   UNL     1      33.718 -14.166 -22.323  0.00  0.00    +0.155 C 
ATOM      5  C   UNL     1      32.866 -12.500 -23.491  0.00  0.00    +0.184 C 
ATOM      6  C   UNL     1      33.011 -13.628 -24.442  0.00  0.00    +0.236 C 
ATOM      7  C   UNL     1      32.380 -11.301 -23.815  0.00  0.00    +0.044 C 
ATOM      8  C   UNL     1      33.930 -15.976 -23.931  0.00  0.00    +0.143 C 
ATOM      9  C   UNL     1      34.229 -14.932 -21.298  0.00  0.00    +0.074 C 
ATOM     10  C   UNL     1      34.451 -16.764 -22.902  0.00  0.00    +0.073 C 
ATOM     11  C   UNL     1      34.598 -16.247 -21.598  0.00  0.00    +0.140 C 
ENDROOT
BRANCH   7  14
ATOM     12 BR   UNL     1      30.485  -9.387 -19.195  0.00  0.00    -0.043 Br
ATOM     13 BR   UNL     1      33.378  -6.179 -22.960  0.00  0.00    -0.046 Br
ATOM     14  C   UNL     1      32.222 -10.156 -22.898  0.00  0.00    +0.038 C 
ATOM     15  C   UNL     1      31.546 -10.303 -21.697  0.00  0.00    +0.143 C 
ATOM     16  C   UNL     1      32.764  -8.937 -23.273  0.00  0.00    +0.013 C 
ATOM     17  C   UNL     1      31.410  -9.203 -20.849  0.00  0.00    +0.102 C 
ATOM     18  C   UNL     1      32.629  -7.838 -22.426  0.00  0.00    +0.069 C 
ATOM     19  C   UNL     1      31.951  -7.971 -21.214  0.00  0.00    +0.149 C 
BRANCH  15  20
ATOM     20  O   UNL     1      31.018 -11.514 -21.349  0.00  0.00    -0.505 OA
ATOM     21  H   UNL     1      31.585 -12.245 -21.191  0.00  0.00    +0.292 HD
ENDBRANCH  15  20
BRANCH  19  22
ATOM     22  O   UNL     1      31.820  -6.891 -20.387  0.00  0.00    -0.504 OA
ATOM     23  H   UNL     1      32.564  -6.569 -19.917  0.00  0.00    +0.292 HD
ENDBRANCH  19  22
ENDBRANCH   7  14
BRANCH   8  24
ATOM     24  O   UNL     1      33.787 -16.475 -25.183  0.00  0.00    -0.505 OA
ATOM     25  H   UNL     1      34.505 -16.442 -25.784  0.00  0.00    +0.292 HD
ENDBRANCH   8  24
BRANCH  11  26
ATOM     26  O   UNL     1      35.109 -17.043 -20.617  0.00  0.00    -0.505 OA
ATOM     27  H   UNL     1      34.728 -17.035 -19.760  0.00  0.00    +0.292 HD
ENDBRANCH  11  26
TORSDOF 5
ENDMDL
MODEL 2
REMARK VINA RESULT:     -11.0     10.402     14.009
REMARK  Name = 5288217
REMARK  5 active torsions:
REMARK  status: ('A' for Active; 'I' for Inactive)
REMARK    1  A    between atoms: C_7  and  C_14
REMARK    2  A    between atoms: C_8  and  O_24
REMARK    3  A    between atoms: C_11  and  O_26
REMARK    4  A    between atoms: C_15  and  O_20
REMARK    5  A    between atoms: C_19  and  O_22
REMARK                            x       y       z     vdW  Elec       q    Type
REMARK                         _______ _______ _______ _____ _____    ______ ____
ROOT
ATOM      1  O   UNL     1      35.269 -22.267 -16.757  0.00  0.00    -0.450 OA
ATOM      2  O   UNL     1      31.806 -22.739 -17.321  0.00  0.00    -0.283 OA
ATOM      3  C   UNL     1      33.696 -21.661 -18.336  0.00  0.00    +0.110 C 
ATOM      4  C   UNL     1      35.029 -21.594 -17.933  0.00  0.00    +0.155 C 
ATOM      5  C   UNL     1      34.044 -22.799 -16.370  0.00  0.00    +0.184 C 
ATOM      6  C   UNL     1      32.981 -22.449 -17.341  0.00  0.00    +0.236 C 
ATOM      7  C   UNL     1      33.849 -23.529 -15.271  0.00  0.00    +0.044 C 
ATOM      8  C   UNL     1      33.240 -21.054 -19.487  0.00  0.00    +0.143 C 
ATOM      9  C   UNL     1      35.967 -20.910 -18.676  0.00  0.00    +0.074 C 
ATOM     10  C   UNL     1      34.180 -20.357 -20.251  0.00  0.00    +0.073 C 
ATOM     11  C   UNL     1      35.530 -20.287 -19.849  0.00  0.00    +0.140 C 
ENDROOT
BRANCH   7  14
ATOM     12 BR   UNL     1      35.319 -23.910 -10.144  0.00  0.00    -0.043 Br
ATOM     13 BR   UNL     1      38.730 -25.411 -14.497  0.00  0.00    -0.046 Br
ATOM     14  C   UNL     1      34.880 -23.896 -14.282  0.00  0.00    +0.038 C 
ATOM     15  C   UNL     1      34.639 -23.750 -12.925  0.00  0.00    +0.143 C 
ATOM     16  C   UNL     1      36.089 -24.387 -14.749  0.00  0.00    +0.013 C 
ATOM     17  C   UNL     1      35.633 -24.105 -12.012  0.00  0.00    +0.102 C 
ATOM     18  C   UNL     1      37.082 -24.742 -13.836  0.00  0.00    +0.069 C 
ATOM     19  C   UNL     1      36.854 -24.600 -12.467  0.00  0.00    +0.149 C 
BRANCH  15  20
ATOM     20  O   UNL     1      33.440 -23.262 -12.488  0.00  0.00    -0.505 OA
ATOM     21  H   UNL     1      33.073 -22.496 -12.885  0.00  0.00    +0.292 HD
ENDBRANCH  15  20
BRANCH  19  22
ATOM     22  O   UNL     1      37.830 -24.948 -11.576  0.00  0.00    -0.504 OA
ATOM     23  H   UNL     1      38.703 -25.107 -11.878  0.00  0.00    +0.292 HD
ENDBRANCH  19  22
ENDBRANCH   7  14
BRANCH   8  24
ATOM     24  O   UNL     1      31.944 -21.122 -19.876  0.00  0.00    -0.505 OA
ATOM     25  H   UNL     1      31.269 -21.236 -19.236  0.00  0.00    +0.292 HD
ENDBRANCH   8  24
BRANCH  11  26
ATOM     26  O   UNL     1      36.421 -19.599 -20.617  0.00  0.00    -0.505 OA
ATOM     27  H   UNL     1      36.969 -20.057 -21.224  0.00  0.00    +0.292 HD
ENDBRANCH  11  26
TORSDOF 5
ENDMDL
MODEL 3
REMARK VINA RESULT:     -11.0      5.986      9.839
REMARK  Name = 5288217
REMARK  5 active torsions:
REMARK  status: ('A' for Active; 'I' for Inactive)
REMARK    1  A    between atoms: C_7  and  C_14
REMARK    2  A    between atoms: C_8  and  O_24
REMARK    3  A    between atoms: C_11  and  O_26
REMARK    4  A    between atoms: C_15  and  O_20
REMARK    5  A    between atoms: C_19  and  O_22
REMARK                            x       y       z     vdW  Elec       q    Type
REMARK                         _______ _______ _______ _____ _____    ______ ____
ROOT
ATOM      1  O   UNL     1      34.337 -18.222 -20.374  0.00  0.00    -0.450 OA
ATOM      2  O   UNL     1      34.497 -19.462 -23.687  0.00  0.00    -0.283 OA
ATOM      3  C   UNL     1      34.333 -17.369 -22.521  0.00  0.00    +0.110 C 
ATOM      4  C   UNL     1      34.281 -17.091 -21.156  0.00  0.00    +0.155 C 
ATOM      5  C   UNL     1      34.429 -19.289 -21.261  0.00  0.00    +0.184 C 
ATOM      6  C   UNL     1      34.432 -18.816 -22.666  0.00  0.00    +0.236 C 
ATOM      7  C   UNL     1      34.505 -20.570 -20.899  0.00  0.00    +0.044 C 
ATOM      8  C   UNL     1      34.291 -16.379 -23.480  0.00  0.00    +0.143 C 
ATOM      9  C   UNL     1      34.186 -15.796 -20.693  0.00  0.00    +0.074 C 
ATOM     10  C   UNL     1      34.193 -15.061 -23.026  0.00  0.00    +0.073 C 
ATOM     11  C   UNL     1      34.142 -14.773 -21.646  0.00  0.00    +0.140 C 
ENDROOT
BRANCH   7  14
ATOM     12 BR   UNL     1      31.788 -22.762 -16.849  0.00  0.00    -0.043 Br
ATOM     13 BR   UNL     1      37.352 -21.432 -16.527  0.00  0.00    -0.046 Br
ATOM     14  C   UNL     1      34.504 -21.079 -19.515  0.00  0.00    +0.038 C 
ATOM     15  C   UNL     1      33.344 -21.587 -18.951  0.00  0.00    +0.143 C 
ATOM     16  C   UNL     1      35.690 -21.033 -18.799  0.00  0.00    +0.013 C 
ATOM     17  C   UNL     1      33.372 -22.061 -17.639  0.00  0.00    +0.102 C 
ATOM     18  C   UNL     1      35.718 -21.506 -17.488  0.00  0.00    +0.069 C 
ATOM     19  C   UNL     1      34.558 -22.020 -16.908  0.00  0.00    +0.149 C 
BRANCH  15  20
ATOM     20  O   UNL     1      32.186 -21.621 -19.675  0.00  0.00    -0.505 OA
ATOM     21  H   UNL     1      31.986 -20.927 -20.272  0.00  0.00    +0.292 HD
ENDBRANCH  15  20
BRANCH  19  22
ATOM     22  O   UNL     1      34.589 -22.483 -15.622  0.00  0.00    -0.504 OA
ATOM     23  H   UNL     1      35.061 -23.268 -15.419  0.00  0.00    +0.292 HD
ENDBRANCH  19  22
ENDBRANCH   7  14
BRANCH   8  24
ATOM     24  O   UNL     1      34.341 -16.654 -24.805  0.00  0.00    -0.505 OA
ATOM     25  H   UNL     1      34.008 -17.468 -25.127  0.00  0.00    +0.292 HD
ENDBRANCH   8  24
BRANCH  11  26
ATOM     26  O   UNL     1      34.048 -13.476 -21.237  0.00  0.00    -0.505 OA
ATOM     27  H   UNL     1      33.285 -12.974 -21.443  0.00  0.00    +0.292 HD
ENDBRANCH  11  26
TORSDOF 5
ENDMDL
MODEL 4
REMARK VINA RESULT:     -10.5      1.114      2.315
REMARK  Name = 5288217
REMARK  5 active torsions:
REMARK  status: ('A' for Active; 'I' for Inactive)
REMARK    1  A    between atoms: C_7  and  C_14
REMARK    2  A    between atoms: C_8  and  O_24
REMARK    3  A    between atoms: C_11  and  O_26
REMARK    4  A    between atoms: C_15  and  O_20
REMARK    5  A    between atoms: C_19  and  O_22
REMARK                            x       y       z     vdW  Elec       q    Type
REMARK                         _______ _______ _______ _____ _____    ______ ____
ROOT
ATOM      1  O   UNL     1      33.112 -12.330 -21.936  0.00  0.00    -0.450 OA
ATOM      2  O   UNL     1      32.661 -12.769 -25.420  0.00  0.00    -0.283 OA
ATOM      3  C   UNL     1      33.429 -13.996 -23.504  0.00  0.00    +0.110 C 
ATOM      4  C   UNL     1      33.530 -13.621 -22.165  0.00  0.00    +0.155 C 
ATOM      5  C   UNL     1      32.720 -11.835 -23.174  0.00  0.00    +0.184 C 
ATOM      6  C   UNL     1      32.896 -12.854 -24.236  0.00  0.00    +0.236 C 
ATOM      7  C   UNL     1      32.247 -10.606 -23.383  0.00  0.00    +0.044 C 
ATOM      8  C   UNL     1      33.796 -15.248 -23.951  0.00  0.00    +0.143 C 
ATOM      9  C   UNL     1      34.005 -14.495 -21.212  0.00  0.00    +0.074 C 
ATOM     10  C   UNL     1      34.280 -16.145 -22.996  0.00  0.00    +0.073 C 
ATOM     11  C   UNL     1      34.383 -15.772 -21.639  0.00  0.00    +0.140 C 
ENDROOT
BRANCH   7  14
ATOM     12 BR   UNL     1      32.336  -5.423 -22.070  0.00  0.00    -0.043 Br
ATOM     13 BR   UNL     1      30.983  -9.569 -18.354  0.00  0.00    -0.046 Br
ATOM     14  C   UNL     1      32.058  -9.566 -22.354  0.00  0.00    +0.038 C 
ATOM     15  C   UNL     1      32.255  -8.228 -22.660  0.00  0.00    +0.143 C 
ATOM     16  C   UNL     1      31.681  -9.964 -21.082  0.00  0.00    +0.013 C 
ATOM     17  C   UNL     1      32.070  -7.265 -21.668  0.00  0.00    +0.102 C 
ATOM     18  C   UNL     1      31.497  -9.001 -20.089  0.00  0.00    +0.069 C 
ATOM     19  C   UNL     1      31.691  -7.651 -20.383  0.00  0.00    +0.149 C 
BRANCH  15  20
ATOM     20  O   UNL     1      32.627  -7.859 -23.922  0.00  0.00    -0.505 OA
ATOM     21  H   UNL     1      33.520  -7.954 -24.194  0.00  0.00    +0.292 HD
ENDBRANCH  15  20
BRANCH  19  22
ATOM     22  O   UNL     1      31.510  -6.711 -19.408  0.00  0.00    -0.504 OA
ATOM     23  H   UNL     1      31.304  -5.827 -19.643  0.00  0.00    +0.292 HD
ENDBRANCH  19  22
ENDBRANCH   7  14
BRANCH   8  24
ATOM     24  O   UNL     1      33.695 -15.608 -25.253  0.00  0.00    -0.505 OA
ATOM     25  H   UNL     1      33.077 -15.179 -25.811  0.00  0.00    +0.292 HD
ENDBRANCH   8  24
BRANCH  11  26
ATOM     26  O   UNL     1      34.859 -16.671 -20.733  0.00  0.00    -0.505 OA
ATOM     27  H   UNL     1      35.199 -16.375 -19.911  0.00  0.00    +0.292 HD
ENDBRANCH  11  26
TORSDOF 5
ENDMDL
MODEL 5
REMARK VINA RESULT:     -10.4      8.543     11.584
REMARK  Name = 5288217
REMARK  5 active torsions:
REMARK  status: ('A' for Active; 'I' for Inactive)
REMARK    1  A    between atoms: C_7  and  C_14
REMARK    2  A    between atoms: C_8  and  O_24
REMARK    3  A    between atoms: C_11  and  O_26
REMARK    4  A    between atoms: C_15  and  O_20
REMARK    5  A    between atoms: C_19  and  O_22
REMARK                            x       y       z     vdW  Elec       q    Type
REMARK                         _______ _______ _______ _____ _____    ______ ____
ROOT
ATOM      1  O   UNL     1      34.749 -20.644 -18.978  0.00  0.00    -0.450 OA
ATOM      2  O   UNL     1      31.686 -20.513 -20.748  0.00  0.00    -0.283 OA
ATOM      3  C   UNL     1      33.940 -19.706 -20.928  0.00  0.00    +0.110 C 
ATOM      4  C   UNL     1      35.037 -19.879 -20.086  0.00  0.00    +0.155 C 
ATOM      5  C   UNL     1      33.408 -20.988 -19.096  0.00  0.00    +0.184 C 
ATOM      6  C   UNL     1      32.818 -20.419 -20.331  0.00  0.00    +0.236 C 
ATOM      7  C   UNL     1      32.737 -21.734 -18.217  0.00  0.00    +0.044 C 
ATOM      8  C   UNL     1      34.010 -18.972 -22.093  0.00  0.00    +0.143 C 
ATOM      9  C   UNL     1      36.261 -19.319 -20.382  0.00  0.00    +0.074 C 
ATOM     10  C   UNL     1      35.245 -18.398 -22.406  0.00  0.00    +0.073 C 
ATOM     11  C   UNL     1      36.359 -18.571 -21.559  0.00  0.00    +0.140 C 
ENDROOT
BRANCH   7  14
ATOM     12 BR   UNL     1      31.867 -24.270 -13.591  0.00  0.00    -0.043 Br
ATOM     13 BR   UNL     1      37.084 -22.699 -15.364  0.00  0.00    -0.046 Br
ATOM     14  C   UNL     1      33.289 -22.317 -16.980  0.00  0.00    +0.038 C 
ATOM     15  C   UNL     1      32.452 -22.910 -16.046  0.00  0.00    +0.143 C 
ATOM     16  C   UNL     1      34.658 -22.254 -16.780  0.00  0.00    +0.013 C 
ATOM     17  C   UNL     1      33.001 -23.453 -14.884  0.00  0.00    +0.102 C 
ATOM     18  C   UNL     1      35.207 -22.797 -15.618  0.00  0.00    +0.069 C 
ATOM     19  C   UNL     1      34.377 -23.396 -14.670  0.00  0.00    +0.149 C 
BRANCH  15  20
ATOM     20  O   UNL     1      31.105 -22.959 -16.264  0.00  0.00    -0.505 OA
ATOM     21  H   UNL     1      30.710 -22.387 -16.894  0.00  0.00    +0.292 HD
ENDBRANCH  15  20
BRANCH  19  22
ATOM     22  O   UNL     1      34.918 -23.927 -13.532  0.00  0.00    -0.504 OA
ATOM     23  H   UNL     1      35.829 -24.148 -13.507  0.00  0.00    +0.292 HD
ENDBRANCH  19  22
ENDBRANCH   7  14
BRANCH   8  24
ATOM     24  O   UNL     1      32.942 -18.807 -22.909  0.00  0.00    -0.505 OA
ATOM     25  H   UNL     1      33.035 -18.930 -23.833  0.00  0.00    +0.292 HD
ENDBRANCH   8  24
BRANCH  11  26
ATOM     26  O   UNL     1      37.550 -17.998 -21.895  0.00  0.00    -0.505 OA
ATOM     27  H   UNL     1      38.203 -18.500 -22.341  0.00  0.00    +0.292 HD
ENDBRANCH  11  26
TORSDOF 5
ENDMDL
MODEL 6
REMARK VINA RESULT:     -10.3     10.670     14.419
REMARK  Name = 5288217
REMARK  5 active torsions:
REMARK  status: ('A' for Active; 'I' for Inactive)
REMARK    1  A    between atoms: C_7  and  C_14
REMARK    2  A    between atoms: C_8  and  O_24
REMARK    3  A    between atoms: C_11  and  O_26
REMARK    4  A    between atoms: C_15  and  O_20
REMARK    5  A    between atoms: C_19  and  O_22
REMARK                            x       y       z     vdW  Elec       q    Type
REMARK                         _______ _______ _______ _____ _____    ______ ____
ROOT
ATOM      1  O   UNL     1      35.332 -22.432 -16.355  0.00  0.00    -0.450 OA
ATOM      2  O   UNL     1      31.943 -23.213 -17.018  0.00  0.00    -0.283 OA
ATOM      3  C   UNL     1      33.759 -21.972 -17.983  0.00  0.00    +0.110 C 
ATOM      4  C   UNL     1      35.067 -21.785 -17.541  0.00  0.00    +0.155 C 
ATOM      5  C   UNL     1      34.149 -23.071 -16.002  0.00  0.00    +0.184 C 
ATOM      6  C   UNL     1      33.088 -22.819 -17.006  0.00  0.00    +0.236 C 
ATOM      7  C   UNL     1      33.988 -23.813 -14.906  0.00  0.00    +0.044 C 
ATOM      8  C   UNL     1      33.284 -21.411 -19.149  0.00  0.00    +0.143 C 
ATOM      9  C   UNL     1      35.962 -21.022 -18.259  0.00  0.00    +0.074 C 
ATOM     10  C   UNL     1      34.180 -20.633 -19.888  0.00  0.00    +0.073 C 
ATOM     11  C   UNL     1      35.506 -20.442 -19.447  0.00  0.00    +0.140 C 
ENDROOT
BRANCH   7  14
ATOM     12 BR   UNL     1      38.957 -25.421 -13.763  0.00  0.00    -0.043 Br
ATOM     13 BR   UNL     1      35.185 -23.824  -9.755  0.00  0.00    -0.046 Br
ATOM     14  C   UNL     1      35.018 -24.085 -13.886  0.00  0.00    +0.038 C 
ATOM     15  C   UNL     1      36.273 -24.543 -14.257  0.00  0.00    +0.143 C 
ATOM     16  C   UNL     1      34.695 -23.872 -12.556  0.00  0.00    +0.013 C 
ATOM     17  C   UNL     1      37.229 -24.793 -13.272  0.00  0.00    +0.102 C 
ATOM     18  C   UNL     1      35.650 -24.122 -11.571  0.00  0.00    +0.069 C 
ATOM     19  C   UNL     1      36.917 -24.582 -11.929  0.00  0.00    +0.149 C 
BRANCH  15  20
ATOM     20  O   UNL     1      36.569 -24.747 -15.575  0.00  0.00    -0.505 OA
ATOM     21  H   UNL     1      35.899 -25.032 -16.167  0.00  0.00    +0.292 HD
ENDBRANCH  15  20
BRANCH  19  22
ATOM     22  O   UNL     1      37.850 -24.826 -10.961  0.00  0.00    -0.504 OA
ATOM     23  H   UNL     1      37.576 -25.033 -10.088  0.00  0.00    +0.292 HD
ENDBRANCH  19  22
ENDBRANCH   7  14
BRANCH   8  24
ATOM     24  O   UNL     1      32.012 -21.595 -19.575  0.00  0.00    -0.505 OA
ATOM     25  H   UNL     1      31.698 -21.131 -20.326  0.00  0.00    +0.292 HD
ENDBRANCH   8  24
BRANCH  11  26
ATOM     26  O   UNL     1      36.355 -19.678 -20.192  0.00  0.00    -0.505 OA
ATOM     27  H   UNL     1      36.562 -19.929 -21.071  0.00  0.00    +0.292 HD
ENDBRANCH  11  26
TORSDOF 5
ENDMDL
MODEL 7
REMARK VINA RESULT:      -9.8      3.764      6.203
REMARK  Name = 5288217
REMARK  5 active torsions:
REMARK  status: ('A' for Active; 'I' for Inactive)
REMARK    1  A    between atoms: C_7  and  C_14
REMARK    2  A    between atoms: C_8  and  O_24
REMARK    3  A    between atoms: C_11  and  O_26
REMARK    4  A    between atoms: C_15  and  O_20
REMARK    5  A    between atoms: C_19  and  O_22
REMARK                            x       y       z     vdW  Elec       q    Type
REMARK                         _______ _______ _______ _____ _____    ______ ____
ROOT
ATOM      1  O   UNL     1      33.619 -18.062 -20.933  0.00  0.00    -0.450 OA
ATOM      2  O   UNL     1      37.037 -18.953 -21.173  0.00  0.00    -0.283 OA
ATOM      3  C   UNL     1      34.966 -19.843 -20.342  0.00  0.00    +0.110 C 
ATOM      4  C   UNL     1      33.680 -19.306 -20.347  0.00  0.00    +0.155 C 
ATOM      5  C   UNL     1      34.918 -17.767 -21.329  0.00  0.00    +0.184 C 
ATOM      6  C   UNL     1      35.845 -18.871 -20.981  0.00  0.00    +0.236 C 
ATOM      7  C   UNL     1      35.286 -16.641 -21.942  0.00  0.00    +0.044 C 
ATOM      8  C   UNL     1      35.250 -21.079 -19.804  0.00  0.00    +0.143 C 
ATOM      9  C   UNL     1      32.615 -19.996 -19.809  0.00  0.00    +0.074 C 
ATOM     10  C   UNL     1      34.181 -21.791 -19.253  0.00  0.00    +0.073 C 
ATOM     11  C   UNL     1      32.876 -21.254 -19.257  0.00  0.00    +0.140 C 
ENDROOT
BRANCH   7  14
ATOM     12 BR   UNL     1      32.134 -12.626 -20.351  0.00  0.00    -0.043 Br
ATOM     13 BR   UNL     1      33.042 -13.894 -25.864  0.00  0.00    -0.046 Br
ATOM     14  C   UNL     1      34.395 -15.523 -22.304  0.00  0.00    +0.038 C 
ATOM     15  C   UNL     1      33.799 -14.750 -21.319  0.00  0.00    +0.143 C 
ATOM     16  C   UNL     1      34.172 -15.271 -23.648  0.00  0.00    +0.013 C 
ATOM     17  C   UNL     1      32.960 -13.698 -21.689  0.00  0.00    +0.102 C 
ATOM     18  C   UNL     1      33.334 -14.220 -24.018  0.00  0.00    +0.069 C 
ATOM     19  C   UNL     1      32.727 -13.434 -23.038  0.00  0.00    +0.149 C 
BRANCH  15  20
ATOM     20  O   UNL     1      34.032 -15.018 -20.000  0.00  0.00    -0.505 OA
ATOM     21  H   UNL     1      34.053 -14.318 -19.376  0.00  0.00    +0.292 HD
ENDBRANCH  15  20
BRANCH  19  22
ATOM     22  O   UNL     1      31.906 -12.405 -23.405  0.00  0.00    -0.504 OA
ATOM     23  H   UNL     1      31.310 -12.515 -24.120  0.00  0.00    +0.292 HD
ENDBRANCH  19  22
ENDBRANCH   7  14
BRANCH   8  24
ATOM     24  O   UNL     1      36.502 -21.597 -19.801  0.00  0.00    -0.505 OA
ATOM     25  H   UNL     1      36.849 -21.987 -20.580  0.00  0.00    +0.292 HD
ENDBRANCH   8  24
BRANCH  11  26
ATOM     26  O   UNL     1      31.855 -21.975 -18.712  0.00  0.00    -0.505 OA
ATOM     27  H   UNL     1      31.828 -22.124 -17.788  0.00  0.00    +0.292 HD
ENDBRANCH  11  26
TORSDOF 5
ENDMDL
MODEL 8
REMARK VINA RESULT:      -9.8      3.680      6.369
REMARK  Name = 5288217
REMARK  5 active torsions:
REMARK  status: ('A' for Active; 'I' for Inactive)
REMARK    1  A    between atoms: C_7  and  C_14
REMARK    2  A    between atoms: C_8  and  O_24
REMARK    3  A    between atoms: C_11  and  O_26
REMARK    4  A    between atoms: C_15  and  O_20
REMARK    5  A    between atoms: C_19  and  O_22
REMARK                            x       y       z     vdW  Elec       q    Type
REMARK                         _______ _______ _______ _____ _____    ______ ____
ROOT
ATOM      1  O   UNL     1      33.605 -17.998 -20.953  0.00  0.00    -0.450 OA
ATOM      2  O   UNL     1      37.035 -18.845 -21.178  0.00  0.00    -0.283 OA
ATOM      3  C   UNL     1      34.971 -19.767 -20.368  0.00  0.00    +0.110 C 
ATOM      4  C   UNL     1      33.678 -19.246 -20.377  0.00  0.00    +0.155 C 
ATOM      5  C   UNL     1      34.903 -17.684 -21.338  0.00  0.00    +0.184 C 
ATOM      6  C   UNL     1      35.841 -18.779 -20.993  0.00  0.00    +0.236 C 
ATOM      7  C   UNL     1      35.261 -16.549 -21.940  0.00  0.00    +0.044 C 
ATOM      8  C   UNL     1      35.266 -21.004 -19.838  0.00  0.00    +0.143 C 
ATOM      9  C   UNL     1      32.618 -19.953 -19.851  0.00  0.00    +0.074 C 
ATOM     10  C   UNL     1      34.202 -21.733 -19.300  0.00  0.00    +0.073 C 
ATOM     11  C   UNL     1      32.891 -21.213 -19.308  0.00  0.00    +0.140 C 
ENDROOT
BRANCH   7  14
ATOM     12 BR   UNL     1      32.859 -13.676 -25.757  0.00  0.00    -0.043 Br
ATOM     13 BR   UNL     1      32.167 -12.645 -20.163  0.00  0.00    -0.046 Br
ATOM     14  C   UNL     1      34.359 -15.438 -22.298  0.00  0.00    +0.038 C 
ATOM     15  C   UNL     1      34.092 -15.147 -23.627  0.00  0.00    +0.143 C 
ATOM     16  C   UNL     1      33.790 -14.700 -21.273  0.00  0.00    +0.013 C 
ATOM     17  C   UNL     1      33.236 -14.090 -23.938  0.00  0.00    +0.102 C 
ATOM     18  C   UNL     1      32.933 -13.644 -21.583  0.00  0.00    +0.069 C 
ATOM     19  C   UNL     1      32.656 -13.339 -22.916  0.00  0.00    +0.149 C 
BRANCH  15  20
ATOM     20  O   UNL     1      34.666 -15.888 -24.621  0.00  0.00    -0.505 OA
ATOM     21  H   UNL     1      34.242 -16.664 -24.932  0.00  0.00    +0.292 HD
ENDBRANCH  15  20
BRANCH  19  22
ATOM     22  O   UNL     1      31.817 -12.303 -23.216  0.00  0.00    -0.504 OA
ATOM     23  H   UNL     1      31.586 -12.132 -24.108  0.00  0.00    +0.292 HD
ENDBRANCH  19  22
ENDBRANCH   7  14
BRANCH   8  24
ATOM     24  O   UNL     1      36.524 -21.507 -19.831  0.00  0.00    -0.505 OA
ATOM     25  H   UNL     1      37.173 -21.151 -20.406  0.00  0.00    +0.292 HD
ENDBRANCH   8  24
BRANCH  11  26
ATOM     26  O   UNL     1      31.876 -21.950 -18.776  0.00  0.00    -0.505 OA
ATOM     27  H   UNL     1      31.064 -22.032 -19.237  0.00  0.00    +0.292 HD
ENDBRANCH  11  26
TORSDOF 5
ENDMDL
MODEL 9
REMARK VINA RESULT:      -9.7      5.960      9.921
REMARK  Name = 5288217
REMARK  5 active torsions:
REMARK  status: ('A' for Active; 'I' for Inactive)
REMARK    1  A    between atoms: C_7  and  C_14
REMARK    2  A    between atoms: C_8  and  O_24
REMARK    3  A    between atoms: C_11  and  O_26
REMARK    4  A    between atoms: C_15  and  O_20
REMARK    5  A    between atoms: C_19  and  O_22
REMARK                            x       y       z     vdW  Elec       q    Type
REMARK                         _______ _______ _______ _____ _____    ______ ____
ROOT
ATOM      1  O   UNL     1      34.251 -18.187 -20.435  0.00  0.00    -0.450 OA
ATOM      2  O   UNL     1      34.237 -19.435 -23.748  0.00  0.00    -0.283 OA
ATOM      3  C   UNL     1      34.210 -17.336 -22.582  0.00  0.00    +0.110 C 
ATOM      4  C   UNL     1      34.219 -17.055 -21.216  0.00  0.00    +0.155 C 
ATOM      5  C   UNL     1      34.262 -19.257 -21.321  0.00  0.00    +0.184 C 
ATOM      6  C   UNL     1      34.238 -18.786 -22.726  0.00  0.00    +0.236 C 
ATOM      7  C   UNL     1      34.292 -20.541 -20.959  0.00  0.00    +0.044 C 
ATOM      8  C   UNL     1      34.180 -16.346 -23.541  0.00  0.00    +0.143 C 
ATOM      9  C   UNL     1      34.200 -15.757 -20.754  0.00  0.00    +0.074 C 
ATOM     10  C   UNL     1      34.159 -15.025 -23.087  0.00  0.00    +0.073 C 
ATOM     11  C   UNL     1      34.170 -14.734 -21.707  0.00  0.00    +0.140 C 
ENDROOT
BRANCH   7  14
ATOM     12 BR   UNL     1      37.101 -21.548 -16.522  0.00  0.00    -0.043 Br
ATOM     13 BR   UNL     1      31.497 -22.647 -16.995  0.00  0.00    -0.046 Br
ATOM     14  C   UNL     1      34.317 -21.048 -19.574  0.00  0.00    +0.038 C 
ATOM     15  C   UNL     1      35.496 -21.051 -18.845  0.00  0.00    +0.143 C 
ATOM     16  C   UNL     1      33.133 -21.519 -19.029  0.00  0.00    +0.013 C 
ATOM     17  C   UNL     1      35.491 -21.537 -17.538  0.00  0.00    +0.102 C 
ATOM     18  C   UNL     1      33.128 -22.005 -17.721  0.00  0.00    +0.069 C 
ATOM     19  C   UNL     1      34.307 -22.014 -16.976  0.00  0.00    +0.149 C 
BRANCH  15  20
ATOM     20  O   UNL     1      36.651 -20.582 -19.405  0.00  0.00    -0.505 OA
ATOM     21  H   UNL     1      36.910 -19.691 -19.269  0.00  0.00    +0.292 HD
ENDBRANCH  15  20
BRANCH  19  22
ATOM     22  O   UNL     1      34.298 -22.492 -15.696  0.00  0.00    -0.504 OA
ATOM     23  H   UNL     1      34.867 -23.196 -15.455  0.00  0.00    +0.292 HD
ENDBRANCH  19  22
ENDBRANCH   7  14
BRANCH   8  24
ATOM     24  O   UNL     1      34.172 -16.624 -24.867  0.00  0.00    -0.505 OA
ATOM     25  H   UNL     1      33.403 -16.457 -25.375  0.00  0.00    +0.292 HD
ENDBRANCH   8  24
BRANCH  11  26
ATOM     26  O   UNL     1      34.150 -13.434 -21.297  0.00  0.00    -0.505 OA
ATOM     27  H   UNL     1      33.397 -13.092 -20.856  0.00  0.00    +0.292 HD
ENDBRANCH  11  26
TORSDOF 5
ENDMDL
