MODEL 1
REMARK VINA RESULT:     -13.3      0.000      0.000
REMARK  Name = 216239
REMARK  6 active torsions:
REMARK  status: ('A' for Active; 'I' for Inactive)
REMARK    1  A    between atoms: C_1  and  N_9
REMARK    2  A    between atoms: C_2  and  O_24
REMARK    3  A    between atoms: N_8  and  C_14
REMARK    4  A    between atoms: C_15  and  C_23
REMARK    5  A    between atoms: O_24  and  C_26
REMARK    6  A    between atoms: C_28  and  C_33
REMARK                            x       y       z     vdW  Elec       q    Type
REMARK                         _______ _______ _______ _____ _____    ______ ____
ROOT
ATOM      1  C   UNL     1      35.280 -20.309 -19.709  0.00  0.00    +0.052 C 
ATOM      2  C   UNL     1      35.185 -18.354 -21.669  0.00  0.00    +0.145 C 
ATOM      3  C   UNL     1      34.080 -20.048 -20.348  0.00  0.00    +0.018 C 
ATOM      4  C   UNL     1      36.434 -19.613 -20.029  0.00  0.00    +0.018 C 
ATOM      5  C   UNL     1      34.032 -19.064 -21.336  0.00  0.00    +0.039 C 
ATOM      6  C   UNL     1      36.386 -18.628 -21.015  0.00  0.00    +0.039 C 
ENDROOT
BRANCH   1   9
ATOM      7  O   UNL     1      36.670 -20.321 -17.066  0.00  0.00    -0.252 OA
ATOM      8  N   UNL     1      35.792 -22.472 -16.768  0.00  0.00    -0.268 N 
ATOM      9  N   UNL     1      35.328 -21.307 -18.709  0.00  0.00    -0.268 N 
ATOM     10  C   UNL     1      36.000 -21.263 -17.476  0.00  0.00    +0.308 C 
ATOM     11  H   UNL     1      35.230 -23.142 -17.222  0.00  0.00    +0.156 HD
ATOM     12  H   UNL     1      34.830 -22.134 -18.898  0.00  0.00    +0.156 HD
BRANCH   8  14
ATOM     13 CL   UNL     1      37.813 -24.016 -11.433  0.00  0.00    -0.082 Cl
ATOM     14  C   UNL     1      36.276 -22.842 -15.513  0.00  0.00    +0.052 C 
ATOM     15  C   UNL     1      37.945 -23.940 -14.154  0.00  0.00    +0.083 C 
ATOM     16  C   UNL     1      37.460 -23.572 -15.409  0.00  0.00    +0.019 C 
ATOM     17  C   UNL     1      35.575 -22.481 -14.362  0.00  0.00    +0.016 C 
ATOM     18  C   UNL     1      37.244 -23.580 -13.002  0.00  0.00    +0.062 C 
ATOM     19  C   UNL     1      36.060 -22.850 -13.107  0.00  0.00    +0.013 C 
BRANCH  15  23
ATOM     20  F   UNL     1      40.183 -24.120 -13.330  0.00  0.00    -0.166 F 
ATOM     21  F   UNL     1      39.065 -25.966 -13.549  0.00  0.00    -0.166 F 
ATOM     22  F   UNL     1      39.778 -24.913 -15.314  0.00  0.00    -0.166 F 
ATOM     23  C   UNL     1      39.218 -24.720 -14.085  0.00  0.00    +0.419 C 
ENDBRANCH  15  23
ENDBRANCH   8  14
ENDBRANCH   1   9
BRANCH   2  24
ATOM     24  O   UNL     1      35.138 -17.392 -22.631  0.00  0.00    -0.453 OA
BRANCH  24  26
ATOM     25  N   UNL     1      33.431 -13.739 -21.623  0.00  0.00    -0.239 NA
ATOM     26  C   UNL     1      34.570 -16.174 -22.296  0.00  0.00    +0.149 C 
ATOM     27  C   UNL     1      34.219 -15.295 -23.298  0.00  0.00    +0.061 C 
ATOM     28  C   UNL     1      33.653 -14.092 -22.910  0.00  0.00    +0.137 C 
ATOM     29  C   UNL     1      34.367 -15.869 -20.966  0.00  0.00    +0.058 C 
ATOM     30  C   UNL     1      33.795 -14.639 -20.683  0.00  0.00    +0.102 C 
BRANCH  28  33
ATOM     31  O   UNL     1      33.395 -11.896 -23.691  0.00  0.00    -0.268 OA
ATOM     32  N   UNL     1      32.742 -13.606 -25.114  0.00  0.00    -0.298 N 
ATOM     33  C   UNL     1      33.256 -13.113 -23.908  0.00  0.00    +0.264 C 
ATOM     34  C   UNL     1      32.326 -12.761 -26.210  0.00  0.00    +0.111 C 
ATOM     35  H   UNL     1      32.658 -14.582 -25.220  0.00  0.00    +0.150 HD
ENDBRANCH  28  33
ENDBRANCH  24  26
ENDBRANCH   2  24
TORSDOF 6
ENDMDL
MODEL 2
REMARK VINA RESULT:     -13.2      8.757     13.758
REMARK  Name = 216239
REMARK  6 active torsions:
REMARK  status: ('A' for Active; 'I' for Inactive)
REMARK    1  A    between atoms: C_1  and  N_9
REMARK    2  A    between atoms: C_2  and  O_24
REMARK    3  A    between atoms: N_8  and  C_14
REMARK    4  A    between atoms: C_15  and  C_23
REMARK    5  A    between atoms: O_24  and  C_26
REMARK    6  A    between atoms: C_28  and  C_33
REMARK                            x       y       z     vdW  Elec       q    Type
REMARK                         _______ _______ _______ _____ _____    ______ ____
ROOT
ATOM      1  C   UNL     1      32.866 -13.441 -22.293  0.00  0.00    +0.052 C 
ATOM      2  C   UNL     1      34.213 -15.784 -22.901  0.00  0.00    +0.145 C 
ATOM      3  C   UNL     1      32.860 -13.907 -23.596  0.00  0.00    +0.018 C 
ATOM      4  C   UNL     1      33.530 -14.121 -21.286  0.00  0.00    +0.018 C 
ATOM      5  C   UNL     1      33.539 -15.086 -23.903  0.00  0.00    +0.039 C 
ATOM      6  C   UNL     1      34.210 -15.301 -21.592  0.00  0.00    +0.039 C 
ENDROOT
BRANCH   1   9
ATOM      7  O   UNL     1      32.981 -10.758 -23.599  0.00  0.00    -0.252 OA
ATOM      8  N   UNL     1      31.410 -10.066 -22.005  0.00  0.00    -0.268 N 
ATOM      9  N   UNL     1      32.177 -12.245 -21.982  0.00  0.00    -0.268 N 
ATOM     10  C   UNL     1      32.268 -11.003 -22.632  0.00  0.00    +0.308 C 
ATOM     11  H   UNL     1      30.896 -10.405 -21.236  0.00  0.00    +0.156 HD
ATOM     12  H   UNL     1      31.559 -12.288 -21.218  0.00  0.00    +0.156 HD
BRANCH   8  14
ATOM     13 CL   UNL     1      30.501  -4.401 -23.426  0.00  0.00    -0.082 Cl
ATOM     14  C   UNL     1      31.197  -8.726 -22.330  0.00  0.00    +0.052 C 
ATOM     15  C   UNL     1      31.156  -6.397 -21.689  0.00  0.00    +0.083 C 
ATOM     16  C   UNL     1      31.369  -7.737 -21.363  0.00  0.00    +0.019 C 
ATOM     17  C   UNL     1      30.811  -8.377 -23.625  0.00  0.00    +0.016 C 
ATOM     18  C   UNL     1      30.771  -6.047 -22.984  0.00  0.00    +0.062 C 
ATOM     19  C   UNL     1      30.599  -7.038 -23.951  0.00  0.00    +0.013 C 
BRANCH  15  23
ATOM     20  F   UNL     1      32.217  -4.373 -20.983  0.00  0.00    -0.166 F 
ATOM     21  F   UNL     1      30.202  -4.730 -20.264  0.00  0.00    -0.166 F 
ATOM     22  F   UNL     1      31.858  -5.896 -19.474  0.00  0.00    -0.166 F 
ATOM     23  C   UNL     1      31.354  -5.367 -20.625  0.00  0.00    +0.419 C 
ENDBRANCH  15  23
ENDBRANCH   8  14
ENDBRANCH   1   9
BRANCH   2  24
ATOM     24  O   UNL     1      34.877 -16.933 -23.201  0.00  0.00    -0.453 OA
BRANCH  24  26
ATOM     25  N   UNL     1      35.529 -19.648 -20.122  0.00  0.00    -0.239 NA
ATOM     26  C   UNL     1      35.093 -17.837 -22.174  0.00  0.00    +0.149 C 
ATOM     27  C   UNL     1      34.031 -18.562 -21.679  0.00  0.00    +0.061 C 
ATOM     28  C   UNL     1      34.301 -19.454 -20.654  0.00  0.00    +0.137 C 
ATOM     29  C   UNL     1      36.368 -17.992 -21.671  0.00  0.00    +0.058 C 
ATOM     30  C   UNL     1      36.533 -18.909 -20.645  0.00  0.00    +0.102 C 
BRANCH  28  33
ATOM     31  O   UNL     1      32.075 -20.182 -20.531  0.00  0.00    -0.268 OA
ATOM     32  N   UNL     1      33.575 -21.114 -19.029  0.00  0.00    -0.298 N 
ATOM     33  C   UNL     1      33.232 -20.255 -20.080  0.00  0.00    +0.264 C 
ATOM     34  C   UNL     1      32.631 -21.989 -18.371  0.00  0.00    +0.111 C 
ATOM     35  H   UNL     1      34.510 -21.122 -18.720  0.00  0.00    +0.150 HD
ENDBRANCH  28  33
ENDBRANCH  24  26
ENDBRANCH   2  24
TORSDOF 6
ENDMDL
MODEL 3
REMARK VINA RESULT:     -13.2      1.538      2.302
REMARK  Name = 216239
REMARK  6 active torsions:
REMARK  status: ('A' for Active; 'I' for Inactive)
REMARK    1  A    between atoms: C_1  and  N_9
REMARK    2  A    between atoms: C_2  and  O_24
REMARK    3  A    between atoms: N_8  and  C_14
REMARK    4  A    between atoms: C_15  and  C_23
REMARK    5  A    between atoms: O_24  and  C_26
REMARK    6  A    between atoms: C_28  and  C_33
REMARK                            x       y       z     vdW  Elec       q    Type
REMARK                         _______ _______ _______ _____ _____    ______ ____
ROOT
ATOM      1  C   UNL     1      35.851 -19.432 -20.089  0.00  0.00    +0.052 C 
ATOM      2  C   UNL     1      34.944 -18.455 -22.517  0.00  0.00    +0.145 C 
ATOM      3  C   UNL     1      34.575 -19.757 -20.515  0.00  0.00    +0.018 C 
ATOM      4  C   UNL     1      36.684 -18.629 -20.850  0.00  0.00    +0.018 C 
ATOM      5  C   UNL     1      34.118 -19.265 -21.738  0.00  0.00    +0.039 C 
ATOM      6  C   UNL     1      36.227 -18.136 -22.072  0.00  0.00    +0.039 C 
ENDROOT
BRANCH   1   9
ATOM      7  O   UNL     1      35.077 -21.899 -18.595  0.00  0.00    -0.252 OA
ATOM      8  N   UNL     1      36.626 -21.236 -16.968  0.00  0.00    -0.268 N 
ATOM      9  N   UNL     1      36.315 -19.931 -18.849  0.00  0.00    -0.268 N 
ATOM     10  C   UNL     1      35.915 -21.104 -18.186  0.00  0.00    +0.308 C 
ATOM     11  H   UNL     1      37.270 -20.518 -16.768  0.00  0.00    +0.156 HD
ATOM     12  H   UNL     1      37.000 -19.391 -18.394  0.00  0.00    +0.156 HD
BRANCH   8  14
ATOM     13 CL   UNL     1      36.197 -25.514 -12.912  0.00  0.00    -0.082 Cl
ATOM     14  C   UNL     1      36.535 -22.248 -16.012  0.00  0.00    +0.052 C 
ATOM     15  C   UNL     1      37.593 -23.923 -14.630  0.00  0.00    +0.083 C 
ATOM     16  C   UNL     1      37.685 -22.912 -15.586  0.00  0.00    +0.019 C 
ATOM     17  C   UNL     1      35.292 -22.594 -15.481  0.00  0.00    +0.016 C 
ATOM     18  C   UNL     1      36.350 -24.270 -14.099  0.00  0.00    +0.062 C 
ATOM     19  C   UNL     1      35.201 -23.605 -14.524  0.00  0.00    +0.013 C 
BRANCH  15  23
ATOM     20  F   UNL     1      38.817 -25.962 -14.372  0.00  0.00    -0.166 F 
ATOM     21  F   UNL     1      39.958 -24.186 -14.871  0.00  0.00    -0.166 F 
ATOM     22  F   UNL     1      39.122 -24.414 -12.876  0.00  0.00    -0.166 F 
ATOM     23  C   UNL     1      38.849 -24.609 -14.198  0.00  0.00    +0.419 C 
ENDBRANCH  15  23
ENDBRANCH   8  14
ENDBRANCH   1   9
BRANCH   2  24
ATOM     24  O   UNL     1      34.497 -17.974 -23.708  0.00  0.00    -0.453 OA
BRANCH  24  26
ATOM     25  N   UNL     1      33.180 -14.033 -23.829  0.00  0.00    -0.239 NA
ATOM     26  C   UNL     1      34.057 -16.661 -23.748  0.00  0.00    +0.149 C 
ATOM     27  C   UNL     1      33.939 -15.953 -22.571  0.00  0.00    +0.061 C 
ATOM     28  C   UNL     1      33.497 -14.644 -22.665  0.00  0.00    +0.137 C 
ATOM     29  C   UNL     1      33.749 -16.091 -24.965  0.00  0.00    +0.058 C 
ATOM     30  C   UNL     1      33.314 -14.775 -24.951  0.00  0.00    +0.102 C 
BRANCH  28  33
ATOM     31  O   UNL     1      34.139 -13.960 -20.516  0.00  0.00    -0.268 OA
ATOM     32  N   UNL     1      32.300 -12.905 -21.455  0.00  0.00    -0.298 N 
ATOM     33  C   UNL     1      33.348 -13.834 -21.468  0.00  0.00    +0.264 C 
ATOM     34  C   UNL     1      32.037 -12.013 -20.348  0.00  0.00    +0.111 C 
ATOM     35  H   UNL     1      31.710 -12.857 -22.242  0.00  0.00    +0.150 HD
ENDBRANCH  28  33
ENDBRANCH  24  26
ENDBRANCH   2  24
TORSDOF 6
ENDMDL
MODEL 4
REMARK VINA RESULT:     -13.0      7.771     12.862
REMARK  Name = 216239
REMARK  6 active torsions:
REMARK  status: ('A' for Active; 'I' for Inactive)
REMARK    1  A    between atoms: C_1  and  N_9
REMARK    2  A    between atoms: C_2  and  O_24
REMARK    3  A    between atoms: N_8  and  C_14
REMARK    4  A    between atoms: C_15  and  C_23
REMARK    5  A    between atoms: O_24  and  C_26
REMARK    6  A    between atoms: C_28  and  C_33
REMARK                            x       y       z     vdW  Elec       q    Type
REMARK                         _______ _______ _______ _____ _____    ______ ____
ROOT
ATOM      1  C   UNL     1      34.200 -15.658 -22.843  0.00  0.00    +0.052 C 
ATOM      2  C   UNL     1      34.960 -18.182 -21.991  0.00  0.00    +0.145 C 
ATOM      3  C   UNL     1      34.189 -16.709 -23.744  0.00  0.00    +0.018 C 
ATOM      4  C   UNL     1      34.583 -15.841 -21.525  0.00  0.00    +0.018 C 
ATOM      5  C   UNL     1      34.571 -17.980 -23.315  0.00  0.00    +0.039 C 
ATOM      6  C   UNL     1      34.967 -17.112 -21.095  0.00  0.00    +0.039 C 
ENDROOT
BRANCH   1   9
ATOM      7  O   UNL     1      33.183 -13.323 -21.284  0.00  0.00    -0.252 OA
ATOM      8  N   UNL     1      33.062 -12.185 -23.328  0.00  0.00    -0.268 N 
ATOM      9  N   UNL     1      33.812 -14.370 -23.279  0.00  0.00    -0.268 N 
ATOM     10  C   UNL     1      33.338 -13.300 -22.500  0.00  0.00    +0.308 C 
ATOM     11  H   UNL     1      33.234 -12.313 -24.289  0.00  0.00    +0.156 HD
ATOM     12  H   UNL     1      33.882 -14.200 -24.246  0.00  0.00    +0.156 HD
BRANCH   8  14
ATOM     13 CL   UNL     1      30.974  -6.880 -21.768  0.00  0.00    -0.082 Cl
ATOM     14  C   UNL     1      32.578 -10.928 -22.964  0.00  0.00    +0.052 C 
ATOM     15  C   UNL     1      32.785  -8.521 -22.974  0.00  0.00    +0.083 C 
ATOM     16  C   UNL     1      33.271  -9.777 -23.338  0.00  0.00    +0.019 C 
ATOM     17  C   UNL     1      31.399 -10.824 -22.225  0.00  0.00    +0.016 C 
ATOM     18  C   UNL     1      31.607  -8.416 -22.235  0.00  0.00    +0.062 C 
ATOM     19  C   UNL     1      30.914  -9.568 -21.861  0.00  0.00    +0.013 C 
BRANCH  15  23
ATOM     20  F   UNL     1      32.838  -6.455 -24.178  0.00  0.00    -0.166 F 
ATOM     21  F   UNL     1      34.001  -6.558 -22.350  0.00  0.00    -0.166 F 
ATOM     22  F   UNL     1      34.667  -7.629 -24.121  0.00  0.00    -0.166 F 
ATOM     23  C   UNL     1      33.556  -7.312 -23.396  0.00  0.00    +0.419 C 
ENDBRANCH  15  23
ENDBRANCH   8  14
ENDBRANCH   1   9
BRANCH   2  24
ATOM     24  O   UNL     1      35.335 -19.421 -21.572  0.00  0.00    -0.453 OA
BRANCH  24  26
ATOM     25  N   UNL     1      32.994 -21.270 -18.678  0.00  0.00    -0.239 NA
ATOM     26  C   UNL     1      34.556 -20.038 -20.608  0.00  0.00    +0.149 C 
ATOM     27  C   UNL     1      35.170 -20.685 -19.557  0.00  0.00    +0.061 C 
ATOM     28  C   UNL     1      34.346 -21.284 -18.618  0.00  0.00    +0.137 C 
ATOM     29  C   UNL     1      33.182 -19.990 -20.721  0.00  0.00    +0.058 C 
ATOM     30  C   UNL     1      32.447 -20.622 -19.730  0.00  0.00    +0.102 C 
BRANCH  28  33
ATOM     31  O   UNL     1      34.313 -22.935 -16.954  0.00  0.00    -0.268 OA
ATOM     32  N   UNL     1      36.175 -21.556 -17.037  0.00  0.00    -0.298 N 
ATOM     33  C   UNL     1      34.919 -21.985 -17.482  0.00  0.00    +0.264 C 
ATOM     34  C   UNL     1      36.884 -22.166 -15.935  0.00  0.00    +0.111 C 
ATOM     35  H   UNL     1      36.599 -20.797 -17.500  0.00  0.00    +0.150 HD
ENDBRANCH  28  33
ENDBRANCH  24  26
ENDBRANCH   2  24
TORSDOF 6
ENDMDL
MODEL 5
REMARK VINA RESULT:     -13.0      1.623      2.105
REMARK  Name = 216239
REMARK  6 active torsions:
REMARK  status: ('A' for Active; 'I' for Inactive)
REMARK    1  A    between atoms: C_1  and  N_9
REMARK    2  A    between atoms: C_2  and  O_24
REMARK    3  A    between atoms: N_8  and  C_14
REMARK    4  A    between atoms: C_15  and  C_23
REMARK    5  A    between atoms: O_24  and  C_26
REMARK    6  A    between atoms: C_28  and  C_33
REMARK                            x       y       z     vdW  Elec       q    Type
REMARK                         _______ _______ _______ _____ _____    ______ ____
ROOT
ATOM      1  C   UNL     1      34.442 -21.138 -19.092  0.00  0.00    +0.052 C 
ATOM      2  C   UNL     1      34.982 -19.485 -21.248  0.00  0.00    +0.145 C 
ATOM      3  C   UNL     1      35.758 -20.856 -19.416  0.00  0.00    +0.018 C 
ATOM      4  C   UNL     1      33.389 -20.612 -19.822  0.00  0.00    +0.018 C 
ATOM      5  C   UNL     1      36.030 -20.023 -20.502  0.00  0.00    +0.039 C 
ATOM      6  C   UNL     1      33.661 -19.781 -20.909  0.00  0.00    +0.039 C 
ENDROOT
BRANCH   1   9
ATOM      7  O   UNL     1      35.729 -21.275 -16.401  0.00  0.00    -0.252 OA
ATOM      8  N   UNL     1      34.224 -23.004 -15.919  0.00  0.00    -0.268 N 
ATOM      9  N   UNL     1      34.166 -21.982 -17.991  0.00  0.00    -0.268 N 
ATOM     10  C   UNL     1      34.805 -22.006 -16.740  0.00  0.00    +0.308 C 
ATOM     11  H   UNL     1      33.488 -23.517 -16.326  0.00  0.00    +0.156 HD
ATOM     12  H   UNL     1      33.439 -22.633 -18.116  0.00  0.00    +0.156 HD
BRANCH   8  14
ATOM     13 CL   UNL     1      35.588 -24.500 -10.366  0.00  0.00    -0.082 Cl
ATOM     14  C   UNL     1      34.556 -23.359 -14.612  0.00  0.00    +0.052 C 
ATOM     15  C   UNL     1      36.205 -24.032 -12.980  0.00  0.00    +0.083 C 
ATOM     16  C   UNL     1      35.874 -23.678 -14.287  0.00  0.00    +0.019 C 
ATOM     17  C   UNL     1      33.567 -23.396 -13.628  0.00  0.00    +0.016 C 
ATOM     18  C   UNL     1      35.216 -24.069 -11.995  0.00  0.00    +0.062 C 
ATOM     19  C   UNL     1      33.898 -23.750 -12.320  0.00  0.00    +0.013 C 
BRANCH  15  23
ATOM     20  F   UNL     1      38.456 -24.263 -13.753  0.00  0.00    -0.166 F 
ATOM     21  F   UNL     1      38.182 -23.559 -11.720  0.00  0.00    -0.166 F 
ATOM     22  F   UNL     1      37.780 -25.639 -12.211  0.00  0.00    -0.166 F 
ATOM     23  C   UNL     1      37.629 -24.364 -12.672  0.00  0.00    +0.419 C 
ENDBRANCH  15  23
ENDBRANCH   8  14
ENDBRANCH   1   9
BRANCH   2  24
ATOM     24  O   UNL     1      35.247 -18.675 -22.309  0.00  0.00    -0.453 OA
BRANCH  24  26
ATOM     25  N   UNL     1      33.774 -14.791 -22.183  0.00  0.00    -0.239 NA
ATOM     26  C   UNL     1      34.757 -17.381 -22.268  0.00  0.00    +0.149 C 
ATOM     27  C   UNL     1      34.308 -16.792 -23.431  0.00  0.00    +0.061 C 
ATOM     28  C   UNL     1      33.826 -15.497 -23.336  0.00  0.00    +0.137 C 
ATOM     29  C   UNL     1      34.728 -16.709 -21.063  0.00  0.00    +0.058 C 
ATOM     30  C   UNL     1      34.228 -15.417 -21.075  0.00  0.00    +0.102 C 
BRANCH  28  33
ATOM     31  O   UNL     1      33.200 -15.420 -25.594  0.00  0.00    -0.268 OA
ATOM     32  N   UNL     1      33.006 -13.456 -24.377  0.00  0.00    -0.298 N 
ATOM     33  C   UNL     1      33.335 -14.810 -24.518  0.00  0.00    +0.264 C 
ATOM     34  C   UNL     1      32.484 -12.644 -25.453  0.00  0.00    +0.111 C 
ATOM     35  H   UNL     1      33.138 -13.034 -23.497  0.00  0.00    +0.150 HD
ENDBRANCH  28  33
ENDBRANCH  24  26
ENDBRANCH   2  24
TORSDOF 6
ENDMDL
MODEL 6
REMARK VINA RESULT:     -12.9      8.995     13.991
REMARK  Name = 216239
REMARK  6 active torsions:
REMARK  status: ('A' for Active; 'I' for Inactive)
REMARK    1  A    between atoms: C_1  and  N_9
REMARK    2  A    between atoms: C_2  and  O_24
REMARK    3  A    between atoms: N_8  and  C_14
REMARK    4  A    between atoms: C_15  and  C_23
REMARK    5  A    between atoms: O_24  and  C_26
REMARK    6  A    between atoms: C_28  and  C_33
REMARK                            x       y       z     vdW  Elec       q    Type
REMARK                         _______ _______ _______ _____ _____    ______ ____
ROOT
ATOM      1  C   UNL     1      32.897 -13.567 -22.943  0.00  0.00    +0.052 C 
ATOM      2  C   UNL     1      34.153 -16.004 -23.339  0.00  0.00    +0.145 C 
ATOM      3  C   UNL     1      32.787 -14.193 -24.173  0.00  0.00    +0.018 C 
ATOM      4  C   UNL     1      33.621 -14.132 -21.906  0.00  0.00    +0.018 C 
ATOM      5  C   UNL     1      33.419 -15.421 -24.372  0.00  0.00    +0.039 C 
ATOM      6  C   UNL     1      34.255 -15.359 -22.106  0.00  0.00    +0.039 C 
ENDROOT
BRANCH   1   9
ATOM      7  O   UNL     1      33.873 -10.791 -23.456  0.00  0.00    -0.252 OA
ATOM      8  N   UNL     1      31.796 -10.060 -22.657  0.00  0.00    -0.268 N 
ATOM      9  N   UNL     1      32.256 -12.322 -22.741  0.00  0.00    -0.268 N 
ATOM     10  C   UNL     1      32.761 -11.038 -23.001  0.00  0.00    +0.308 C 
ATOM     11  H   UNL     1      30.945 -10.405 -22.300  0.00  0.00    +0.156 HD
ATOM     12  H   UNL     1      31.344 -12.360 -22.374  0.00  0.00    +0.156 HD
BRANCH   8  14
ATOM     13 CL   UNL     1      32.193  -4.174 -23.029  0.00  0.00    -0.082 Cl
ATOM     14  C   UNL     1      31.889  -8.671 -22.756  0.00  0.00    +0.052 C 
ATOM     15  C   UNL     1      31.837  -6.659 -24.091  0.00  0.00    +0.083 C 
ATOM     16  C   UNL     1      31.744  -8.047 -23.994  0.00  0.00    +0.019 C 
ATOM     17  C   UNL     1      32.126  -7.907 -21.613  0.00  0.00    +0.016 C 
ATOM     18  C   UNL     1      32.074  -5.894 -22.949  0.00  0.00    +0.062 C 
ATOM     19  C   UNL     1      32.219  -6.519 -21.710  0.00  0.00    +0.013 C 
BRANCH  15  23
ATOM     20  F   UNL     1      32.827  -5.490 -25.928  0.00  0.00    -0.166 F 
ATOM     21  F   UNL     1      31.245  -6.898 -26.397  0.00  0.00    -0.166 F 
ATOM     22  F   UNL     1      30.766  -5.011 -25.429  0.00  0.00    -0.166 F 
ATOM     23  C   UNL     1      31.674  -6.028 -25.437  0.00  0.00    +0.419 C 
ENDBRANCH  15  23
ENDBRANCH   8  14
ENDBRANCH   1   9
BRANCH   2  24
ATOM     24  O   UNL     1      34.771 -17.200 -23.535  0.00  0.00    -0.453 OA
BRANCH  24  26
ATOM     25  N   UNL     1      35.548 -19.544 -20.192  0.00  0.00    -0.239 NA
ATOM     26  C   UNL     1      35.029 -17.980 -22.421  0.00  0.00    +0.149 C 
ATOM     27  C   UNL     1      34.007 -18.717 -21.862  0.00  0.00    +0.061 C 
ATOM     28  C   UNL     1      34.317 -19.483 -20.749  0.00  0.00    +0.137 C 
ATOM     29  C   UNL     1      36.304 -18.004 -21.895  0.00  0.00    +0.058 C 
ATOM     30  C   UNL     1      36.511 -18.801 -20.781  0.00  0.00    +0.102 C 
BRANCH  28  33
ATOM     31  O   UNL     1      32.113 -20.240 -20.496  0.00  0.00    -0.268 OA
ATOM     32  N   UNL     1      33.703 -21.118 -19.055  0.00  0.00    -0.298 N 
ATOM     33  C   UNL     1      33.293 -20.287 -20.104  0.00  0.00    +0.264 C 
ATOM     34  C   UNL     1      32.808 -21.992 -18.331  0.00  0.00    +0.111 C 
ATOM     35  H   UNL     1      34.653 -21.105 -18.795  0.00  0.00    +0.150 HD
ENDBRANCH  28  33
ENDBRANCH  24  26
ENDBRANCH   2  24
TORSDOF 6
ENDMDL
MODEL 7
REMARK VINA RESULT:     -12.9      8.323     13.424
REMARK  Name = 216239
REMARK  6 active torsions:
REMARK  status: ('A' for Active; 'I' for Inactive)
REMARK    1  A    between atoms: C_1  and  N_9
REMARK    2  A    between atoms: C_2  and  O_24
REMARK    3  A    between atoms: N_8  and  C_14
REMARK    4  A    between atoms: C_15  and  C_23
REMARK    5  A    between atoms: O_24  and  C_26
REMARK    6  A    between atoms: C_28  and  C_33
REMARK                            x       y       z     vdW  Elec       q    Type
REMARK                         _______ _______ _______ _____ _____    ______ ____
ROOT
ATOM      1  C   UNL     1      33.633 -13.455 -23.471  0.00  0.00    +0.052 C 
ATOM      2  C   UNL     1      33.795 -16.219 -23.391  0.00  0.00    +0.145 C 
ATOM      3  C   UNL     1      33.328 -14.185 -24.608  0.00  0.00    +0.018 C 
ATOM      4  C   UNL     1      34.018 -14.077 -22.295  0.00  0.00    +0.018 C 
ATOM      5  C   UNL     1      33.409 -15.577 -24.567  0.00  0.00    +0.039 C 
ATOM      6  C   UNL     1      34.100 -15.470 -22.255  0.00  0.00    +0.039 C 
ENDROOT
BRANCH   1   9
ATOM      7  O   UNL     1      31.514 -11.619 -22.443  0.00  0.00    -0.252 OA
ATOM      8  N   UNL     1      32.833  -9.863 -23.258  0.00  0.00    -0.268 N 
ATOM      9  N   UNL     1      33.550 -12.044 -23.513  0.00  0.00    -0.268 N 
ATOM     10  C   UNL     1      32.526 -11.223 -23.011  0.00  0.00    +0.308 C 
ATOM     11  H   UNL     1      33.682  -9.694 -23.727  0.00  0.00    +0.156 HD
ATOM     12  H   UNL     1      34.302 -11.579 -23.945  0.00  0.00    +0.156 HD
BRANCH   8  14
ATOM     13 CL   UNL     1      29.667  -5.060 -21.899  0.00  0.00    -0.082 Cl
ATOM     14  C   UNL     1      32.090  -8.728 -22.928  0.00  0.00    +0.052 C 
ATOM     15  C   UNL     1      31.611  -6.908 -21.414  0.00  0.00    +0.083 C 
ATOM     16  C   UNL     1      32.353  -8.042 -21.743  0.00  0.00    +0.019 C 
ATOM     17  C   UNL     1      31.084  -8.281 -23.785  0.00  0.00    +0.016 C 
ATOM     18  C   UNL     1      30.605  -6.460 -22.271  0.00  0.00    +0.062 C 
ATOM     19  C   UNL     1      30.342  -7.147 -23.456  0.00  0.00    +0.013 C 
BRANCH  15  23
ATOM     20  F   UNL     1      31.034  -6.459 -19.137  0.00  0.00    -0.166 F 
ATOM     21  F   UNL     1      33.147  -6.522 -19.622  0.00  0.00    -0.166 F 
ATOM     22  F   UNL     1      31.933  -4.842 -20.281  0.00  0.00    -0.166 F 
ATOM     23  C   UNL     1      31.926  -6.199 -20.136  0.00  0.00    +0.419 C 
ENDBRANCH  15  23
ENDBRANCH   8  14
ENDBRANCH   1   9
BRANCH   2  24
ATOM     24  O   UNL     1      33.876 -17.577 -23.353  0.00  0.00    -0.453 OA
BRANCH  24  26
ATOM     25  N   UNL     1      36.190 -19.290 -20.355  0.00  0.00    -0.239 NA
ATOM     26  C   UNL     1      34.646 -18.147 -22.353  0.00  0.00    +0.149 C 
ATOM     27  C   UNL     1      34.088 -19.108 -21.537  0.00  0.00    +0.061 C 
ATOM     28  C   UNL     1      34.901 -19.648 -20.554  0.00  0.00    +0.137 C 
ATOM     29  C   UNL     1      35.955 -17.742 -22.198  0.00  0.00    +0.058 C 
ATOM     30  C   UNL     1      36.684 -18.344 -21.184  0.00  0.00    +0.102 C 
BRANCH  28  33
ATOM     31  O   UNL     1      35.153 -21.486 -19.120  0.00  0.00    -0.268 OA
ATOM     32  N   UNL     1      33.006 -20.658 -19.408  0.00  0.00    -0.298 N 
ATOM     33  C   UNL     1      34.385 -20.666 -19.654  0.00  0.00    +0.264 C 
ATOM     34  C   UNL     1      32.348 -21.590 -18.521  0.00  0.00    +0.111 C 
ATOM     35  H   UNL     1      32.455 -19.982 -19.865  0.00  0.00    +0.150 HD
ENDBRANCH  28  33
ENDBRANCH  24  26
ENDBRANCH   2  24
TORSDOF 6
ENDMDL
MODEL 8
REMARK VINA RESULT:     -12.8      6.059     12.044
REMARK  Name = 216239
REMARK  6 active torsions:
REMARK  status: ('A' for Active; 'I' for Inactive)
REMARK    1  A    between atoms: C_1  and  N_9
REMARK    2  A    between atoms: C_2  and  O_24
REMARK    3  A    between atoms: N_8  and  C_14
REMARK    4  A    between atoms: C_15  and  C_23
REMARK    5  A    between atoms: O_24  and  C_26
REMARK    6  A    between atoms: C_28  and  C_33
REMARK                            x       y       z     vdW  Elec       q    Type
REMARK                         _______ _______ _______ _____ _____    ______ ____
ROOT
ATOM      1  C   UNL     1      35.001 -20.918 -18.990  0.00  0.00    +0.052 C 
ATOM      2  C   UNL     1      34.440 -22.696 -16.942  0.00  0.00    +0.145 C 
ATOM      3  C   UNL     1      35.943 -21.127 -17.998  0.00  0.00    +0.018 C 
ATOM      4  C   UNL     1      33.784 -21.579 -18.982  0.00  0.00    +0.018 C 
ATOM      5  C   UNL     1      35.660 -22.022 -16.966  0.00  0.00    +0.039 C 
ATOM      6  C   UNL     1      33.500 -22.474 -17.949  0.00  0.00    +0.039 C 
ENDROOT
BRANCH   1   9
ATOM      7  O   UNL     1      33.228 -18.956 -20.379  0.00  0.00    -0.252 OA
ATOM      8  N   UNL     1      35.101 -18.377 -21.660  0.00  0.00    -0.268 N 
ATOM      9  N   UNL     1      35.288 -20.010 -20.036  0.00  0.00    -0.268 N 
ATOM     10  C   UNL     1      34.413 -19.103 -20.657  0.00  0.00    +0.308 C 
ATOM     11  H   UNL     1      36.053 -18.602 -21.774  0.00  0.00    +0.156 HD
ATOM     12  H   UNL     1      36.213 -20.013 -20.370  0.00  0.00    +0.156 HD
BRANCH   8  14
ATOM     13 CL   UNL     1      33.024 -14.204 -25.295  0.00  0.00    -0.082 Cl
ATOM     14  C   UNL     1      34.610 -17.385 -22.510  0.00  0.00    +0.052 C 
ATOM     15  C   UNL     1      33.919 -15.101 -22.881  0.00  0.00    +0.083 C 
ATOM     16  C   UNL     1      34.408 -16.092 -22.031  0.00  0.00    +0.019 C 
ATOM     17  C   UNL     1      34.322 -17.689 -23.841  0.00  0.00    +0.016 C 
ATOM     18  C   UNL     1      33.630 -15.404 -24.212  0.00  0.00    +0.062 C 
ATOM     19  C   UNL     1      33.832 -16.698 -24.691  0.00  0.00    +0.013 C 
BRANCH  15  23
ATOM     20  F   UNL     1      34.247 -13.558 -21.083  0.00  0.00    -0.166 F 
ATOM     21  F   UNL     1      34.280 -12.746 -23.095  0.00  0.00    -0.166 F 
ATOM     22  F   UNL     1      32.399 -13.396 -22.218  0.00  0.00    -0.166 F 
ATOM     23  C   UNL     1      33.718 -13.726 -22.330  0.00  0.00    +0.419 C 
ENDBRANCH  15  23
ENDBRANCH   8  14
ENDBRANCH   1   9
BRANCH   2  24
ATOM     24  O   UNL     1      34.163 -23.568 -15.935  0.00  0.00    -0.453 OA
BRANCH  24  26
ATOM     25  N   UNL     1      36.980 -23.970 -12.905  0.00  0.00    -0.239 NA
ATOM     26  C   UNL     1      35.101 -23.703 -14.925  0.00  0.00    +0.149 C 
ATOM     27  C   UNL     1      36.082 -24.665 -15.040  0.00  0.00    +0.061 C 
ATOM     28  C   UNL     1      36.997 -24.758 -14.004  0.00  0.00    +0.137 C 
ATOM     29  C   UNL     1      35.034 -22.871 -13.827  0.00  0.00    +0.058 C 
ATOM     30  C   UNL     1      35.996 -23.046 -12.845  0.00  0.00    +0.102 C 
BRANCH  28  33
ATOM     31  O   UNL     1      37.802 -26.944 -14.274  0.00  0.00    -0.268 OA
ATOM     32  N   UNL     1      39.369 -25.285 -13.866  0.00  0.00    -0.298 N 
ATOM     33  C   UNL     1      38.061 -25.747 -14.053  0.00  0.00    +0.264 C 
ATOM     34  C   UNL     1      40.533 -26.141 -13.910  0.00  0.00    +0.111 C 
ATOM     35  H   UNL     1      39.504 -24.325 -13.695  0.00  0.00    +0.150 HD
ENDBRANCH  28  33
ENDBRANCH  24  26
ENDBRANCH   2  24
TORSDOF 6
ENDMDL
MODEL 9
REMARK VINA RESULT:     -12.7      6.591     11.103
REMARK  Name = 216239
REMARK  6 active torsions:
REMARK  status: ('A' for Active; 'I' for Inactive)
REMARK    1  A    between atoms: C_1  and  N_9
REMARK    2  A    between atoms: C_2  and  O_24
REMARK    3  A    between atoms: N_8  and  C_14
REMARK    4  A    between atoms: C_15  and  C_23
REMARK    5  A    between atoms: O_24  and  C_26
REMARK    6  A    between atoms: C_28  and  C_33
REMARK                            x       y       z     vdW  Elec       q    Type
REMARK                         _______ _______ _______ _____ _____    ______ ____
ROOT
ATOM      1  C   UNL     1      35.142 -20.759 -19.090  0.00  0.00    +0.052 C 
ATOM      2  C   UNL     1      34.629 -22.619 -17.103  0.00  0.00    +0.145 C 
ATOM      3  C   UNL     1      33.981 -21.510 -19.149  0.00  0.00    +0.018 C 
ATOM      4  C   UNL     1      36.053 -20.917 -18.059  0.00  0.00    +0.018 C 
ATOM      5  C   UNL     1      33.722 -22.447 -18.148  0.00  0.00    +0.039 C 
ATOM      6  C   UNL     1      35.795 -21.854 -17.058  0.00  0.00    +0.039 C 
ENDROOT
BRANCH   1   9
ATOM      7  O   UNL     1      33.296 -18.864 -20.477  0.00  0.00    -0.252 OA
ATOM      8  N   UNL     1      35.166 -18.147 -21.693  0.00  0.00    -0.268 N 
ATOM      9  N   UNL     1      35.403 -19.809 -20.105  0.00  0.00    -0.268 N 
ATOM     10  C   UNL     1      34.494 -18.937 -20.727  0.00  0.00    +0.308 C 
ATOM     11  H   UNL     1      36.132 -18.316 -21.787  0.00  0.00    +0.156 HD
ATOM     12  H   UNL     1      36.336 -19.752 -20.414  0.00  0.00    +0.156 HD
BRANCH   8  14
ATOM     13 CL   UNL     1      32.948 -14.006 -25.279  0.00  0.00    -0.082 Cl
ATOM     14  C   UNL     1      34.641 -17.163 -22.531  0.00  0.00    +0.052 C 
ATOM     15  C   UNL     1      33.875 -14.898 -22.876  0.00  0.00    +0.083 C 
ATOM     16  C   UNL     1      34.399 -15.882 -22.037  0.00  0.00    +0.019 C 
ATOM     17  C   UNL     1      34.360 -17.462 -23.865  0.00  0.00    +0.016 C 
ATOM     18  C   UNL     1      33.593 -15.196 -24.210  0.00  0.00    +0.062 C 
ATOM     19  C   UNL     1      33.837 -16.478 -24.704  0.00  0.00    +0.013 C 
BRANCH  15  23
ATOM     20  F   UNL     1      32.309 -13.224 -22.195  0.00  0.00    -0.166 F 
ATOM     21  F   UNL     1      34.151 -13.368 -21.059  0.00  0.00    -0.166 F 
ATOM     22  F   UNL     1      34.179 -12.548 -23.073  0.00  0.00    -0.166 F 
ATOM     23  C   UNL     1      33.632 -13.537 -22.309  0.00  0.00    +0.419 C 
ENDBRANCH  15  23
ENDBRANCH   8  14
ENDBRANCH   1   9
BRANCH   2  24
ATOM     24  O   UNL     1      34.378 -23.534 -16.127  0.00  0.00    -0.453 OA
BRANCH  24  26
ATOM     25  N   UNL     1      30.922 -23.055 -13.869  0.00  0.00    -0.239 NA
ATOM     26  C   UNL     1      33.226 -23.373 -15.376  0.00  0.00    +0.149 C 
ATOM     27  C   UNL     1      32.064 -22.974 -15.999  0.00  0.00    +0.061 C 
ATOM     28  C   UNL     1      30.939 -22.829 -15.203  0.00  0.00    +0.137 C 
ATOM     29  C   UNL     1      33.268 -23.618 -14.019  0.00  0.00    +0.058 C 
ATOM     30  C   UNL     1      32.090 -23.443 -13.311  0.00  0.00    +0.102 C 
BRANCH  28  33
ATOM     31  O   UNL     1      29.628 -22.001 -16.962  0.00  0.00    -0.268 OA
ATOM     32  N   UNL     1      28.536 -22.517 -14.982  0.00  0.00    -0.298 N 
ATOM     33  C   UNL     1      29.676 -22.412 -15.788  0.00  0.00    +0.264 C 
ATOM     34  C   UNL     1      27.207 -22.164 -15.428  0.00  0.00    +0.111 C 
ATOM     35  H   UNL     1      28.645 -22.850 -14.062  0.00  0.00    +0.150 HD
ENDBRANCH  28  33
ENDBRANCH  24  26
ENDBRANCH   2  24
TORSDOF 6
ENDMDL
