MODEL 1
REMARK VINA RESULT:     -12.4      0.000      0.000
REMARK  Name = 24878044
REMARK  6 active torsions:
REMARK  status: ('A' for Active; 'I' for Inactive)
REMARK    1  A    between atoms: N_2  and  C_6
REMARK    2  A    between atoms: C_3  and  C_18
REMARK    3  A    between atoms: C_7  and  S_12
REMARK    4  A    between atoms: S_12  and  N_15
REMARK    5  A    between atoms: C_18  and  S_19
REMARK    6  A    between atoms: S_19  and  C_31
REMARK                            x       y       z     vdW  Elec       q    Type
REMARK                         _______ _______ _______ _____ _____    ______ ____
ROOT
ATOM      1  O   UNL     1      36.599 -18.326 -20.109  0.00  0.00    -0.274 OA
ATOM      2  N   UNL     1      35.003 -19.882 -20.854  0.00  0.00    -0.283 N 
ATOM      3  C   UNL     1      35.906 -18.833 -20.987  0.00  0.00    +0.238 C 
ATOM      4  H   UNL     1      34.524 -20.150 -21.671  0.00  0.00    +0.155 HD
ENDROOT
BRANCH   2   6
ATOM      5 CL   UNL     1      32.054 -20.453 -20.343  0.00  0.00    -0.081 Cl
ATOM      6  C   UNL     1      34.696 -20.610 -19.680  0.00  0.00    +0.061 C 
ATOM      7  C   UNL     1      34.161 -22.049 -17.351  0.00  0.00    +0.123 C 
ATOM      8  C   UNL     1      33.381 -20.929 -19.345  0.00  0.00    +0.072 C 
ATOM      9  C   UNL     1      35.745 -21.011 -18.850  0.00  0.00    +0.017 C 
ATOM     10  C   UNL     1      33.113 -21.649 -18.180  0.00  0.00    +0.033 C 
ATOM     11  C   UNL     1      35.477 -21.731 -17.686  0.00  0.00    +0.021 C 
BRANCH   7  12
ATOM     12  S   UNL     1      33.826 -22.950 -15.893  0.00  0.00    +0.057 S 
ATOM     13  O   UNL     1      32.395 -22.890 -15.635  0.00  0.00    -0.153 OA
ATOM     14  O   UNL     1      34.492 -24.242 -15.984  0.00  0.00    -0.153 OA
BRANCH  12  15
ATOM     15  N   UNL     1      34.636 -21.997 -14.729  0.00  0.00    -0.203 NA
ATOM     16  H   UNL     1      34.622 -22.476 -13.828  0.00  0.00    +0.144 HD
ATOM     17  H   UNL     1      34.168 -21.095 -14.642  0.00  0.00    +0.144 HD
ENDBRANCH  12  15
ENDBRANCH   7  12
ENDBRANCH   2   6
BRANCH   3  18
ATOM     18  C   UNL     1      35.960 -18.308 -22.406  0.00  0.00    +0.152 C 
BRANCH  18  19
ATOM     19  S   UNL     1      34.314 -17.733 -22.878  0.00  0.00    -0.047 S 
BRANCH  19  31
ATOM     20  O   UNL     1      34.931 -15.858 -21.180  0.00  0.00    -0.262 OA
ATOM     21  N   UNL     1      33.629 -15.114 -22.990  0.00  0.00    -0.250 N 
ATOM     22  C   UNL     1      33.660 -13.868 -25.144  0.00  0.00    +0.027 C 
ATOM     23  C   UNL     1      32.581 -12.920 -24.667  0.00  0.00    +0.029 C 
ATOM     24  C   UNL     1      33.495 -15.213 -24.459  0.00  0.00    +0.099 C 
ATOM     25  C   UNL     1      32.497 -12.906 -23.163  0.00  0.00    -0.009 C 
ATOM     26  C   UNL     1      32.995 -13.965 -22.369  0.00  0.00    +0.051 C 
ATOM     27  C   UNL     1      31.858 -11.805 -22.562  0.00  0.00    -0.007 C 
ATOM     28  C   UNL     1      32.809 -13.876 -20.977  0.00  0.00    +0.014 C 
ATOM     29  C   UNL     1      31.711 -11.733 -21.182  0.00  0.00    -0.022 C 
ATOM     30  C   UNL     1      32.182 -12.771 -20.391  0.00  0.00    -0.003 C 
ATOM     31  C   UNL     1      34.335 -16.076 -22.230  0.00  0.00    +0.280 C 
ATOM     32  C   UNL     1      31.066 -10.544 -20.556  0.00  0.00    +0.031 C 
ENDBRANCH  19  31
ENDBRANCH  18  19
ENDBRANCH   3  18
TORSDOF 6
ENDMDL
MODEL 2
REMARK VINA RESULT:     -12.3      2.445      3.531
REMARK  Name = 24878044
REMARK  6 active torsions:
REMARK  status: ('A' for Active; 'I' for Inactive)
REMARK    1  A    between atoms: N_2  and  C_6
REMARK    2  A    between atoms: C_3  and  C_18
REMARK    3  A    between atoms: C_7  and  S_12
REMARK    4  A    between atoms: S_12  and  N_15
REMARK    5  A    between atoms: C_18  and  S_19
REMARK    6  A    between atoms: S_19  and  C_31
REMARK                            x       y       z     vdW  Elec       q    Type
REMARK                         _______ _______ _______ _____ _____    ______ ____
ROOT
ATOM      1  O   UNL     1      33.426 -18.777 -24.328  0.00  0.00    -0.274 OA
ATOM      2  N   UNL     1      34.211 -17.835 -22.323  0.00  0.00    -0.283 N 
ATOM      3  C   UNL     1      33.880 -17.842 -23.674  0.00  0.00    +0.238 C 
ATOM      4  H   UNL     1      34.577 -16.993 -21.969  0.00  0.00    +0.155 HD
ENDROOT
BRANCH   2   6
ATOM      5 CL   UNL     1      36.779 -18.818 -21.010  0.00  0.00    -0.081 Cl
ATOM      6  C   UNL     1      34.079 -18.899 -21.399  0.00  0.00    +0.061 C 
ATOM      7  C   UNL     1      33.750 -20.996 -19.588  0.00  0.00    +0.123 C 
ATOM      8  C   UNL     1      35.186 -19.430 -20.738  0.00  0.00    +0.072 C 
ATOM      9  C   UNL     1      32.807 -19.418 -21.155  0.00  0.00    +0.017 C 
ATOM     10  C   UNL     1      35.022 -20.478 -19.832  0.00  0.00    +0.033 C 
ATOM     11  C   UNL     1      32.642 -20.466 -20.250  0.00  0.00    +0.021 C 
BRANCH   7  12
ATOM     12  S   UNL     1      33.543 -22.308 -18.455  0.00  0.00    +0.057 S 
ATOM     13  O   UNL     1      33.501 -23.557 -19.202  0.00  0.00    -0.153 OA
ATOM     14  O   UNL     1      34.505 -22.142 -17.375  0.00  0.00    -0.153 OA
BRANCH  12  15
ATOM     15  N   UNL     1      31.979 -21.974 -17.853  0.00  0.00    -0.203 NA
ATOM     16  H   UNL     1      31.434 -21.495 -18.570  0.00  0.00    +0.144 HD
ATOM     17  H   UNL     1      32.052 -21.379 -17.027  0.00  0.00    +0.144 HD
ENDBRANCH  12  15
ENDBRANCH   7  12
ENDBRANCH   2   6
BRANCH   3  18
ATOM     18  C   UNL     1      34.164 -16.510 -24.334  0.00  0.00    +0.152 C 
BRANCH  18  19
ATOM     19  S   UNL     1      34.557 -15.297 -23.054  0.00  0.00    -0.047 S 
BRANCH  19  31
ATOM     20  O   UNL     1      32.856 -13.941 -24.486  0.00  0.00    -0.262 OA
ATOM     21  N   UNL     1      32.905 -13.318 -22.220  0.00  0.00    -0.250 N 
ATOM     22  C   UNL     1      31.713 -13.473 -20.040  0.00  0.00    +0.027 C 
ATOM     23  C   UNL     1      31.669 -11.966 -19.903  0.00  0.00    +0.029 C 
ATOM     24  C   UNL     1      32.933 -13.874 -20.850  0.00  0.00    +0.099 C 
ATOM     25  C   UNL     1      31.843 -11.293 -21.239  0.00  0.00    -0.009 C 
ATOM     26  C   UNL     1      32.443 -11.947 -22.340  0.00  0.00    +0.051 C 
ATOM     27  C   UNL     1      31.421  -9.955 -21.350  0.00  0.00    -0.007 C 
ATOM     28  C   UNL     1      32.611 -11.204 -23.524  0.00  0.00    +0.014 C 
ATOM     29  C   UNL     1      31.578  -9.254 -22.540  0.00  0.00    -0.022 C 
ATOM     30  C   UNL     1      32.177  -9.878 -23.624  0.00  0.00    -0.003 C 
ATOM     31  C   UNL     1      33.297 -14.074 -23.349  0.00  0.00    +0.280 C 
ATOM     32  C   UNL     1      31.092  -7.850 -22.654  0.00  0.00    +0.031 C 
ENDBRANCH  19  31
ENDBRANCH  18  19
ENDBRANCH   3  18
TORSDOF 6
ENDMDL
MODEL 3
REMARK VINA RESULT:     -12.3      2.057      2.480
REMARK  Name = 24878044
REMARK  6 active torsions:
REMARK  status: ('A' for Active; 'I' for Inactive)
REMARK    1  A    between atoms: N_2  and  C_6
REMARK    2  A    between atoms: C_3  and  C_18
REMARK    3  A    between atoms: C_7  and  S_12
REMARK    4  A    between atoms: S_12  and  N_15
REMARK    5  A    between atoms: C_18  and  S_19
REMARK    6  A    between atoms: S_19  and  C_31
REMARK                            x       y       z     vdW  Elec       q    Type
REMARK                         _______ _______ _______ _____ _____    ______ ____
ROOT
ATOM      1  O   UNL     1      36.071 -20.186 -20.075  0.00  0.00    -0.274 OA
ATOM      2  N   UNL     1      34.269 -20.941 -18.770  0.00  0.00    -0.283 N 
ATOM      3  C   UNL     1      34.870 -20.322 -19.860  0.00  0.00    +0.238 C 
ATOM      4  H   UNL     1      33.284 -20.943 -18.759  0.00  0.00    +0.155 HD
ENDROOT
BRANCH   2   6
ATOM      5 CL   UNL     1      32.535 -22.752 -17.038  0.00  0.00    -0.081 Cl
ATOM      6  C   UNL     1      34.909 -21.569 -17.675  0.00  0.00    +0.061 C 
ATOM      7  C   UNL     1      36.233 -22.775 -15.537  0.00  0.00    +0.123 C 
ATOM      8  C   UNL     1      34.215 -22.419 -16.815  0.00  0.00    +0.072 C 
ATOM      9  C   UNL     1      36.267 -21.321 -17.465  0.00  0.00    +0.017 C 
ATOM     10  C   UNL     1      34.877 -23.023 -15.747  0.00  0.00    +0.033 C 
ATOM     11  C   UNL     1      36.929 -21.925 -16.396  0.00  0.00    +0.021 C 
BRANCH   7  12
ATOM     12  S   UNL     1      37.063 -23.531 -14.198  0.00  0.00    +0.057 S 
ATOM     13  O   UNL     1      37.235 -22.539 -13.146  0.00  0.00    -0.153 OA
ATOM     14  O   UNL     1      36.405 -24.795 -13.901  0.00  0.00    -0.153 OA
BRANCH  12  15
ATOM     15  N   UNL     1      38.586 -23.857 -14.902  0.00  0.00    -0.203 NA
ATOM     16  H   UNL     1      39.306 -23.834 -14.179  0.00  0.00    +0.144 HD
ATOM     17  H   UNL     1      38.791 -23.153 -15.610  0.00  0.00    +0.144 HD
ENDBRANCH  12  15
ENDBRANCH   7  12
ENDBRANCH   2   6
BRANCH   3  18
ATOM     18  C   UNL     1      33.849 -19.764 -20.829  0.00  0.00    +0.152 C 
BRANCH  18  19
ATOM     19  S   UNL     1      34.718 -19.023 -22.229  0.00  0.00    -0.047 S 
BRANCH  19  31
ATOM     20  O   UNL     1      35.417 -17.072 -20.651  0.00  0.00    -0.262 OA
ATOM     21  N   UNL     1      34.199 -16.382 -22.539  0.00  0.00    -0.250 N 
ATOM     22  C   UNL     1      34.351 -15.296 -24.774  0.00  0.00    +0.027 C 
ATOM     23  C   UNL     1      33.323 -14.253 -24.390  0.00  0.00    +0.029 C 
ATOM     24  C   UNL     1      34.089 -16.577 -24.000  0.00  0.00    +0.099 C 
ATOM     25  C   UNL     1      33.211 -14.126 -22.894  0.00  0.00    -0.009 C 
ATOM     26  C   UNL     1      33.626 -15.155 -22.016  0.00  0.00    +0.051 C 
ATOM     27  C   UNL     1      32.630 -12.949 -22.386  0.00  0.00    -0.007 C 
ATOM     28  C   UNL     1      33.419 -14.956 -20.638  0.00  0.00    +0.014 C 
ATOM     29  C   UNL     1      32.460 -12.770 -21.018  0.00  0.00    -0.022 C 
ATOM     30  C   UNL     1      32.851 -13.776 -20.146  0.00  0.00    -0.003 C 
ATOM     31  C   UNL     1      34.830 -17.328 -21.698  0.00  0.00    +0.280 C 
ATOM     32  C   UNL     1      31.878 -11.503 -20.493  0.00  0.00    +0.031 C 
ENDBRANCH  19  31
ENDBRANCH  18  19
ENDBRANCH   3  18
TORSDOF 6
ENDMDL
MODEL 4
REMARK VINA RESULT:     -12.1      3.372      4.707
REMARK  Name = 24878044
REMARK  6 active torsions:
REMARK  status: ('A' for Active; 'I' for Inactive)
REMARK    1  A    between atoms: N_2  and  C_6
REMARK    2  A    between atoms: C_3  and  C_18
REMARK    3  A    between atoms: C_7  and  S_12
REMARK    4  A    between atoms: S_12  and  N_15
REMARK    5  A    between atoms: C_18  and  S_19
REMARK    6  A    between atoms: S_19  and  C_31
REMARK                            x       y       z     vdW  Elec       q    Type
REMARK                         _______ _______ _______ _____ _____    ______ ____
ROOT
ATOM      1  O   UNL     1      34.461 -22.270 -17.934  0.00  0.00    -0.274 OA
ATOM      2  N   UNL     1      36.408 -21.633 -16.783  0.00  0.00    -0.283 N 
ATOM      3  C   UNL     1      35.527 -21.664 -17.858  0.00  0.00    +0.238 C 
ATOM      4  H   UNL     1      37.227 -21.101 -16.907  0.00  0.00    +0.155 HD
ENDROOT
BRANCH   2   6
ATOM      5 CL   UNL     1      38.816 -23.207 -15.779  0.00  0.00    -0.081 Cl
ATOM      6  C   UNL     1      36.263 -22.277 -15.531  0.00  0.00    +0.061 C 
ATOM      7  C   UNL     1      35.911 -23.521 -13.059  0.00  0.00    +0.123 C 
ATOM      8  C   UNL     1      37.299 -23.025 -14.973  0.00  0.00    +0.072 C 
ATOM      9  C   UNL     1      35.050 -22.151 -14.853  0.00  0.00    +0.017 C 
ATOM     10  C   UNL     1      37.123 -23.646 -13.737  0.00  0.00    +0.033 C 
ATOM     11  C   UNL     1      34.874 -22.773 -13.617  0.00  0.00    +0.021 C 
BRANCH   7  12
ATOM     12  S   UNL     1      35.690 -24.299 -11.512  0.00  0.00    +0.057 S 
ATOM     13  O   UNL     1      36.533 -23.626 -10.534  0.00  0.00    -0.153 OA
ATOM     14  O   UNL     1      34.262 -24.437 -11.263  0.00  0.00    -0.153 OA
BRANCH  12  15
ATOM     15  N   UNL     1      36.342 -25.846 -11.830  0.00  0.00    -0.203 NA
ATOM     16  H   UNL     1      36.669 -25.885 -12.796  0.00  0.00    +0.144 HD
ATOM     17  H   UNL     1      35.624 -26.555 -11.684  0.00  0.00    +0.144 HD
ENDBRANCH  12  15
ENDBRANCH   7  12
ENDBRANCH   2   6
BRANCH   3  18
ATOM     18  C   UNL     1      36.031 -20.847 -19.028  0.00  0.00    +0.152 C 
BRANCH  18  19
ATOM     19  S   UNL     1      34.636 -20.452 -20.107  0.00  0.00    -0.047 S 
BRANCH  19  31
ATOM     20  O   UNL     1      36.024 -18.248 -20.172  0.00  0.00    -0.262 OA
ATOM     21  N   UNL     1      34.480 -18.455 -21.932  0.00  0.00    -0.250 N 
ATOM     22  C   UNL     1      34.213 -18.949 -24.357  0.00  0.00    +0.027 C 
ATOM     23  C   UNL     1      33.500 -17.635 -24.595  0.00  0.00    +0.029 C 
ATOM     24  C   UNL     1      33.963 -19.413 -22.932  0.00  0.00    +0.099 C 
ATOM     25  C   UNL     1      33.804 -16.646 -23.500  0.00  0.00    -0.009 C 
ATOM     26  C   UNL     1      34.266 -17.050 -22.226  0.00  0.00    +0.051 C 
ATOM     27  C   UNL     1      33.570 -15.285 -23.774  0.00  0.00    -0.007 C 
ATOM     28  C   UNL     1      34.459 -16.047 -21.258  0.00  0.00    +0.014 C 
ATOM     29  C   UNL     1      33.794 -14.314 -22.806  0.00  0.00    -0.022 C 
ATOM     30  C   UNL     1      34.234 -14.697 -21.546  0.00  0.00    -0.003 C 
ATOM     31  C   UNL     1      35.151 -18.878 -20.760  0.00  0.00    +0.280 C 
ATOM     32  C   UNL     1      33.578 -12.874 -23.122  0.00  0.00    +0.031 C 
ENDBRANCH  19  31
ENDBRANCH  18  19
ENDBRANCH   3  18
TORSDOF 6
ENDMDL
MODEL 5
REMARK VINA RESULT:     -12.0      4.743     11.175
REMARK  Name = 24878044
REMARK  6 active torsions:
REMARK  status: ('A' for Active; 'I' for Inactive)
REMARK    1  A    between atoms: N_2  and  C_6
REMARK    2  A    between atoms: C_3  and  C_18
REMARK    3  A    between atoms: C_7  and  S_12
REMARK    4  A    between atoms: S_12  and  N_15
REMARK    5  A    between atoms: C_18  and  S_19
REMARK    6  A    between atoms: S_19  and  C_31
REMARK                            x       y       z     vdW  Elec       q    Type
REMARK                         _______ _______ _______ _____ _____    ______ ____
ROOT
ATOM      1  O   UNL     1      31.304 -21.745 -17.463  0.00  0.00    -0.274 OA
ATOM      2  N   UNL     1      33.557 -22.277 -17.868  0.00  0.00    -0.283 N 
ATOM      3  C   UNL     1      32.306 -22.430 -17.279  0.00  0.00    +0.238 C 
ATOM      4  H   UNL     1      34.250 -22.917 -17.587  0.00  0.00    +0.155 HD
ENDROOT
BRANCH   2   6
ATOM      5 CL   UNL     1      36.519 -21.569 -17.955  0.00  0.00    -0.081 Cl
ATOM      6  C   UNL     1      33.946 -21.310 -18.825  0.00  0.00    +0.061 C 
ATOM      7  C   UNL     1      34.644 -19.399 -20.733  0.00  0.00    +0.123 C 
ATOM      8  C   UNL     1      35.274 -20.909 -18.955  0.00  0.00    +0.072 C 
ATOM      9  C   UNL     1      32.965 -20.755 -19.648  0.00  0.00    +0.017 C 
ATOM     10  C   UNL     1      35.624 -19.953 -19.909  0.00  0.00    +0.033 C 
ATOM     11  C   UNL     1      33.315 -19.800 -20.603  0.00  0.00    +0.021 C 
BRANCH   7  12
ATOM     12  S   UNL     1      35.081 -18.202 -21.927  0.00  0.00    +0.057 S 
ATOM     13  O   UNL     1      36.502 -18.337 -22.214  0.00  0.00    -0.153 OA
ATOM     14  O   UNL     1      34.115 -18.260 -23.015  0.00  0.00    -0.153 OA
BRANCH  12  15
ATOM     15  N   UNL     1      34.831 -16.759 -21.047  0.00  0.00    -0.203 NA
ATOM     16  H   UNL     1      34.308 -16.966 -20.196  0.00  0.00    +0.144 HD
ATOM     17  H   UNL     1      34.305 -16.099 -21.619  0.00  0.00    +0.144 HD
ENDBRANCH  12  15
ENDBRANCH   7  12
ENDBRANCH   2   6
BRANCH   3  18
ATOM     18  C   UNL     1      32.278 -23.584 -16.299  0.00  0.00    +0.152 C 
BRANCH  18  19
ATOM     19  S   UNL     1      32.441 -22.930 -14.623  0.00  0.00    -0.047 S 
BRANCH  19  31
ATOM     20  O   UNL     1      34.785 -22.009 -15.287  0.00  0.00    -0.262 OA
ATOM     21  N   UNL     1      34.829 -23.518 -13.486  0.00  0.00    -0.250 N 
ATOM     22  C   UNL     1      35.058 -23.733 -11.016  0.00  0.00    +0.027 C 
ATOM     23  C   UNL     1      36.216 -24.698 -11.160  0.00  0.00    +0.029 C 
ATOM     24  C   UNL     1      34.142 -23.856 -12.221  0.00  0.00    +0.099 C 
ATOM     25  C   UNL     1      36.862 -24.573 -12.515  0.00  0.00    -0.009 C 
ATOM     26  C   UNL     1      36.187 -24.013 -13.624  0.00  0.00    +0.051 C 
ATOM     27  C   UNL     1      38.168 -25.078 -12.658  0.00  0.00    -0.007 C 
ATOM     28  C   UNL     1      36.863 -24.002 -14.859  0.00  0.00    +0.014 C 
ATOM     29  C   UNL     1      38.820 -25.031 -13.884  0.00  0.00    -0.022 C 
ATOM     30  C   UNL     1      38.165 -24.497 -14.984  0.00  0.00    -0.003 C 
ATOM     31  C   UNL     1      34.208 -22.752 -14.500  0.00  0.00    +0.280 C 
ATOM     32  C   UNL     1      40.217 -25.535 -14.012  0.00  0.00    +0.031 C 
ENDBRANCH  19  31
ENDBRANCH  18  19
ENDBRANCH   3  18
TORSDOF 6
ENDMDL
MODEL 6
REMARK VINA RESULT:     -11.9      3.263     10.495
REMARK  Name = 24878044
REMARK  6 active torsions:
REMARK  status: ('A' for Active; 'I' for Inactive)
REMARK    1  A    between atoms: N_2  and  C_6
REMARK    2  A    between atoms: C_3  and  C_18
REMARK    3  A    between atoms: C_7  and  S_12
REMARK    4  A    between atoms: S_12  and  N_15
REMARK    5  A    between atoms: C_18  and  S_19
REMARK    6  A    between atoms: S_19  and  C_31
REMARK                            x       y       z     vdW  Elec       q    Type
REMARK                         _______ _______ _______ _____ _____    ______ ____
ROOT
ATOM      1  O   UNL     1      33.425 -19.448 -20.943  0.00  0.00    -0.274 OA
ATOM      2  N   UNL     1      35.221 -17.932 -20.951  0.00  0.00    -0.283 N 
ATOM      3  C   UNL     1      34.598 -19.155 -20.728  0.00  0.00    +0.238 C 
ATOM      4  H   UNL     1      36.173 -17.877 -20.704  0.00  0.00    +0.155 HD
ENDROOT
BRANCH   2   6
ATOM      5 CL   UNL     1      34.670 -17.953 -23.948  0.00  0.00    -0.081 Cl
ATOM      6  C   UNL     1      34.645 -16.759 -21.495  0.00  0.00    +0.061 C 
ATOM      7  C   UNL     1      33.509 -14.418 -22.500  0.00  0.00    +0.123 C 
ATOM      8  C   UNL     1      34.350 -16.656 -22.853  0.00  0.00    +0.072 C 
ATOM      9  C   UNL     1      34.373 -15.691 -20.638  0.00  0.00    +0.017 C 
ATOM     10  C   UNL     1      33.781 -15.485 -23.356  0.00  0.00    +0.033 C 
ATOM     11  C   UNL     1      33.805 -14.521 -21.141  0.00  0.00    +0.021 C 
BRANCH   7  12
ATOM     12  S   UNL     1      32.799 -12.953 -23.129  0.00  0.00    +0.057 S 
ATOM     13  O   UNL     1      31.563 -12.693 -22.404  0.00  0.00    -0.153 OA
ATOM     14  O   UNL     1      33.831 -11.927 -23.191  0.00  0.00    -0.153 OA
BRANCH  12  15
ATOM     15  N   UNL     1      32.411 -13.437 -24.722  0.00  0.00    -0.203 NA
ATOM     16  H   UNL     1      32.981 -14.243 -24.980  0.00  0.00    +0.144 HD
ATOM     17  H   UNL     1      32.596 -12.669 -25.366  0.00  0.00    +0.144 HD
ENDBRANCH  12  15
ENDBRANCH   7  12
ENDBRANCH   2   6
BRANCH   3  18
ATOM     18  C   UNL     1      35.546 -20.173 -20.131  0.00  0.00    +0.152 C 
BRANCH  18  19
ATOM     19  S   UNL     1      34.583 -21.420 -19.248  0.00  0.00    -0.047 S 
BRANCH  19  31
ATOM     20  O   UNL     1      36.324 -20.635 -17.477  0.00  0.00    -0.262 OA
ATOM     21  N   UNL     1      34.845 -22.285 -16.693  0.00  0.00    -0.250 N 
ATOM     22  C   UNL     1      32.848 -22.720 -15.272  0.00  0.00    +0.027 C 
ATOM     23  C   UNL     1      33.593 -23.758 -14.460  0.00  0.00    +0.029 C 
ATOM     24  C   UNL     1      33.418 -22.671 -16.680  0.00  0.00    +0.099 C 
ATOM     25  C   UNL     1      35.082 -23.574 -14.578  0.00  0.00    -0.009 C 
ATOM     26  C   UNL     1      35.673 -22.873 -15.656  0.00  0.00    +0.051 C 
ATOM     27  C   UNL     1      35.889 -24.167 -13.588  0.00  0.00    -0.007 C 
ATOM     28  C   UNL     1      37.079 -22.814 -15.700  0.00  0.00    +0.014 C 
ATOM     29  C   UNL     1      37.274 -24.070 -13.645  0.00  0.00    -0.022 C 
ATOM     30  C   UNL     1      37.868 -23.398 -14.703  0.00  0.00    -0.003 C 
ATOM     31  C   UNL     1      35.375 -21.393 -17.654  0.00  0.00    +0.280 C 
ATOM     32  C   UNL     1      38.113 -24.671 -12.569  0.00  0.00    +0.031 C 
ENDBRANCH  19  31
ENDBRANCH  18  19
ENDBRANCH   3  18
TORSDOF 6
ENDMDL
MODEL 7
REMARK VINA RESULT:     -11.7      2.304      3.351
REMARK  Name = 24878044
REMARK  6 active torsions:
REMARK  status: ('A' for Active; 'I' for Inactive)
REMARK    1  A    between atoms: N_2  and  C_6
REMARK    2  A    between atoms: C_3  and  C_18
REMARK    3  A    between atoms: C_7  and  S_12
REMARK    4  A    between atoms: S_12  and  N_15
REMARK    5  A    between atoms: C_18  and  S_19
REMARK    6  A    between atoms: S_19  and  C_31
REMARK                            x       y       z     vdW  Elec       q    Type
REMARK                         _______ _______ _______ _____ _____    ______ ____
ROOT
ATOM      1  O   UNL     1      36.366 -19.593 -19.462  0.00  0.00    -0.274 OA
ATOM      2  N   UNL     1      34.665 -21.142 -18.981  0.00  0.00    -0.283 N 
ATOM      3  C   UNL     1      35.317 -20.171 -19.733  0.00  0.00    +0.238 C 
ATOM      4  H   UNL     1      33.821 -21.486 -19.352  0.00  0.00    +0.155 HD
ENDROOT
BRANCH   2   6
ATOM      5 CL   UNL     1      32.547 -22.650 -17.393  0.00  0.00    -0.081 Cl
ATOM      6  C   UNL     1      35.077 -21.692 -17.743  0.00  0.00    +0.061 C 
ATOM      7  C   UNL     1      35.955 -22.752 -15.317  0.00  0.00    +0.123 C 
ATOM      8  C   UNL     1      34.193 -22.402 -16.933  0.00  0.00    +0.072 C 
ATOM      9  C   UNL     1      36.401 -21.511 -17.341  0.00  0.00    +0.017 C 
ATOM     10  C   UNL     1      34.632 -22.933 -15.720  0.00  0.00    +0.033 C 
ATOM     11  C   UNL     1      36.840 -22.041 -16.127  0.00  0.00    +0.021 C 
BRANCH   7  12
ATOM     12  S   UNL     1      36.505 -23.415 -13.798  0.00  0.00    +0.057 S 
ATOM     13  O   UNL     1      37.944 -23.616 -13.878  0.00  0.00    -0.153 OA
ATOM     14  O   UNL     1      35.944 -22.618 -12.715  0.00  0.00    -0.153 OA
BRANCH  12  15
ATOM     15  N   UNL     1      35.734 -24.940 -13.812  0.00  0.00    -0.203 NA
ATOM     16  H   UNL     1      35.173 -25.030 -14.659  0.00  0.00    +0.144 HD
ATOM     17  H   UNL     1      35.131 -25.025 -12.993  0.00  0.00    +0.144 HD
ENDBRANCH  12  15
ENDBRANCH   7  12
ENDBRANCH   2   6
BRANCH   3  18
ATOM     18  C   UNL     1      34.564 -19.839 -21.004  0.00  0.00    +0.152 C 
BRANCH  18  19
ATOM     19  S   UNL     1      35.559 -18.699 -21.991  0.00  0.00    -0.047 S 
BRANCH  19  31
ATOM     20  O   UNL     1      33.571 -18.291 -23.623  0.00  0.00    -0.262 OA
ATOM     21  N   UNL     1      34.209 -16.386 -22.403  0.00  0.00    -0.250 N 
ATOM     22  C   UNL     1      33.613 -14.891 -20.504  0.00  0.00    +0.027 C 
ATOM     23  C   UNL     1      33.631 -13.669 -21.399  0.00  0.00    +0.029 C 
ATOM     24  C   UNL     1      34.578 -15.932 -21.045  0.00  0.00    +0.099 C 
ATOM     25  C   UNL     1      33.469 -14.053 -22.845  0.00  0.00    -0.009 C 
ATOM     26  C   UNL     1      33.755 -15.355 -23.318  0.00  0.00    +0.051 C 
ATOM     27  C   UNL     1      33.055 -13.047 -23.739  0.00  0.00    -0.007 C 
ATOM     28  C   UNL     1      33.627 -15.587 -24.700  0.00  0.00    +0.014 C 
ATOM     29  C   UNL     1      32.913 -13.313 -25.096  0.00  0.00    -0.022 C 
ATOM     30  C   UNL     1      33.204 -14.582 -25.576  0.00  0.00    -0.003 C 
ATOM     31  C   UNL     1      34.287 -17.745 -22.790  0.00  0.00    +0.280 C 
ATOM     32  C   UNL     1      32.438 -12.248 -26.024  0.00  0.00    +0.031 C 
ENDBRANCH  19  31
ENDBRANCH  18  19
ENDBRANCH   3  18
TORSDOF 6
ENDMDL
MODEL 8
REMARK VINA RESULT:     -11.7      2.560      3.906
REMARK  Name = 24878044
REMARK  6 active torsions:
REMARK  status: ('A' for Active; 'I' for Inactive)
REMARK    1  A    between atoms: N_2  and  C_6
REMARK    2  A    between atoms: C_3  and  C_18
REMARK    3  A    between atoms: C_7  and  S_12
REMARK    4  A    between atoms: S_12  and  N_15
REMARK    5  A    between atoms: C_18  and  S_19
REMARK    6  A    between atoms: S_19  and  C_31
REMARK                            x       y       z     vdW  Elec       q    Type
REMARK                         _______ _______ _______ _____ _____    ______ ____
ROOT
ATOM      1  O   UNL     1      31.558 -20.375 -19.097  0.00  0.00    -0.274 OA
ATOM      2  N   UNL     1      33.461 -21.639 -18.545  0.00  0.00    -0.283 N 
ATOM      3  C   UNL     1      32.689 -20.792 -19.332  0.00  0.00    +0.238 C 
ATOM      4  H   UNL     1      34.346 -21.879 -18.903  0.00  0.00    +0.155 HD
ENDROOT
BRANCH   2   6
ATOM      5 CL   UNL     1      35.750 -22.040 -16.574  0.00  0.00    -0.081 Cl
ATOM      6  C   UNL     1      33.121 -22.195 -17.288  0.00  0.00    +0.061 C 
ATOM      7  C   UNL     1      32.382 -23.292 -14.833  0.00  0.00    +0.123 C 
ATOM      8  C   UNL     1      34.086 -22.422 -16.309  0.00  0.00    +0.072 C 
ATOM      9  C   UNL     1      31.785 -22.516 -17.041  0.00  0.00    +0.017 C 
ATOM     10  C   UNL     1      33.717 -22.971 -15.080  0.00  0.00    +0.033 C 
ATOM     11  C   UNL     1      31.416 -23.064 -15.813  0.00  0.00    +0.021 C 
BRANCH   7  12
ATOM     12  S   UNL     1      31.920 -23.978 -13.295  0.00  0.00    +0.057 S 
ATOM     13  O   UNL     1      31.275 -22.941 -12.504  0.00  0.00    -0.153 OA
ATOM     14  O   UNL     1      31.229 -25.237 -13.540  0.00  0.00    -0.153 OA
BRANCH  12  15
ATOM     15  N   UNL     1      33.451 -24.317 -12.616  0.00  0.00    -0.203 NA
ATOM     16  H   UNL     1      33.837 -25.156 -13.050  0.00  0.00    +0.144 HD
ATOM     17  H   UNL     1      33.353 -24.467 -11.613  0.00  0.00    +0.144 HD
ENDBRANCH  12  15
ENDBRANCH   7  12
ENDBRANCH   2   6
BRANCH   3  18
ATOM     18  C   UNL     1      33.397 -20.407 -20.614  0.00  0.00    +0.152 C 
BRANCH  18  19
ATOM     19  S   UNL     1      35.164 -20.242 -20.277  0.00  0.00    -0.047 S 
BRANCH  19  31
ATOM     20  O   UNL     1      36.362 -17.939 -20.490  0.00  0.00    -0.262 OA
ATOM     21  N   UNL     1      34.703 -18.304 -22.114  0.00  0.00    -0.250 N 
ATOM     22  C   UNL     1      34.281 -18.871 -24.501  0.00  0.00    +0.027 C 
ATOM     23  C   UNL     1      33.449 -17.622 -24.700  0.00  0.00    +0.029 C 
ATOM     24  C   UNL     1      34.184 -19.321 -23.054  0.00  0.00    +0.099 C 
ATOM     25  C   UNL     1      33.760 -16.589 -23.650  0.00  0.00    -0.009 C 
ATOM     26  C   UNL     1      34.354 -16.926 -22.412  0.00  0.00    +0.051 C 
ATOM     27  C   UNL     1      33.398 -15.256 -23.925  0.00  0.00    -0.007 C 
ATOM     28  C   UNL     1      34.545 -15.890 -21.478  0.00  0.00    +0.014 C 
ATOM     29  C   UNL     1      33.621 -14.250 -22.993  0.00  0.00    -0.022 C 
ATOM     30  C   UNL     1      34.191 -14.569 -21.769  0.00  0.00    -0.003 C 
ATOM     31  C   UNL     1      35.497 -18.647 -20.995  0.00  0.00    +0.280 C 
ATOM     32  C   UNL     1      33.267 -12.838 -23.313  0.00  0.00    +0.031 C 
ENDBRANCH  19  31
ENDBRANCH  18  19
ENDBRANCH   3  18
TORSDOF 6
ENDMDL
MODEL 9
REMARK VINA RESULT:     -11.6      3.103     10.119
REMARK  Name = 24878044
REMARK  6 active torsions:
REMARK  status: ('A' for Active; 'I' for Inactive)
REMARK    1  A    between atoms: N_2  and  C_6
REMARK    2  A    between atoms: C_3  and  C_18
REMARK    3  A    between atoms: C_7  and  S_12
REMARK    4  A    between atoms: S_12  and  N_15
REMARK    5  A    between atoms: C_18  and  S_19
REMARK    6  A    between atoms: S_19  and  C_31
REMARK                            x       y       z     vdW  Elec       q    Type
REMARK                         _______ _______ _______ _____ _____    ______ ____
ROOT
ATOM      1  O   UNL     1      33.300 -19.794 -20.301  0.00  0.00    -0.274 OA
ATOM      2  N   UNL     1      35.182 -18.869 -21.362  0.00  0.00    -0.283 N 
ATOM      3  C   UNL     1      34.480 -19.828 -20.640  0.00  0.00    +0.238 C 
ATOM      4  H   UNL     1      36.133 -19.062 -21.531  0.00  0.00    +0.155 HD
ENDROOT
BRANCH   2   6
ATOM      5 CL   UNL     1      34.142 -18.936 -24.225  0.00  0.00    -0.081 Cl
ATOM      6  C   UNL     1      34.687 -17.649 -21.882  0.00  0.00    +0.061 C 
ATOM      7  C   UNL     1      33.725 -15.214 -22.843  0.00  0.00    +0.123 C 
ATOM      8  C   UNL     1      34.186 -17.562 -23.180  0.00  0.00    +0.072 C 
ATOM      9  C   UNL     1      34.708 -16.519 -21.064  0.00  0.00    +0.017 C 
ATOM     10  C   UNL     1      33.704 -16.344 -23.660  0.00  0.00    +0.033 C 
ATOM     11  C   UNL     1      34.226 -15.301 -21.545  0.00  0.00    +0.021 C 
BRANCH   7  12
ATOM     12  S   UNL     1      33.123 -13.690 -23.445  0.00  0.00    +0.057 S 
ATOM     13  O   UNL     1      31.918 -13.346 -22.703  0.00  0.00    -0.153 OA
ATOM     14  O   UNL     1      34.230 -12.746 -23.505  0.00  0.00    -0.153 OA
BRANCH  12  15
ATOM     15  N   UNL     1      32.683 -14.120 -25.039  0.00  0.00    -0.203 NA
ATOM     16  H   UNL     1      32.720 -15.135 -25.140  0.00  0.00    +0.144 HD
ATOM     17  H   UNL     1      33.329 -13.689 -25.699  0.00  0.00    +0.144 HD
ENDBRANCH  12  15
ENDBRANCH   7  12
ENDBRANCH   2   6
BRANCH   3  18
ATOM     18  C   UNL     1      35.356 -21.002 -20.256  0.00  0.00    +0.152 C 
BRANCH  18  19
ATOM     19  S   UNL     1      35.678 -20.932 -18.479  0.00  0.00    -0.047 S 
BRANCH  19  31
ATOM     20  O   UNL     1      33.757 -22.680 -18.670  0.00  0.00    -0.262 OA
ATOM     21  N   UNL     1      34.634 -22.461 -16.501  0.00  0.00    -0.250 N 
ATOM     22  C   UNL     1      36.095 -23.510 -14.780  0.00  0.00    +0.027 C 
ATOM     23  C   UNL     1      34.980 -23.495 -13.756  0.00  0.00    +0.029 C 
ATOM     24  C   UNL     1      35.906 -22.359 -15.754  0.00  0.00    +0.099 C 
ATOM     25  C   UNL     1      33.633 -23.389 -14.421  0.00  0.00    -0.009 C 
ATOM     26  C   UNL     1      33.477 -22.885 -15.733  0.00  0.00    +0.051 C 
ATOM     27  C   UNL     1      32.508 -23.774 -13.668  0.00  0.00    -0.007 C 
ATOM     28  C   UNL     1      32.167 -22.772 -16.234  0.00  0.00    +0.014 C 
ATOM     29  C   UNL     1      31.227 -23.675 -14.198  0.00  0.00    -0.022 C 
ATOM     30  C   UNL     1      31.058 -23.169 -15.480  0.00  0.00    -0.003 C 
ATOM     31  C   UNL     1      34.545 -22.168 -17.882  0.00  0.00    +0.280 C 
ATOM     32  C   UNL     1      30.048 -24.121 -13.404  0.00  0.00    +0.031 C 
ENDBRANCH  19  31
ENDBRANCH  18  19
ENDBRANCH   3  18
TORSDOF 6
ENDMDL
