MODEL 1
REMARK VINA RESULT:     -14.0      0.000      0.000
REMARK  Name = 17748441
REMARK  5 active torsions:
REMARK  status: ('A' for Active; 'I' for Inactive)
REMARK    1  A    between atoms: C_2  and  N_10
REMARK    2  A    between atoms: C_3  and  O_24
REMARK    3  A    between atoms: C_12  and  C_16
REMARK    4  A    between atoms: C_16  and  C_18
REMARK    5  A    between atoms: O_24  and  C_27
REMARK                            x       y       z     vdW  Elec       q    Type
REMARK                         _______ _______ _______ _____ _____    ______ ____
ROOT
ATOM      1  F   UNL     1      30.599 -11.327 -20.629  0.00  0.00    -0.201 F 
ATOM      2  C   UNL     1      33.338 -13.412 -21.804  0.00  0.00    +0.054 C 
ATOM      3  C   UNL     1      32.052 -11.031 -22.481  0.00  0.00    +0.173 C 
ATOM      4  C   UNL     1      32.268 -12.954 -21.035  0.00  0.00    +0.047 C 
ATOM      5  C   UNL     1      33.763 -12.679 -22.912  0.00  0.00    +0.018 C 
ATOM      6  C   UNL     1      31.625 -11.763 -21.373  0.00  0.00    +0.176 C 
ATOM      7  C   UNL     1      33.120 -11.489 -23.251  0.00  0.00    +0.041 C 
ENDROOT
BRANCH   2  10
ATOM      8  O   UNL     1      35.057 -18.383 -23.191  0.00  0.00    -0.274 OA
ATOM      9  O   UNL     1      33.861 -15.872 -23.445  0.00  0.00    -0.252 OA
ATOM     10  N   UNL     1      33.990 -14.620 -21.462  0.00  0.00    -0.268 N 
ATOM     11  N   UNL     1      34.894 -16.733 -21.551  0.00  0.00    -0.239 N 
ATOM     12  C   UNL     1      35.272 -17.982 -22.051  0.00  0.00    +0.234 C 
ATOM     13  C   UNL     1      34.205 -15.738 -22.273  0.00  0.00    +0.310 C 
ATOM     14  H   UNL     1      34.333 -14.680 -20.540  0.00  0.00    +0.156 HD
ATOM     15  H   UNL     1      35.127 -16.532 -20.615  0.00  0.00    +0.159 HD
BRANCH  12  16
ATOM     16  C   UNL     1      35.995 -18.800 -20.997  0.00  0.00    +0.112 C 
BRANCH  16  18
ATOM     17  F   UNL     1      32.634 -22.421 -18.288  0.00  0.00    -0.204 F 
ATOM     18  C   UNL     1      35.097 -19.767 -20.273  0.00  0.00    -0.013 C 
ATOM     19  C   UNL     1      35.646 -20.724 -19.421  0.00  0.00    -0.001 C 
ATOM     20  C   UNL     1      33.715 -19.707 -20.454  0.00  0.00    -0.001 C 
ATOM     21  C   UNL     1      34.814 -21.621 -18.750  0.00  0.00    +0.029 C 
ATOM     22  C   UNL     1      32.883 -20.604 -19.785  0.00  0.00    +0.029 C 
ATOM     23  C   UNL     1      33.432 -21.560 -18.931  0.00  0.00    +0.140 C 
ENDBRANCH  16  18
ENDBRANCH  12  16
ENDBRANCH   2  10
BRANCH   3  24
ATOM     24  O   UNL     1      31.423  -9.870 -22.813  0.00  0.00    -0.451 OA
BRANCH  24  27
ATOM     25  N   UNL     1      33.120  -6.293 -21.473  0.00  0.00    -0.229 NA
ATOM     26  N   UNL     1      32.049  -6.592 -19.365  0.00  0.00    -0.343 N 
ATOM     27  C   UNL     1      31.984  -8.684 -22.368  0.00  0.00    +0.150 C 
ATOM     28  C   UNL     1      31.731  -8.231 -21.079  0.00  0.00    +0.071 C 
ATOM     29  C   UNL     1      32.805  -7.943 -23.210  0.00  0.00    +0.058 C 
ATOM     30  C   UNL     1      32.317  -7.040 -20.683  0.00  0.00    +0.128 C 
ATOM     31  C   UNL     1      33.344  -6.764 -22.719  0.00  0.00    +0.103 C 
ATOM     32  H   UNL     1      32.444  -5.751 -19.041  0.00  0.00    +0.144 HD
ATOM     33  H   UNL     1      31.466  -7.122 -18.774  0.00  0.00    +0.144 HD
ENDBRANCH  24  27
ENDBRANCH   3  24
TORSDOF 5
ENDMDL
MODEL 2
REMARK VINA RESULT:     -13.9      0.859      1.237
REMARK  Name = 17748441
REMARK  5 active torsions:
REMARK  status: ('A' for Active; 'I' for Inactive)
REMARK    1  A    between atoms: C_2  and  N_10
REMARK    2  A    between atoms: C_3  and  O_24
REMARK    3  A    between atoms: C_12  and  C_16
REMARK    4  A    between atoms: C_16  and  C_18
REMARK    5  A    between atoms: O_24  and  C_27
REMARK                            x       y       z     vdW  Elec       q    Type
REMARK                         _______ _______ _______ _____ _____    ______ ____
ROOT
ATOM      1  F   UNL     1      32.991 -11.110 -24.196  0.00  0.00    -0.201 F 
ATOM      2  C   UNL     1      33.206 -13.572 -21.527  0.00  0.00    +0.054 C 
ATOM      3  C   UNL     1      31.817 -11.232 -22.138  0.00  0.00    +0.173 C 
ATOM      4  C   UNL     1      33.449 -12.911 -22.731  0.00  0.00    +0.047 C 
ATOM      5  C   UNL     1      32.268 -13.063 -20.629  0.00  0.00    +0.018 C 
ATOM      6  C   UNL     1      32.754 -11.740 -23.036  0.00  0.00    +0.176 C 
ATOM      7  C   UNL     1      31.574 -11.892 -20.934  0.00  0.00    +0.041 C 
ENDROOT
BRANCH   2  10
ATOM      8  O   UNL     1      35.370 -18.306 -23.110  0.00  0.00    -0.274 OA
ATOM      9  O   UNL     1      34.028 -15.863 -23.287  0.00  0.00    -0.252 OA
ATOM     10  N   UNL     1      33.911 -14.759 -21.217  0.00  0.00    -0.268 N 
ATOM     11  N   UNL     1      34.962 -16.798 -21.378  0.00  0.00    -0.239 N 
ATOM     12  C   UNL     1      35.465 -17.980 -21.930  0.00  0.00    +0.234 C 
ATOM     13  C   UNL     1      34.267 -15.797 -22.084  0.00  0.00    +0.310 C 
ATOM     14  H   UNL     1      34.182 -14.867 -20.276  0.00  0.00    +0.156 HD
ATOM     15  H   UNL     1      35.105 -16.654 -20.414  0.00  0.00    +0.159 HD
BRANCH  12  16
ATOM     16  C   UNL     1      36.156 -18.828 -20.879  0.00  0.00    +0.112 C 
BRANCH  16  18
ATOM     17  F   UNL     1      32.685 -22.424 -18.277  0.00  0.00    -0.204 F 
ATOM     18  C   UNL     1      35.228 -19.788 -20.183  0.00  0.00    -0.013 C 
ATOM     19  C   UNL     1      35.739 -20.720 -19.280  0.00  0.00    -0.001 C 
ATOM     20  C   UNL     1      33.858 -19.747 -20.442  0.00  0.00    -0.001 C 
ATOM     21  C   UNL     1      34.880 -21.610 -18.636  0.00  0.00    +0.029 C 
ATOM     22  C   UNL     1      32.999 -20.638 -19.799  0.00  0.00    +0.029 C 
ATOM     23  C   UNL     1      33.509 -21.569 -18.895  0.00  0.00    +0.140 C 
ENDBRANCH  16  18
ENDBRANCH  12  16
ENDBRANCH   2  10
BRANCH   3  24
ATOM     24  O   UNL     1      31.140 -10.088 -22.434  0.00  0.00    -0.451 OA
BRANCH  24  27
ATOM     25  N   UNL     1      32.898  -6.455 -21.349  0.00  0.00    -0.229 NA
ATOM     26  N   UNL     1      31.985  -6.684 -19.160  0.00  0.00    -0.343 N 
ATOM     27  C   UNL     1      31.722  -8.884 -22.075  0.00  0.00    +0.150 C 
ATOM     28  C   UNL     1      31.558  -8.386 -20.787  0.00  0.00    +0.071 C 
ATOM     29  C   UNL     1      32.473  -8.169 -22.999  0.00  0.00    +0.058 C 
ATOM     30  C   UNL     1      32.161  -7.178 -20.477  0.00  0.00    +0.128 C 
ATOM     31  C   UNL     1      33.036  -6.970 -22.591  0.00  0.00    +0.103 C 
ATOM     32  H   UNL     1      32.395  -5.830 -18.896  0.00  0.00    +0.144 HD
ATOM     33  H   UNL     1      31.451  -7.196 -18.510  0.00  0.00    +0.144 HD
ENDBRANCH  24  27
ENDBRANCH   3  24
TORSDOF 5
ENDMDL
MODEL 3
REMARK VINA RESULT:     -13.7      0.415      1.502
REMARK  Name = 17748441
REMARK  5 active torsions:
REMARK  status: ('A' for Active; 'I' for Inactive)
REMARK    1  A    between atoms: C_2  and  N_10
REMARK    2  A    between atoms: C_3  and  O_24
REMARK    3  A    between atoms: C_12  and  C_16
REMARK    4  A    between atoms: C_16  and  C_18
REMARK    5  A    between atoms: O_24  and  C_27
REMARK                            x       y       z     vdW  Elec       q    Type
REMARK                         _______ _______ _______ _____ _____    ______ ____
ROOT
ATOM      1  F   UNL     1      30.556 -11.240 -20.645  0.00  0.00    -0.201 F 
ATOM      2  C   UNL     1      33.305 -13.308 -21.825  0.00  0.00    +0.054 C 
ATOM      3  C   UNL     1      32.009 -10.930 -22.495  0.00  0.00    +0.173 C 
ATOM      4  C   UNL     1      32.233 -12.857 -21.055  0.00  0.00    +0.047 C 
ATOM      5  C   UNL     1      33.729 -12.569 -22.930  0.00  0.00    +0.018 C 
ATOM      6  C   UNL     1      31.585 -11.668 -21.390  0.00  0.00    +0.176 C 
ATOM      7  C   UNL     1      33.080 -11.381 -23.265  0.00  0.00    +0.041 C 
ENDROOT
BRANCH   2  10
ATOM      8  O   UNL     1      35.040 -18.270 -23.224  0.00  0.00    -0.274 OA
ATOM      9  O   UNL     1      33.835 -15.763 -23.471  0.00  0.00    -0.252 OA
ATOM     10  N   UNL     1      33.963 -14.514 -21.486  0.00  0.00    -0.268 N 
ATOM     11  N   UNL     1      34.874 -16.623 -21.581  0.00  0.00    -0.239 N 
ATOM     12  C   UNL     1      35.257 -17.870 -22.083  0.00  0.00    +0.234 C 
ATOM     13  C   UNL     1      34.181 -15.629 -22.300  0.00  0.00    +0.310 C 
ATOM     14  H   UNL     1      34.308 -14.574 -20.565  0.00  0.00    +0.156 HD
ATOM     15  H   UNL     1      35.109 -16.423 -20.645  0.00  0.00    +0.159 HD
BRANCH  12  16
ATOM     16  C   UNL     1      35.985 -18.687 -21.033  0.00  0.00    +0.112 C 
BRANCH  16  18
ATOM     17  F   UNL     1      32.673 -22.420 -18.417  0.00  0.00    -0.204 F 
ATOM     18  C   UNL     1      35.100 -19.685 -20.334  0.00  0.00    -0.013 C 
ATOM     19  C   UNL     1      33.717 -19.630 -20.505  0.00  0.00    -0.001 C 
ATOM     20  C   UNL     1      35.663 -20.664 -19.515  0.00  0.00    -0.001 C 
ATOM     21  C   UNL     1      32.897 -20.554 -19.857  0.00  0.00    +0.029 C 
ATOM     22  C   UNL     1      34.843 -21.587 -18.867  0.00  0.00    +0.029 C 
ATOM     23  C   UNL     1      33.460 -21.533 -19.039  0.00  0.00    +0.140 C 
ENDBRANCH  16  18
ENDBRANCH  12  16
ENDBRANCH   2  10
BRANCH   3  24
ATOM     24  O   UNL     1      31.375  -9.771 -22.823  0.00  0.00    -0.451 OA
BRANCH  24  27
ATOM     25  N   UNL     1      32.834  -6.222 -21.165  0.00  0.00    -0.229 NA
ATOM     26  N   UNL     1      33.878  -5.699 -23.242  0.00  0.00    -0.343 N 
ATOM     27  C   UNL     1      31.859  -8.595 -22.274  0.00  0.00    +0.150 C 
ATOM     28  C   UNL     1      32.632  -7.732 -23.042  0.00  0.00    +0.071 C 
ATOM     29  C   UNL     1      31.573  -8.273 -20.952  0.00  0.00    +0.058 C 
ATOM     30  C   UNL     1      33.091  -6.568 -22.446  0.00  0.00    +0.128 C 
ATOM     31  C   UNL     1      32.079  -7.086 -20.449  0.00  0.00    +0.103 C 
ATOM     32  H   UNL     1      34.225  -4.861 -22.860  0.00  0.00    +0.144 HD
ATOM     33  H   UNL     1      34.077  -5.933 -24.178  0.00  0.00    +0.144 HD
ENDBRANCH  24  27
ENDBRANCH   3  24
TORSDOF 5
ENDMDL
MODEL 4
REMARK VINA RESULT:     -13.3      3.993     10.924
REMARK  Name = 17748441
REMARK  5 active torsions:
REMARK  status: ('A' for Active; 'I' for Inactive)
REMARK    1  A    between atoms: C_2  and  N_10
REMARK    2  A    between atoms: C_3  and  O_24
REMARK    3  A    between atoms: C_12  and  C_16
REMARK    4  A    between atoms: C_16  and  C_18
REMARK    5  A    between atoms: O_24  and  C_27
REMARK                            x       y       z     vdW  Elec       q    Type
REMARK                         _______ _______ _______ _____ _____    ______ ____
ROOT
ATOM      1  F   UNL     1      36.265 -21.850 -18.425  0.00  0.00    -0.201 F 
ATOM      2  C   UNL     1      34.164 -19.556 -20.310  0.00  0.00    +0.054 C 
ATOM      3  C   UNL     1      33.927 -21.906 -18.825  0.00  0.00    +0.173 C 
ATOM      4  C   UNL     1      35.294 -20.130 -19.727  0.00  0.00    +0.047 C 
ATOM      5  C   UNL     1      32.916 -20.158 -20.150  0.00  0.00    +0.018 C 
ATOM      6  C   UNL     1      35.175 -21.305 -18.984  0.00  0.00    +0.176 C 
ATOM      7  C   UNL     1      32.798 -21.333 -19.408  0.00  0.00    +0.041 C 
ENDROOT
BRANCH   2  10
ATOM      8  O   UNL     1      33.836 -16.957 -25.077  0.00  0.00    -0.274 OA
ATOM      9  O   UNL     1      33.719 -19.055 -23.237  0.00  0.00    -0.252 OA
ATOM     10  N   UNL     1      34.284 -18.365 -21.064  0.00  0.00    -0.268 N 
ATOM     11  N   UNL     1      34.291 -16.848 -22.792  0.00  0.00    -0.239 N 
ATOM     12  C   UNL     1      34.164 -16.320 -24.080  0.00  0.00    +0.234 C 
ATOM     13  C   UNL     1      34.062 -18.192 -22.433  0.00  0.00    +0.310 C 
ATOM     14  H   UNL     1      34.557 -17.562 -20.562  0.00  0.00    +0.156 HD
ATOM     15  H   UNL     1      34.563 -16.230 -22.076  0.00  0.00    +0.159 HD
BRANCH  12  16
ATOM     16  C   UNL     1      34.488 -14.838 -24.101  0.00  0.00    +0.112 C 
BRANCH  16  18
ATOM     17  F   UNL     1      31.546 -11.856 -20.334  0.00  0.00    -0.204 F 
ATOM     18  C   UNL     1      33.702 -14.042 -23.094  0.00  0.00    -0.013 C 
ATOM     19  C   UNL     1      32.777 -13.092 -23.526  0.00  0.00    -0.001 C 
ATOM     20  C   UNL     1      33.898 -14.253 -21.729  0.00  0.00    -0.001 C 
ATOM     21  C   UNL     1      32.048 -12.353 -22.594  0.00  0.00    +0.029 C 
ATOM     22  C   UNL     1      33.171 -13.514 -20.797  0.00  0.00    +0.029 C 
ATOM     23  C   UNL     1      32.245 -12.564 -21.229  0.00  0.00    +0.140 C 
ENDBRANCH  16  18
ENDBRANCH  12  16
ENDBRANCH   2  10
BRANCH   3  24
ATOM     24  O   UNL     1      33.812 -23.054 -18.102  0.00  0.00    -0.451 OA
BRANCH  24  27
ATOM     25  N   UNL     1      32.426 -22.739 -14.171  0.00  0.00    -0.229 NA
ATOM     26  N   UNL     1      34.675 -22.831 -13.387  0.00  0.00    -0.343 N 
ATOM     27  C   UNL     1      33.353 -22.950 -16.799  0.00  0.00    +0.150 C 
ATOM     28  C   UNL     1      34.254 -22.943 -15.740  0.00  0.00    +0.071 C 
ATOM     29  C   UNL     1      31.990 -22.851 -16.545  0.00  0.00    +0.058 C 
ATOM     30  C   UNL     1      33.744 -22.837 -14.456  0.00  0.00    +0.128 C 
ATOM     31  C   UNL     1      31.581 -22.749 -15.225  0.00  0.00    +0.103 C 
ATOM     32  H   UNL     1      34.357 -22.757 -12.458  0.00  0.00    +0.144 HD
ATOM     33  H   UNL     1      35.639 -22.901 -13.574  0.00  0.00    +0.144 HD
ENDBRANCH  24  27
ENDBRANCH   3  24
TORSDOF 5
ENDMDL
MODEL 5
REMARK VINA RESULT:     -13.3      5.305     12.745
REMARK  Name = 17748441
REMARK  5 active torsions:
REMARK  status: ('A' for Active; 'I' for Inactive)
REMARK    1  A    between atoms: C_2  and  N_10
REMARK    2  A    between atoms: C_3  and  O_24
REMARK    3  A    between atoms: C_12  and  C_16
REMARK    4  A    between atoms: C_16  and  C_18
REMARK    5  A    between atoms: O_24  and  C_27
REMARK                            x       y       z     vdW  Elec       q    Type
REMARK                         _______ _______ _______ _____ _____    ______ ____
ROOT
ATOM      1  F   UNL     1      33.735 -23.470 -16.057  0.00  0.00    -0.201 F 
ATOM      2  C   UNL     1      35.747 -21.111 -17.959  0.00  0.00    +0.054 C 
ATOM      3  C   UNL     1      35.843 -22.508 -15.547  0.00  0.00    +0.173 C 
ATOM      4  C   UNL     1      34.698 -21.957 -17.600  0.00  0.00    +0.047 C 
ATOM      5  C   UNL     1      36.844 -20.963 -17.110  0.00  0.00    +0.018 C 
ATOM      6  C   UNL     1      34.746 -22.656 -16.395  0.00  0.00    +0.176 C 
ATOM      7  C   UNL     1      36.892 -21.662 -15.904  0.00  0.00    +0.041 C 
ENDROOT
BRANCH   2  10
ATOM      8  O   UNL     1      32.899 -19.242 -22.200  0.00  0.00    -0.274 OA
ATOM      9  O   UNL     1      33.433 -20.543 -19.787  0.00  0.00    -0.252 OA
ATOM     10  N   UNL     1      35.698 -20.401 -19.181  0.00  0.00    -0.268 N 
ATOM     11  N   UNL     1      34.962 -19.418 -21.126  0.00  0.00    -0.239 N 
ATOM     12  C   UNL     1      34.103 -19.007 -22.149  0.00  0.00    +0.234 C 
ATOM     13  C   UNL     1      34.585 -20.168 -19.994  0.00  0.00    +0.310 C 
ATOM     14  H   UNL     1      36.553 -20.027 -19.498  0.00  0.00    +0.156 HD
ATOM     15  H   UNL     1      35.910 -19.164 -21.203  0.00  0.00    +0.159 HD
BRANCH  12  16
ATOM     16  C   UNL     1      34.849 -18.219 -23.210  0.00  0.00    +0.112 C 
BRANCH  16  18
ATOM     17  F   UNL     1      33.122 -12.873 -23.642  0.00  0.00    -0.204 F 
ATOM     18  C   UNL     1      34.388 -16.790 -23.326  0.00  0.00    -0.013 C 
ATOM     19  C   UNL     1      34.507 -15.929 -22.236  0.00  0.00    -0.001 C 
ATOM     20  C   UNL     1      33.841 -16.328 -24.523  0.00  0.00    -0.001 C 
ATOM     21  C   UNL     1      34.080 -14.605 -22.342  0.00  0.00    +0.029 C 
ATOM     22  C   UNL     1      33.413 -15.005 -24.629  0.00  0.00    +0.029 C 
ATOM     23  C   UNL     1      33.533 -14.143 -23.540  0.00  0.00    +0.140 C 
ENDBRANCH  16  18
ENDBRANCH  12  16
ENDBRANCH   2  10
BRANCH   3  24
ATOM     24  O   UNL     1      35.889 -23.189 -14.368  0.00  0.00    -0.451 OA
BRANCH  24  27
ATOM     25  N   UNL     1      37.958 -26.820 -14.302  0.00  0.00    -0.229 NA
ATOM     26  N   UNL     1      39.943 -25.661 -13.674  0.00  0.00    -0.343 N 
ATOM     27  C   UNL     1      36.575 -24.392 -14.347  0.00  0.00    +0.150 C 
ATOM     28  C   UNL     1      37.926 -24.420 -14.019  0.00  0.00    +0.071 C 
ATOM     29  C   UNL     1      35.916 -25.577 -14.652  0.00  0.00    +0.058 C 
ATOM     30  C   UNL     1      38.566 -25.649 -14.011  0.00  0.00    +0.128 C 
ATOM     31  C   UNL     1      36.645 -26.754 -14.616  0.00  0.00    +0.103 C 
ATOM     32  H   UNL     1      40.438 -26.511 -13.656  0.00  0.00    +0.144 HD
ATOM     33  H   UNL     1      40.404 -24.818 -13.459  0.00  0.00    +0.144 HD
ENDBRANCH  24  27
ENDBRANCH   3  24
TORSDOF 5
ENDMDL
MODEL 6
REMARK VINA RESULT:     -13.0      4.966      8.087
REMARK  Name = 17748441
REMARK  5 active torsions:
REMARK  status: ('A' for Active; 'I' for Inactive)
REMARK    1  A    between atoms: C_2  and  N_10
REMARK    2  A    between atoms: C_3  and  O_24
REMARK    3  A    between atoms: C_12  and  C_16
REMARK    4  A    between atoms: C_16  and  C_18
REMARK    5  A    between atoms: O_24  and  C_27
REMARK                            x       y       z     vdW  Elec       q    Type
REMARK                         _______ _______ _______ _____ _____    ______ ____
ROOT
ATOM      1  F   UNL     1      37.363 -17.881 -21.787  0.00  0.00    -0.201 F 
ATOM      2  C   UNL     1      35.258 -20.190 -19.926  0.00  0.00    +0.054 C 
ATOM      3  C   UNL     1      35.054 -18.371 -22.030  0.00  0.00    +0.173 C 
ATOM      4  C   UNL     1      36.381 -19.474 -20.340  0.00  0.00    +0.047 C 
ATOM      5  C   UNL     1      34.033 -19.996 -20.564  0.00  0.00    +0.018 C 
ATOM      6  C   UNL     1      36.279 -18.565 -21.393  0.00  0.00    +0.176 C 
ATOM      7  C   UNL     1      33.931 -19.085 -21.616  0.00  0.00    +0.041 C 
ENDROOT
BRANCH   2  10
ATOM      8  O   UNL     1      37.349 -21.584 -15.101  0.00  0.00    -0.274 OA
ATOM      9  O   UNL     1      36.861 -20.059 -17.390  0.00  0.00    -0.252 OA
ATOM     10  N   UNL     1      35.361 -21.113 -18.858  0.00  0.00    -0.268 N 
ATOM     11  N   UNL     1      35.951 -22.135 -16.884  0.00  0.00    -0.239 N 
ATOM     12  C   UNL     1      36.567 -22.355 -15.649  0.00  0.00    +0.234 C 
ATOM     13  C   UNL     1      36.128 -20.997 -17.695  0.00  0.00    +0.310 C 
ATOM     14  H   UNL     1      34.827 -21.937 -18.946  0.00  0.00    +0.156 HD
ATOM     15  H   UNL     1      35.342 -22.835 -17.216  0.00  0.00    +0.159 HD
BRANCH  12  16
ATOM     16  C   UNL     1      36.147 -23.687 -15.055  0.00  0.00    +0.112 C 
BRANCH  16  18
ATOM     17  F   UNL     1      35.898 -23.639  -9.426  0.00  0.00    -0.204 F 
ATOM     18  C   UNL     1      36.081 -23.673 -13.550  0.00  0.00    -0.013 C 
ATOM     19  C   UNL     1      37.233 -23.901 -12.800  0.00  0.00    -0.001 C 
ATOM     20  C   UNL     1      34.866 -23.434 -12.907  0.00  0.00    -0.001 C 
ATOM     21  C   UNL     1      37.172 -23.889 -11.406  0.00  0.00    +0.029 C 
ATOM     22  C   UNL     1      34.804 -23.424 -11.514  0.00  0.00    +0.029 C 
ATOM     23  C   UNL     1      35.957 -23.650 -10.763  0.00  0.00    +0.140 C 
ENDBRANCH  16  18
ENDBRANCH  12  16
ENDBRANCH   2  10
BRANCH   3  24
ATOM     24  O   UNL     1      34.954 -17.481 -23.056  0.00  0.00    -0.451 OA
BRANCH  24  27
ATOM     25  N   UNL     1      33.267 -13.747 -22.229  0.00  0.00    -0.229 NA
ATOM     26  N   UNL     1      32.658 -13.532 -24.523  0.00  0.00    -0.343 N 
ATOM     27  C   UNL     1      34.396 -16.244 -22.783  0.00  0.00    +0.150 C 
ATOM     28  C   UNL     1      33.803 -15.504 -23.800  0.00  0.00    +0.071 C 
ATOM     29  C   UNL     1      34.424 -15.736 -21.489  0.00  0.00    +0.058 C 
ATOM     30  C   UNL     1      33.258 -14.273 -23.475  0.00  0.00    +0.128 C 
ATOM     31  C   UNL     1      33.851 -14.494 -21.266  0.00  0.00    +0.103 C 
ATOM     32  H   UNL     1      32.258 -12.652 -24.337  0.00  0.00    +0.144 HD
ATOM     33  H   UNL     1      32.641 -13.897 -25.437  0.00  0.00    +0.144 HD
ENDBRANCH  24  27
ENDBRANCH   3  24
TORSDOF 5
ENDMDL
MODEL 7
REMARK VINA RESULT:     -13.0      4.979      8.137
REMARK  Name = 17748441
REMARK  5 active torsions:
REMARK  status: ('A' for Active; 'I' for Inactive)
REMARK    1  A    between atoms: C_2  and  N_10
REMARK    2  A    between atoms: C_3  and  O_24
REMARK    3  A    between atoms: C_12  and  C_16
REMARK    4  A    between atoms: C_16  and  C_18
REMARK    5  A    between atoms: O_24  and  C_27
REMARK                            x       y       z     vdW  Elec       q    Type
REMARK                         _______ _______ _______ _____ _____    ______ ____
ROOT
ATOM      1  F   UNL     1      37.261 -17.856 -21.963  0.00  0.00    -0.201 F 
ATOM      2  C   UNL     1      35.272 -20.166 -19.980  0.00  0.00    +0.054 C 
ATOM      3  C   UNL     1      34.961 -18.415 -22.128  0.00  0.00    +0.173 C 
ATOM      4  C   UNL     1      36.363 -19.432 -20.445  0.00  0.00    +0.047 C 
ATOM      5  C   UNL     1      34.025 -20.023 -20.589  0.00  0.00    +0.018 C 
ATOM      6  C   UNL     1      36.208 -18.557 -21.520  0.00  0.00    +0.176 C 
ATOM      7  C   UNL     1      33.870 -19.147 -21.663  0.00  0.00    +0.041 C 
ENDROOT
BRANCH   2  10
ATOM      8  O   UNL     1      37.377 -21.281 -15.089  0.00  0.00    -0.274 OA
ATOM      9  O   UNL     1      36.810 -19.850 -17.420  0.00  0.00    -0.252 OA
ATOM     10  N   UNL     1      35.429 -21.054 -18.890  0.00  0.00    -0.268 N 
ATOM     11  N   UNL     1      36.062 -21.983 -16.883  0.00  0.00    -0.239 N 
ATOM     12  C   UNL     1      36.670 -22.125 -15.633  0.00  0.00    +0.234 C 
ATOM     13  C   UNL     1      36.162 -20.851 -17.717  0.00  0.00    +0.310 C 
ATOM     14  H   UNL     1      34.966 -21.921 -18.968  0.00  0.00    +0.156 HD
ATOM     15  H   UNL     1      35.518 -22.737 -17.209  0.00  0.00    +0.159 HD
BRANCH  12  16
ATOM     16  C   UNL     1      36.349 -23.473 -15.015  0.00  0.00    +0.112 C 
BRANCH  16  18
ATOM     17  F   UNL     1      40.922 -26.296 -13.320  0.00  0.00    -0.204 F 
ATOM     18  C   UNL     1      37.571 -24.228 -14.562  0.00  0.00    -0.013 C 
ATOM     19  C   UNL     1      37.547 -24.938 -13.363  0.00  0.00    -0.001 C 
ATOM     20  C   UNL     1      38.728 -24.217 -15.343  0.00  0.00    -0.001 C 
ATOM     21  C   UNL     1      38.679 -25.637 -12.943  0.00  0.00    +0.029 C 
ATOM     22  C   UNL     1      39.860 -24.914 -14.923  0.00  0.00    +0.029 C 
ATOM     23  C   UNL     1      39.836 -25.625 -13.723  0.00  0.00    +0.140 C 
ENDBRANCH  16  18
ENDBRANCH  12  16
ENDBRANCH   2  10
BRANCH   3  24
ATOM     24  O   UNL     1      34.809 -17.558 -23.176  0.00  0.00    -0.451 OA
BRANCH  24  27
ATOM     25  N   UNL     1      33.362 -13.724 -22.353  0.00  0.00    -0.229 NA
ATOM     26  N   UNL     1      32.713 -13.496 -24.635  0.00  0.00    -0.343 N 
ATOM     27  C   UNL     1      34.330 -16.288 -22.904  0.00  0.00    +0.150 C 
ATOM     28  C   UNL     1      33.758 -15.525 -23.916  0.00  0.00    +0.071 C 
ATOM     29  C   UNL     1      34.418 -15.770 -21.617  0.00  0.00    +0.058 C 
ATOM     30  C   UNL     1      33.294 -14.261 -23.592  0.00  0.00    +0.128 C 
ATOM     31  C   UNL     1      33.924 -14.494 -21.395  0.00  0.00    +0.103 C 
ATOM     32  H   UNL     1      32.370 -12.592 -24.450  0.00  0.00    +0.144 HD
ATOM     33  H   UNL     1      32.654 -13.869 -25.544  0.00  0.00    +0.144 HD
ENDBRANCH  24  27
ENDBRANCH   3  24
TORSDOF 5
ENDMDL
MODEL 8
REMARK VINA RESULT:     -12.9      5.245     12.613
REMARK  Name = 17748441
REMARK  5 active torsions:
REMARK  status: ('A' for Active; 'I' for Inactive)
REMARK    1  A    between atoms: C_2  and  N_10
REMARK    2  A    between atoms: C_3  and  O_24
REMARK    3  A    between atoms: C_12  and  C_16
REMARK    4  A    between atoms: C_16  and  C_18
REMARK    5  A    between atoms: O_24  and  C_27
REMARK                            x       y       z     vdW  Elec       q    Type
REMARK                         _______ _______ _______ _____ _____    ______ ____
ROOT
ATOM      1  F   UNL     1      32.784 -23.473 -15.954  0.00  0.00    -0.201 F 
ATOM      2  C   UNL     1      34.710 -21.379 -18.220  0.00  0.00    +0.054 C 
ATOM      3  C   UNL     1      35.034 -22.734 -15.804  0.00  0.00    +0.173 C 
ATOM      4  C   UNL     1      33.647 -22.101 -17.677  0.00  0.00    +0.047 C 
ATOM      5  C   UNL     1      35.935 -21.335 -17.553  0.00  0.00    +0.018 C 
ATOM      6  C   UNL     1      33.809 -22.779 -16.469  0.00  0.00    +0.176 C 
ATOM      7  C   UNL     1      36.096 -22.012 -16.345  0.00  0.00    +0.041 C 
ENDROOT
BRANCH   2  10
ATOM      8  O   UNL     1      36.616 -17.915 -21.957  0.00  0.00    -0.274 OA
ATOM      9  O   UNL     1      36.534 -19.452 -19.625  0.00  0.00    -0.252 OA
ATOM     10  N   UNL     1      34.547 -20.690 -19.445  0.00  0.00    -0.268 N 
ATOM     11  N   UNL     1      34.895 -19.331 -21.267  0.00  0.00    -0.239 N 
ATOM     12  C   UNL     1      35.514 -18.426 -22.134  0.00  0.00    +0.234 C 
ATOM     13  C   UNL     1      35.437 -19.799 -20.053  0.00  0.00    +0.310 C 
ATOM     14  H   UNL     1      33.704 -20.858 -19.926  0.00  0.00    +0.156 HD
ATOM     15  H   UNL     1      34.007 -19.668 -21.525  0.00  0.00    +0.159 HD
BRANCH  12  16
ATOM     16  C   UNL     1      34.644 -18.143 -23.345  0.00  0.00    +0.112 C 
BRANCH  16  18
ATOM     17  F   UNL     1      33.059 -12.751 -23.744  0.00  0.00    -0.204 F 
ATOM     18  C   UNL     1      34.220 -16.702 -23.451  0.00  0.00    -0.013 C 
ATOM     19  C   UNL     1      33.651 -16.229 -24.633  0.00  0.00    -0.001 C 
ATOM     20  C   UNL     1      34.397 -15.841 -22.368  0.00  0.00    -0.001 C 
ATOM     21  C   UNL     1      33.258 -14.894 -24.732  0.00  0.00    +0.029 C 
ATOM     22  C   UNL     1      34.005 -14.506 -22.468  0.00  0.00    +0.029 C 
ATOM     23  C   UNL     1      33.435 -14.032 -23.649  0.00  0.00    +0.140 C 
ENDBRANCH  16  18
ENDBRANCH  12  16
ENDBRANCH   2  10
BRANCH   3  24
ATOM     24  O   UNL     1      35.191 -23.395 -14.623  0.00  0.00    -0.451 OA
BRANCH  24  27
ATOM     25  N   UNL     1      37.952 -26.530 -14.504  0.00  0.00    -0.229 NA
ATOM     26  N   UNL     1      39.618 -25.014 -13.726  0.00  0.00    -0.343 N 
ATOM     27  C   UNL     1      36.106 -24.433 -14.584  0.00  0.00    +0.150 C 
ATOM     28  C   UNL     1      37.413 -24.198 -14.171  0.00  0.00    +0.071 C 
ATOM     29  C   UNL     1      35.722 -25.716 -14.957  0.00  0.00    +0.058 C 
ATOM     30  C   UNL     1      38.290 -25.271 -14.149  0.00  0.00    +0.128 C 
ATOM     31  C   UNL     1      36.674 -26.722 -14.900  0.00  0.00    +0.103 C 
ATOM     32  H   UNL     1      40.274 -25.747 -13.695  0.00  0.00    +0.144 HD
ATOM     33  H   UNL     1      39.883 -24.103 -13.463  0.00  0.00    +0.144 HD
ENDBRANCH  24  27
ENDBRANCH   3  24
TORSDOF 5
ENDMDL
MODEL 9
REMARK VINA RESULT:     -12.7      4.628      7.496
REMARK  Name = 17748441
REMARK  5 active torsions:
REMARK  status: ('A' for Active; 'I' for Inactive)
REMARK    1  A    between atoms: C_2  and  N_10
REMARK    2  A    between atoms: C_3  and  O_24
REMARK    3  A    between atoms: C_12  and  C_16
REMARK    4  A    between atoms: C_16  and  C_18
REMARK    5  A    between atoms: O_24  and  C_27
REMARK                            x       y       z     vdW  Elec       q    Type
REMARK                         _______ _______ _______ _____ _____    ______ ____
ROOT
ATOM      1  F   UNL     1      37.316 -17.868 -21.822  0.00  0.00    -0.201 F 
ATOM      2  C   UNL     1      35.032 -20.093 -20.072  0.00  0.00    +0.054 C 
ATOM      3  C   UNL     1      35.021 -18.319 -22.225  0.00  0.00    +0.173 C 
ATOM      4  C   UNL     1      36.197 -19.408 -20.418  0.00  0.00    +0.047 C 
ATOM      5  C   UNL     1      33.862 -19.890 -20.804  0.00  0.00    +0.018 C 
ATOM      6  C   UNL     1      36.192 -18.522 -21.494  0.00  0.00    +0.176 C 
ATOM      7  C   UNL     1      33.856 -19.002 -21.879  0.00  0.00    +0.041 C 
ENDROOT
BRANCH   2  10
ATOM      8  O   UNL     1      37.113 -21.693 -15.307  0.00  0.00    -0.274 OA
ATOM      9  O   UNL     1      36.764 -20.166 -17.620  0.00  0.00    -0.252 OA
ATOM     10  N   UNL     1      35.037 -20.993 -18.981  0.00  0.00    -0.268 N 
ATOM     11  N   UNL     1      35.552 -22.049 -17.003  0.00  0.00    -0.239 N 
ATOM     12  C   UNL     1      36.187 -22.337 -15.792  0.00  0.00    +0.234 C 
ATOM     13  C   UNL     1      35.872 -20.976 -17.860  0.00  0.00    +0.310 C 
ATOM     14  H   UNL     1      34.371 -21.719 -19.016  0.00  0.00    +0.156 HD
ATOM     15  H   UNL     1      34.820 -22.646 -17.283  0.00  0.00    +0.159 HD
BRANCH  12  16
ATOM     16  C   UNL     1      35.586 -23.565 -15.135  0.00  0.00    +0.112 C 
BRANCH  16  18
ATOM     17  F   UNL     1      30.107 -23.000 -13.947  0.00  0.00    -0.204 F 
ATOM     18  C   UNL     1      34.121 -23.415 -14.817  0.00  0.00    -0.013 C 
ATOM     19  C   UNL     1      33.221 -23.075 -15.826  0.00  0.00    -0.001 C 
ATOM     20  C   UNL     1      33.665 -23.615 -13.514  0.00  0.00    -0.001 C 
ATOM     21  C   UNL     1      31.864 -22.935 -15.532  0.00  0.00    +0.029 C 
ATOM     22  C   UNL     1      32.310 -23.474 -13.220  0.00  0.00    +0.029 C 
ATOM     23  C   UNL     1      31.408 -23.135 -14.229  0.00  0.00    +0.140 C 
ENDBRANCH  16  18
ENDBRANCH  12  16
ENDBRANCH   2  10
BRANCH   3  24
ATOM     24  O   UNL     1      35.015 -17.451 -23.274  0.00  0.00    -0.451 OA
BRANCH  24  27
ATOM     25  N   UNL     1      33.190 -13.734 -22.708  0.00  0.00    -0.229 NA
ATOM     26  N   UNL     1      32.562 -13.709 -25.006  0.00  0.00    -0.343 N 
ATOM     27  C   UNL     1      34.411 -16.219 -23.087  0.00  0.00    +0.150 C 
ATOM     28  C   UNL     1      33.786 -15.579 -24.151  0.00  0.00    +0.071 C 
ATOM     29  C   UNL     1      34.426 -15.618 -21.834  0.00  0.00    +0.058 C 
ATOM     30  C   UNL     1      33.195 -14.349 -23.911  0.00  0.00    +0.128 C 
ATOM     31  C   UNL     1      33.807 -14.386 -21.697  0.00  0.00    +0.103 C 
ATOM     32  H   UNL     1      32.130 -12.834 -24.882  0.00  0.00    +0.144 HD
ATOM     33  H   UNL     1      32.555 -14.141 -25.891  0.00  0.00    +0.144 HD
ENDBRANCH  24  27
ENDBRANCH   3  24
TORSDOF 5
ENDMDL
