MODEL 1
REMARK VINA RESULT:     -13.4      0.000      0.000
REMARK  Name = 3488
REMARK  8 active torsions:
REMARK  status: ('A' for Active; 'I' for Inactive)
REMARK    1  A    between atoms: C_1  and  S_7
REMARK    2  A    between atoms: C_2  and  C_22
REMARK    3  A    between atoms: S_7  and  N_12
REMARK    4  A    between atoms: N_11  and  C_16
REMARK    5  A    between atoms: C_22  and  C_23
REMARK    6  A    between atoms: C_23  and  N_25
REMARK    7  A    between atoms: C_26  and  C_29
REMARK    8  A    between atoms: C_30  and  O_35
REMARK                            x       y       z     vdW  Elec       q    Type
REMARK                         _______ _______ _______ _____ _____    ______ ____
ROOT
ATOM      1  C   UNL     1      33.984 -21.423 -18.778  0.00  0.00    +0.125 C 
ATOM      2  C   UNL     1      35.278 -19.605 -20.418  0.00  0.00    -0.020 C 
ATOM      3  C   UNL     1      33.243 -20.680 -19.680  0.00  0.00    +0.020 C 
ATOM      4  C   UNL     1      35.357 -21.280 -18.676  0.00  0.00    +0.020 C 
ATOM      5  C   UNL     1      33.895 -19.763 -20.506  0.00  0.00    -0.003 C 
ATOM      6  C   UNL     1      36.010 -20.364 -19.503  0.00  0.00    -0.003 C 
ENDROOT
BRANCH   1   7
ATOM      7  S   UNL     1      33.158 -22.583 -17.731  0.00  0.00    +0.077 S 
ATOM      8  O   UNL     1      33.100 -23.855 -18.426  0.00  0.00    -0.150 OA
ATOM      9  O   UNL     1      31.944 -21.941 -17.269  0.00  0.00    -0.150 OA
BRANCH   7  12
ATOM     10  O   UNL     1      33.047 -24.113 -15.030  0.00  0.00    -0.251 OA
ATOM     11  N   UNL     1      35.130 -23.362 -14.364  0.00  0.00    -0.289 N 
ATOM     12  N   UNL     1      34.265 -22.699 -16.433  0.00  0.00    -0.169 N 
ATOM     13  C   UNL     1      34.063 -23.456 -15.236  0.00  0.00    +0.319 C 
ATOM     14  H   UNL     1      35.901 -22.808 -14.621  0.00  0.00    +0.151 HD
ATOM     15  H   UNL     1      35.113 -22.204 -16.518  0.00  0.00    +0.178 HD
BRANCH  11  16
ATOM     16  C   UNL     1      35.163 -24.043 -13.088  0.00  0.00    +0.073 C 
ATOM     17  C   UNL     1      35.343 -23.047 -11.937  0.00  0.00    +0.020 C 
ATOM     18  C   UNL     1      36.253 -25.119 -13.066  0.00  0.00    +0.020 C 
ATOM     19  C   UNL     1      36.752 -22.457 -11.890  0.00  0.00    +0.002 C 
ATOM     20  C   UNL     1      37.661 -24.526 -13.017  0.00  0.00    +0.002 C 
ATOM     21  C   UNL     1      37.819 -23.548 -11.857  0.00  0.00    +0.000 C 
ENDBRANCH  11  16
ENDBRANCH   7  12
ENDBRANCH   1   7
BRANCH   2  22
ATOM     22  C   UNL     1      35.975 -18.626 -21.300  0.00  0.00    +0.048 C 
BRANCH  22  23
ATOM     23  C   UNL     1      35.267 -18.397 -22.642  0.00  0.00    +0.094 C 
BRANCH  23  25
ATOM     24  O   UNL     1      33.579 -17.376 -24.727  0.00  0.00    -0.270 OA
ATOM     25  N   UNL     1      34.832 -17.037 -22.804  0.00  0.00    -0.300 N 
ATOM     26  C   UNL     1      34.011 -16.631 -23.850  0.00  0.00    +0.249 C 
ATOM     27  H   UNL     1      35.128 -16.363 -22.149  0.00  0.00    +0.150 HD
BRANCH  26  29
ATOM     28 CL   UNL     1      32.308 -12.624 -26.615  0.00  0.00    -0.082 Cl
ATOM     29  C   UNL     1      33.672 -15.185 -23.893  0.00  0.00    +0.088 C 
ATOM     30  C   UNL     1      33.825 -14.411 -22.761  0.00  0.00    +0.143 C 
ATOM     31  C   UNL     1      33.210 -14.662 -25.085  0.00  0.00    +0.019 C 
ATOM     32  C   UNL     1      33.503 -13.055 -22.822  0.00  0.00    +0.038 C 
ATOM     33  C   UNL     1      32.886 -13.307 -25.145  0.00  0.00    +0.058 C 
ATOM     34  C   UNL     1      33.033 -12.503 -24.014  0.00  0.00    +0.015 C 
BRANCH  30  35
ATOM     35  O   UNL     1      34.282 -14.931 -21.587  0.00  0.00    -0.471 OA
ATOM     36  C   UNL     1      33.653 -14.478 -20.391  0.00  0.00    +0.252 C 
ENDBRANCH  30  35
ENDBRANCH  26  29
ENDBRANCH  23  25
ENDBRANCH  22  23
ENDBRANCH   2  22
TORSDOF 8
ENDMDL
MODEL 2
REMARK VINA RESULT:     -13.3      0.942      2.032
REMARK  Name = 3488
REMARK  8 active torsions:
REMARK  status: ('A' for Active; 'I' for Inactive)
REMARK    1  A    between atoms: C_1  and  S_7
REMARK    2  A    between atoms: C_2  and  C_22
REMARK    3  A    between atoms: S_7  and  N_12
REMARK    4  A    between atoms: N_11  and  C_16
REMARK    5  A    between atoms: C_22  and  C_23
REMARK    6  A    between atoms: C_23  and  N_25
REMARK    7  A    between atoms: C_26  and  C_29
REMARK    8  A    between atoms: C_30  and  O_35
REMARK                            x       y       z     vdW  Elec       q    Type
REMARK                         _______ _______ _______ _____ _____    ______ ____
ROOT
ATOM      1  C   UNL     1      33.635 -21.548 -18.772  0.00  0.00    +0.125 C 
ATOM      2  C   UNL     1      34.788 -19.806 -20.589  0.00  0.00    -0.020 C 
ATOM      3  C   UNL     1      35.014 -21.455 -18.835  0.00  0.00    +0.020 C 
ATOM      4  C   UNL     1      32.818 -20.792 -19.594  0.00  0.00    +0.020 C 
ATOM      5  C   UNL     1      35.595 -20.577 -19.751  0.00  0.00    -0.003 C 
ATOM      6  C   UNL     1      33.399 -19.913 -20.509  0.00  0.00    -0.003 C 
ENDROOT
BRANCH   1   7
ATOM      7  S   UNL     1      32.898 -22.660 -17.611  0.00  0.00    +0.077 S 
ATOM      8  O   UNL     1      32.940 -23.995 -18.178  0.00  0.00    -0.150 OA
ATOM      9  O   UNL     1      31.637 -22.071 -17.209  0.00  0.00    -0.150 OA
BRANCH   7  12
ATOM     10  O   UNL     1      33.017 -24.098 -14.861  0.00  0.00    -0.251 OA
ATOM     11  N   UNL     1      34.958 -23.016 -14.226  0.00  0.00    -0.289 N 
ATOM     12  N   UNL     1      34.007 -22.562 -16.314  0.00  0.00    -0.169 N 
ATOM     13  C   UNL     1      33.920 -23.301 -15.092  0.00  0.00    +0.319 C 
ATOM     14  H   UNL     1      35.636 -22.359 -14.504  0.00  0.00    +0.151 HD
ATOM     15  H   UNL     1      34.769 -21.946 -16.417  0.00  0.00    +0.178 HD
BRANCH  11  16
ATOM     16  C   UNL     1      35.093 -23.641 -12.928  0.00  0.00    +0.073 C 
ATOM     17  C   UNL     1      35.765 -22.693 -11.928  0.00  0.00    +0.020 C 
ATOM     18  C   UNL     1      35.851 -24.968 -13.032  0.00  0.00    +0.020 C 
ATOM     19  C   UNL     1      37.254 -22.500 -12.217  0.00  0.00    +0.002 C 
ATOM     20  C   UNL     1      37.339 -24.771 -13.318  0.00  0.00    +0.002 C 
ATOM     21  C   UNL     1      37.989 -23.835 -12.304  0.00  0.00    +0.000 C 
ENDBRANCH  11  16
ENDBRANCH   7  12
ENDBRANCH   1   7
BRANCH   2  22
ATOM     22  C   UNL     1      35.409 -18.869 -21.568  0.00  0.00    +0.048 C 
BRANCH  22  23
ATOM     23  C   UNL     1      35.454 -17.414 -21.080  0.00  0.00    +0.094 C 
BRANCH  23  25
ATOM     24  O   UNL     1      34.134 -14.923 -20.542  0.00  0.00    -0.270 OA
ATOM     25  N   UNL     1      34.923 -16.497 -22.051  0.00  0.00    -0.300 N 
ATOM     26  C   UNL     1      34.297 -15.308 -21.697  0.00  0.00    +0.249 C 
ATOM     27  H   UNL     1      35.006 -16.719 -23.008  0.00  0.00    +0.150 HD
BRANCH  26  29
ATOM     28 CL   UNL     1      32.507 -10.742 -23.294  0.00  0.00    -0.082 Cl
ATOM     29  C   UNL     1      33.779 -14.482 -22.818  0.00  0.00    +0.088 C 
ATOM     30  C   UNL     1      33.655 -15.034 -24.076  0.00  0.00    +0.143 C 
ATOM     31  C   UNL     1      33.434 -13.172 -22.553  0.00  0.00    +0.019 C 
ATOM     32  C   UNL     1      33.166 -14.243 -25.115  0.00  0.00    +0.038 C 
ATOM     33  C   UNL     1      32.946 -12.380 -23.592  0.00  0.00    +0.058 C 
ATOM     34  C   UNL     1      32.811 -12.915 -24.873  0.00  0.00    +0.015 C 
BRANCH  30  35
ATOM     35  O   UNL     1      33.997 -16.328 -24.334  0.00  0.00    -0.471 OA
ATOM     36  C   UNL     1      32.944 -17.213 -24.710  0.00  0.00    +0.252 C 
ENDBRANCH  30  35
ENDBRANCH  26  29
ENDBRANCH  23  25
ENDBRANCH  22  23
ENDBRANCH   2  22
TORSDOF 8
ENDMDL
MODEL 3
REMARK VINA RESULT:     -12.6      2.915      4.630
REMARK  Name = 3488
REMARK  8 active torsions:
REMARK  status: ('A' for Active; 'I' for Inactive)
REMARK    1  A    between atoms: C_1  and  S_7
REMARK    2  A    between atoms: C_2  and  C_22
REMARK    3  A    between atoms: S_7  and  N_12
REMARK    4  A    between atoms: N_11  and  C_16
REMARK    5  A    between atoms: C_22  and  C_23
REMARK    6  A    between atoms: C_23  and  N_25
REMARK    7  A    between atoms: C_26  and  C_29
REMARK    8  A    between atoms: C_30  and  O_35
REMARK                            x       y       z     vdW  Elec       q    Type
REMARK                         _______ _______ _______ _____ _____    ______ ____
ROOT
ATOM      1  C   UNL     1      34.882 -21.987 -17.211  0.00  0.00    +0.125 C 
ATOM      2  C   UNL     1      35.014 -20.678 -19.647  0.00  0.00    -0.020 C 
ATOM      3  C   UNL     1      36.045 -21.322 -17.558  0.00  0.00    +0.020 C 
ATOM      4  C   UNL     1      33.783 -22.014 -18.052  0.00  0.00    +0.020 C 
ATOM      5  C   UNL     1      36.111 -20.662 -18.786  0.00  0.00    -0.003 C 
ATOM      6  C   UNL     1      33.849 -21.353 -19.279  0.00  0.00    -0.003 C 
ENDROOT
BRANCH   1   7
ATOM      7  S   UNL     1      34.798 -22.824 -15.655  0.00  0.00    +0.077 S 
ATOM      8  O   UNL     1      34.889 -21.830 -14.603  0.00  0.00    -0.150 OA
ATOM      9  O   UNL     1      35.745 -23.919 -15.716  0.00  0.00    -0.150 OA
BRANCH   7  12
ATOM     10  O   UNL     1      32.276 -22.241 -13.938  0.00  0.00    -0.251 OA
ATOM     11  N   UNL     1      30.966 -23.745 -15.107  0.00  0.00    -0.289 N 
ATOM     12  N   UNL     1      33.207 -23.449 -15.706  0.00  0.00    -0.169 N 
ATOM     13  C   UNL     1      32.141 -23.074 -14.829  0.00  0.00    +0.319 C 
ATOM     14  H   UNL     1      30.959 -24.397 -15.844  0.00  0.00    +0.151 HD
ATOM     15  H   UNL     1      33.010 -24.124 -16.397  0.00  0.00    +0.178 HD
BRANCH  11  16
ATOM     16  C   UNL     1      29.745 -23.533 -14.361  0.00  0.00    +0.073 C 
ATOM     17  C   UNL     1      28.723 -24.637 -14.653  0.00  0.00    +0.020 C 
ATOM     18  C   UNL     1      29.161 -22.146 -14.643  0.00  0.00    +0.020 C 
ATOM     19  C   UNL     1      28.126 -24.524 -16.056  0.00  0.00    +0.002 C 
ATOM     20  C   UNL     1      28.563 -22.037 -16.046  0.00  0.00    +0.002 C 
ATOM     21  C   UNL     1      27.540 -23.138 -16.309  0.00  0.00    +0.000 C 
ENDBRANCH  11  16
ENDBRANCH   7  12
ENDBRANCH   1   7
BRANCH   2  22
ATOM     22  C   UNL     1      35.085 -19.973 -20.959  0.00  0.00    +0.048 C 
BRANCH  22  23
ATOM     23  C   UNL     1      35.837 -18.638 -20.898  0.00  0.00    +0.094 C 
BRANCH  23  25
ATOM     24  O   UNL     1      34.515 -16.167 -20.279  0.00  0.00    -0.270 OA
ATOM     25  N   UNL     1      35.326 -17.679 -21.839  0.00  0.00    -0.300 N 
ATOM     26  C   UNL     1      34.696 -16.504 -21.446  0.00  0.00    +0.249 C 
ATOM     27  H   UNL     1      35.424 -17.862 -22.802  0.00  0.00    +0.150 HD
BRANCH  26  29
ATOM     28 CL   UNL     1      33.182 -11.805 -22.939  0.00  0.00    -0.082 Cl
ATOM     29  C   UNL     1      34.199 -15.631 -22.540  0.00  0.00    +0.088 C 
ATOM     30  C   UNL     1      33.991 -16.159 -23.798  0.00  0.00    +0.143 C 
ATOM     31  C   UNL     1      33.958 -14.302 -22.252  0.00  0.00    +0.019 C 
ATOM     32  C   UNL     1      33.523 -15.323 -24.812  0.00  0.00    +0.038 C 
ATOM     33  C   UNL     1      33.491 -13.466 -23.266  0.00  0.00    +0.058 C 
ATOM     34  C   UNL     1      33.273 -13.977 -24.546  0.00  0.00    +0.015 C 
BRANCH  30  35
ATOM     35  O   UNL     1      34.229 -17.471 -24.078  0.00  0.00    -0.471 OA
ATOM     36  C   UNL     1      33.111 -18.261 -24.476  0.00  0.00    +0.252 C 
ENDBRANCH  30  35
ENDBRANCH  26  29
ENDBRANCH  23  25
ENDBRANCH  22  23
ENDBRANCH   2  22
TORSDOF 8
ENDMDL
MODEL 4
REMARK VINA RESULT:     -12.5      1.464      2.134
REMARK  Name = 3488
REMARK  8 active torsions:
REMARK  status: ('A' for Active; 'I' for Inactive)
REMARK    1  A    between atoms: C_1  and  S_7
REMARK    2  A    between atoms: C_2  and  C_22
REMARK    3  A    between atoms: S_7  and  N_12
REMARK    4  A    between atoms: N_11  and  C_16
REMARK    5  A    between atoms: C_22  and  C_23
REMARK    6  A    between atoms: C_23  and  N_25
REMARK    7  A    between atoms: C_26  and  C_29
REMARK    8  A    between atoms: C_30  and  O_35
REMARK                            x       y       z     vdW  Elec       q    Type
REMARK                         _______ _______ _______ _____ _____    ______ ____
ROOT
ATOM      1  C   UNL     1      33.916 -21.374 -18.895  0.00  0.00    +0.125 C 
ATOM      2  C   UNL     1      35.140 -19.450 -20.466  0.00  0.00    -0.020 C 
ATOM      3  C   UNL     1      33.144 -20.613 -19.755  0.00  0.00    +0.020 C 
ATOM      4  C   UNL     1      35.285 -21.197 -18.801  0.00  0.00    +0.020 C 
ATOM      5  C   UNL     1      33.761 -19.643 -20.547  0.00  0.00    -0.003 C 
ATOM      6  C   UNL     1      35.903 -20.228 -19.593  0.00  0.00    -0.003 C 
ENDROOT
BRANCH   1   7
ATOM      7  S   UNL     1      33.134 -22.602 -17.892  0.00  0.00    +0.077 S 
ATOM      8  O   UNL     1      33.156 -23.857 -18.618  0.00  0.00    -0.150 OA
ATOM      9  O   UNL     1      31.879 -22.036 -17.438  0.00  0.00    -0.150 OA
BRANCH   7  12
ATOM     10  O   UNL     1      33.014 -24.131 -15.191  0.00  0.00    -0.251 OA
ATOM     11  N   UNL     1      35.067 -23.331 -14.492  0.00  0.00    -0.289 N 
ATOM     12  N   UNL     1      34.222 -22.690 -16.576  0.00  0.00    -0.169 N 
ATOM     13  C   UNL     1      34.018 -23.451 -15.382  0.00  0.00    +0.319 C 
ATOM     14  H   UNL     1      35.830 -22.760 -14.737  0.00  0.00    +0.151 HD
ATOM     15  H   UNL     1      35.059 -22.176 -16.647  0.00  0.00    +0.178 HD
BRANCH  11  16
ATOM     16  C   UNL     1      35.096 -24.010 -13.214  0.00  0.00    +0.073 C 
ATOM     17  C   UNL     1      35.362 -23.023 -12.072  0.00  0.00    +0.020 C 
ATOM     18  C   UNL     1      36.122 -25.147 -13.217  0.00  0.00    +0.020 C 
ATOM     19  C   UNL     1      36.804 -22.514 -12.065  0.00  0.00    +0.002 C 
ATOM     20  C   UNL     1      37.563 -24.635 -13.207  0.00  0.00    +0.002 C 
ATOM     21  C   UNL     1      37.807 -23.664 -12.055  0.00  0.00    +0.000 C 
ENDBRANCH  11  16
ENDBRANCH   7  12
ENDBRANCH   1   7
BRANCH   2  22
ATOM     22  C   UNL     1      35.800 -18.414 -21.312  0.00  0.00    +0.048 C 
BRANCH  22  23
ATOM     23  C   UNL     1      35.096 -18.179 -22.654  0.00  0.00    +0.094 C 
BRANCH  23  25
ATOM     24  O   UNL     1      34.702 -16.319 -20.503  0.00  0.00    -0.270 OA
ATOM     25  N   UNL     1      34.537 -16.858 -22.753  0.00  0.00    -0.300 N 
ATOM     26  C   UNL     1      34.383 -16.024 -21.652  0.00  0.00    +0.249 C 
ATOM     27  H   UNL     1      34.249 -16.531 -23.637  0.00  0.00    +0.150 HD
BRANCH  26  29
ATOM     28 CL   UNL     1      32.031 -11.845 -19.753  0.00  0.00    -0.082 Cl
ATOM     29  C   UNL     1      33.764 -14.700 -21.917  0.00  0.00    +0.088 C 
ATOM     30  C   UNL     1      33.710 -14.213 -23.206  0.00  0.00    +0.143 C 
ATOM     31  C   UNL     1      33.257 -13.994 -20.843  0.00  0.00    +0.019 C 
ATOM     32  C   UNL     1      33.124 -12.968 -23.434  0.00  0.00    +0.038 C 
ATOM     33  C   UNL     1      32.672 -12.749 -21.071  0.00  0.00    +0.058 C 
ATOM     34  C   UNL     1      32.605 -12.236 -22.366  0.00  0.00    +0.015 C 
BRANCH  30  35
ATOM     35  O   UNL     1      34.211 -14.912 -24.264  0.00  0.00    -0.471 OA
ATOM     36  C   UNL     1      33.369 -15.050 -25.406  0.00  0.00    +0.252 C 
ENDBRANCH  30  35
ENDBRANCH  26  29
ENDBRANCH  23  25
ENDBRANCH  22  23
ENDBRANCH   2  22
TORSDOF 8
ENDMDL
MODEL 5
REMARK VINA RESULT:     -12.2      3.142      4.881
REMARK  Name = 3488
REMARK  8 active torsions:
REMARK  status: ('A' for Active; 'I' for Inactive)
REMARK    1  A    between atoms: C_1  and  S_7
REMARK    2  A    between atoms: C_2  and  C_22
REMARK    3  A    between atoms: S_7  and  N_12
REMARK    4  A    between atoms: N_11  and  C_16
REMARK    5  A    between atoms: C_22  and  C_23
REMARK    6  A    between atoms: C_23  and  N_25
REMARK    7  A    between atoms: C_26  and  C_29
REMARK    8  A    between atoms: C_30  and  O_35
REMARK                            x       y       z     vdW  Elec       q    Type
REMARK                         _______ _______ _______ _____ _____    ______ ____
ROOT
ATOM      1  C   UNL     1      35.615 -22.789 -15.569  0.00  0.00    +0.125 C 
ATOM      2  C   UNL     1      35.743 -21.264 -17.876  0.00  0.00    -0.020 C 
ATOM      3  C   UNL     1      34.531 -22.773 -16.428  0.00  0.00    +0.020 C 
ATOM      4  C   UNL     1      36.762 -22.062 -15.834  0.00  0.00    +0.020 C 
ATOM      5  C   UNL     1      34.595 -22.003 -17.591  0.00  0.00    -0.003 C 
ATOM      6  C   UNL     1      36.827 -21.294 -16.997  0.00  0.00    -0.003 C 
ENDROOT
BRANCH   1   7
ATOM      7  S   UNL     1      35.533 -23.764 -14.095  0.00  0.00    +0.077 S 
ATOM      8  O   UNL     1      35.555 -22.864 -12.958  0.00  0.00    -0.150 OA
ATOM      9  O   UNL     1      36.530 -24.807 -14.227  0.00  0.00    -0.150 OA
BRANCH   7  12
ATOM     10  O   UNL     1      32.848 -23.161 -12.655  0.00  0.00    -0.251 OA
ATOM     11  N   UNL     1      31.698 -24.789 -13.827  0.00  0.00    -0.289 N 
ATOM     12  N   UNL     1      33.974 -24.450 -14.243  0.00  0.00    -0.169 N 
ATOM     13  C   UNL     1      32.821 -24.056 -13.494  0.00  0.00    +0.319 C 
ATOM     14  H   UNL     1      31.778 -25.488 -14.514  0.00  0.00    +0.151 HD
ATOM     15  H   UNL     1      33.862 -25.176 -14.899  0.00  0.00    +0.178 HD
BRANCH  11  16
ATOM     16  C   UNL     1      30.407 -24.572 -13.209  0.00  0.00    +0.073 C 
ATOM     17  C   UNL     1      29.300 -25.301 -13.979  0.00  0.00    +0.020 C 
ATOM     18  C   UNL     1      30.102 -23.077 -13.079  0.00  0.00    +0.020 C 
ATOM     19  C   UNL     1      28.995 -24.644 -15.325  0.00  0.00    +0.002 C 
ATOM     20  C   UNL     1      29.795 -22.423 -14.427  0.00  0.00    +0.002 C 
ATOM     21  C   UNL     1      28.682 -23.158 -15.168  0.00  0.00    +0.000 C 
ENDBRANCH  11  16
ENDBRANCH   7  12
ENDBRANCH   1   7
BRANCH   2  22
ATOM     22  C   UNL     1      35.812 -20.441 -19.118  0.00  0.00    +0.048 C 
BRANCH  22  23
ATOM     23  C   UNL     1      34.577 -20.583 -20.016  0.00  0.00    +0.094 C 
BRANCH  23  25
ATOM     24  O   UNL     1      36.362 -18.386 -20.491  0.00  0.00    -0.270 OA
ATOM     25  N   UNL     1      34.273 -19.368 -20.722  0.00  0.00    -0.300 N 
ATOM     26  C   UNL     1      35.205 -18.354 -20.905  0.00  0.00    +0.249 C 
ATOM     27  H   UNL     1      33.368 -19.249 -21.092  0.00  0.00    +0.150 HD
BRANCH  26  29
ATOM     28 CL   UNL     1      33.822 -13.389 -20.701  0.00  0.00    -0.082 Cl
ATOM     29  C   UNL     1      34.728 -17.150 -21.632  0.00  0.00    +0.088 C 
ATOM     30  C   UNL     1      34.499 -17.216 -22.991  0.00  0.00    +0.143 C 
ATOM     31  C   UNL     1      34.528 -15.990 -20.909  0.00  0.00    +0.019 C 
ATOM     32  C   UNL     1      34.051 -16.075 -23.657  0.00  0.00    +0.038 C 
ATOM     33  C   UNL     1      34.081 -14.849 -21.575  0.00  0.00    +0.058 C 
ATOM     34  C   UNL     1      33.841 -14.892 -22.949  0.00  0.00    +0.015 C 
BRANCH  30  35
ATOM     35  O   UNL     1      34.697 -18.362 -23.702  0.00  0.00    -0.471 OA
ATOM     36  C   UNL     1      33.564 -18.916 -24.365  0.00  0.00    +0.252 C 
ENDBRANCH  30  35
ENDBRANCH  26  29
ENDBRANCH  23  25
ENDBRANCH  22  23
ENDBRANCH   2  22
TORSDOF 8
ENDMDL
MODEL 6
REMARK VINA RESULT:     -12.2      3.839     11.310
REMARK  Name = 3488
REMARK  8 active torsions:
REMARK  status: ('A' for Active; 'I' for Inactive)
REMARK    1  A    between atoms: C_1  and  S_7
REMARK    2  A    between atoms: C_2  and  C_22
REMARK    3  A    between atoms: S_7  and  N_12
REMARK    4  A    between atoms: N_11  and  C_16
REMARK    5  A    between atoms: C_22  and  C_23
REMARK    6  A    between atoms: C_23  and  N_25
REMARK    7  A    between atoms: C_26  and  C_29
REMARK    8  A    between atoms: C_30  and  O_35
REMARK                            x       y       z     vdW  Elec       q    Type
REMARK                         _______ _______ _______ _____ _____    ______ ____
ROOT
ATOM      1  C   UNL     1      34.087 -17.191 -23.299  0.00  0.00    +0.125 C 
ATOM      2  C   UNL     1      35.067 -18.779 -21.254  0.00  0.00    -0.020 C 
ATOM      3  C   UNL     1      33.771 -18.538 -23.280  0.00  0.00    +0.020 C 
ATOM      4  C   UNL     1      34.880 -16.618 -22.320  0.00  0.00    +0.020 C 
ATOM      5  C   UNL     1      34.265 -19.339 -22.250  0.00  0.00    -0.003 C 
ATOM      6  C   UNL     1      35.373 -17.418 -21.289  0.00  0.00    -0.003 C 
ENDROOT
BRANCH   1   7
ATOM      7  S   UNL     1      33.461 -16.176 -24.605  0.00  0.00    +0.077 S 
ATOM      8  O   UNL     1      32.497 -16.955 -25.359  0.00  0.00    -0.150 OA
ATOM      9  O   UNL     1      34.609 -15.587 -25.265  0.00  0.00    -0.150 OA
BRANCH   7  12
ATOM     10  O   UNL     1      34.477 -13.699 -23.030  0.00  0.00    -0.251 OA
ATOM     11  N   UNL     1      32.347 -13.057 -22.401  0.00  0.00    -0.289 N 
ATOM     12  N   UNL     1      32.640 -14.968 -23.716  0.00  0.00    -0.169 N 
ATOM     13  C   UNL     1      33.262 -13.874 -23.035  0.00  0.00    +0.319 C 
ATOM     14  H   UNL     1      31.391 -13.282 -22.463  0.00  0.00    +0.151 HD
ATOM     15  H   UNL     1      31.658 -15.030 -23.671  0.00  0.00    +0.178 HD
BRANCH  11  16
ATOM     16  C   UNL     1      32.731 -11.882 -21.649  0.00  0.00    +0.073 C 
ATOM     17  C   UNL     1      31.628 -11.471 -20.667  0.00  0.00    +0.020 C 
ATOM     18  C   UNL     1      33.101 -10.726 -22.584  0.00  0.00    +0.020 C 
ATOM     19  C   UNL     1      30.412 -10.873 -21.372  0.00  0.00    +0.002 C 
ATOM     20  C   UNL     1      31.882 -10.128 -23.286  0.00  0.00    +0.002 C 
ATOM     21  C   UNL     1      30.804  -9.716 -22.288  0.00  0.00    +0.000 C 
ENDBRANCH  11  16
ENDBRANCH   7  12
ENDBRANCH   1   7
BRANCH   2  22
ATOM     22  C   UNL     1      35.595 -19.635 -20.153  0.00  0.00    +0.048 C 
BRANCH  22  23
ATOM     23  C   UNL     1      34.945 -21.023 -20.089  0.00  0.00    +0.094 C 
BRANCH  23  25
ATOM     24  O   UNL     1      33.385 -23.320 -19.363  0.00  0.00    -0.270 OA
ATOM     25  N   UNL     1      34.366 -21.295 -18.802  0.00  0.00    -0.300 N 
ATOM     26  C   UNL     1      33.622 -22.440 -18.541  0.00  0.00    +0.249 C 
ATOM     27  H   UNL     1      34.501 -20.644 -18.074  0.00  0.00    +0.150 HD
BRANCH  26  29
ATOM     28 CL   UNL     1      29.455 -22.516 -15.501  0.00  0.00    -0.082 Cl
ATOM     29  C   UNL     1      33.068 -22.561 -17.167  0.00  0.00    +0.088 C 
ATOM     30  C   UNL     1      33.921 -22.739 -16.097  0.00  0.00    +0.143 C 
ATOM     31  C   UNL     1      31.698 -22.489 -17.011  0.00  0.00    +0.019 C 
ATOM     32  C   UNL     1      33.382 -22.851 -14.816  0.00  0.00    +0.038 C 
ATOM     33  C   UNL     1      31.159 -22.602 -15.729  0.00  0.00    +0.058 C 
ATOM     34  C   UNL     1      32.001 -22.781 -14.632  0.00  0.00    +0.015 C 
BRANCH  30  35
ATOM     35  O   UNL     1      35.273 -22.809 -16.256  0.00  0.00    -0.471 OA
ATOM     36  C   UNL     1      36.063 -22.837 -15.069  0.00  0.00    +0.252 C 
ENDBRANCH  30  35
ENDBRANCH  26  29
ENDBRANCH  23  25
ENDBRANCH  22  23
ENDBRANCH   2  22
TORSDOF 8
ENDMDL
MODEL 7
REMARK VINA RESULT:     -12.1      3.952     11.527
REMARK  Name = 3488
REMARK  8 active torsions:
REMARK  status: ('A' for Active; 'I' for Inactive)
REMARK    1  A    between atoms: C_1  and  S_7
REMARK    2  A    between atoms: C_2  and  C_22
REMARK    3  A    between atoms: S_7  and  N_12
REMARK    4  A    between atoms: N_11  and  C_16
REMARK    5  A    between atoms: C_22  and  C_23
REMARK    6  A    between atoms: C_23  and  N_25
REMARK    7  A    between atoms: C_26  and  C_29
REMARK    8  A    between atoms: C_30  and  O_35
REMARK                            x       y       z     vdW  Elec       q    Type
REMARK                         _______ _______ _______ _____ _____    ______ ____
ROOT
ATOM      1  C   UNL     1      34.362 -19.856 -20.573  0.00  0.00    +0.125 C 
ATOM      2  C   UNL     1      33.616 -21.717 -18.664  0.00  0.00    -0.020 C 
ATOM      3  C   UNL     1      35.343 -20.559 -19.897  0.00  0.00    +0.020 C 
ATOM      4  C   UNL     1      33.017 -20.060 -20.319  0.00  0.00    +0.020 C 
ATOM      5  C   UNL     1      34.967 -21.497 -18.934  0.00  0.00    -0.003 C 
ATOM      6  C   UNL     1      32.640 -20.998 -19.357  0.00  0.00    -0.003 C 
ENDROOT
BRANCH   1   7
ATOM      7  S   UNL     1      34.838 -18.667 -21.792  0.00  0.00    +0.077 S 
ATOM      8  O   UNL     1      34.068 -18.922 -22.995  0.00  0.00    -0.150 OA
ATOM      9  O   UNL     1      36.287 -18.665 -21.833  0.00  0.00    -0.150 OA
BRANCH   7  12
ATOM     10  O   UNL     1      35.178 -15.684 -22.589  0.00  0.00    -0.251 OA
ATOM     11  N   UNL     1      33.971 -14.920 -20.771  0.00  0.00    -0.289 N 
ATOM     12  N   UNL     1      34.291 -17.218 -21.068  0.00  0.00    -0.169 N 
ATOM     13  C   UNL     1      34.536 -15.899 -21.565  0.00  0.00    +0.319 C 
ATOM     14  H   UNL     1      33.474 -15.195 -19.967  0.00  0.00    +0.151 HD
ATOM     15  H   UNL     1      33.762 -17.299 -20.241  0.00  0.00    +0.178 HD
BRANCH  11  16
ATOM     16  C   UNL     1      34.077 -13.509 -21.069  0.00  0.00    +0.073 C 
ATOM     17  C   UNL     1      33.112 -12.690 -20.204  0.00  0.00    +0.020 C 
ATOM     18  C   UNL     1      33.852 -13.241 -22.560  0.00  0.00    +0.020 C 
ATOM     19  C   UNL     1      31.653 -12.876 -20.621  0.00  0.00    +0.002 C 
ATOM     20  C   UNL     1      32.391 -13.426 -22.973  0.00  0.00    +0.002 C 
ATOM     21  C   UNL     1      31.451 -12.593 -22.107  0.00  0.00    +0.000 C 
ENDBRANCH  11  16
ENDBRANCH   7  12
ENDBRANCH   1   7
BRANCH   2  22
ATOM     22  C   UNL     1      33.214 -22.718 -17.635  0.00  0.00    +0.048 C 
BRANCH  22  23
ATOM     23  C   UNL     1      33.431 -22.239 -16.194  0.00  0.00    +0.094 C 
BRANCH  23  25
ATOM     24  O   UNL     1      36.146 -21.584 -15.533  0.00  0.00    -0.270 OA
ATOM     25  N   UNL     1      34.363 -23.066 -15.478  0.00  0.00    -0.300 N 
ATOM     26  C   UNL     1      35.665 -22.664 -15.202  0.00  0.00    +0.249 C 
ATOM     27  H   UNL     1      34.069 -23.954 -15.170  0.00  0.00    +0.150 HD
BRANCH  26  29
ATOM     28 CL   UNL     1      40.146 -25.203 -14.926  0.00  0.00    -0.082 Cl
ATOM     29  C   UNL     1      36.512 -23.645 -14.477  0.00  0.00    +0.088 C 
ATOM     30  C   UNL     1      36.036 -24.249 -13.332  0.00  0.00    +0.143 C 
ATOM     31  C   UNL     1      37.767 -23.920 -14.985  0.00  0.00    +0.019 C 
ATOM     32  C   UNL     1      36.846 -25.168 -12.665  0.00  0.00    +0.038 C 
ATOM     33  C   UNL     1      38.578 -24.838 -14.318  0.00  0.00    +0.058 C 
ATOM     34  C   UNL     1      38.118 -25.463 -13.159  0.00  0.00    +0.015 C 
BRANCH  30  35
ATOM     35  O   UNL     1      34.797 -23.975 -12.833  0.00  0.00    -0.471 OA
ATOM     36  C   UNL     1      34.738 -23.362 -11.547  0.00  0.00    +0.252 C 
ENDBRANCH  30  35
ENDBRANCH  26  29
ENDBRANCH  23  25
ENDBRANCH  22  23
ENDBRANCH   2  22
TORSDOF 8
ENDMDL
MODEL 8
REMARK VINA RESULT:     -11.6      6.614     10.501
REMARK  Name = 3488
REMARK  8 active torsions:
REMARK  status: ('A' for Active; 'I' for Inactive)
REMARK    1  A    between atoms: C_1  and  S_7
REMARK    2  A    between atoms: C_2  and  C_22
REMARK    3  A    between atoms: S_7  and  N_12
REMARK    4  A    between atoms: N_11  and  C_16
REMARK    5  A    between atoms: C_22  and  C_23
REMARK    6  A    between atoms: C_23  and  N_25
REMARK    7  A    between atoms: C_26  and  C_29
REMARK    8  A    between atoms: C_30  and  O_35
REMARK                            x       y       z     vdW  Elec       q    Type
REMARK                         _______ _______ _______ _____ _____    ______ ____
ROOT
ATOM      1  C   UNL     1      32.380 -12.202 -22.654  0.00  0.00    +0.125 C 
ATOM      2  C   UNL     1      31.345 -10.641 -20.615  0.00  0.00    -0.020 C 
ATOM      3  C   UNL     1      32.007 -10.898 -22.925  0.00  0.00    +0.020 C 
ATOM      4  C   UNL     1      32.248 -12.746 -21.388  0.00  0.00    +0.020 C 
ATOM      5  C   UNL     1      31.485 -10.111 -21.898  0.00  0.00    -0.003 C 
ATOM      6  C   UNL     1      31.727 -11.959 -20.360  0.00  0.00    -0.003 C 
ENDROOT
BRANCH   1   7
ATOM      7  S   UNL     1      33.041 -13.199 -23.956  0.00  0.00    +0.077 S 
ATOM      8  O   UNL     1      34.106 -12.453 -24.599  0.00  0.00    -0.150 OA
ATOM      9  O   UNL     1      31.913 -13.685 -24.726  0.00  0.00    -0.150 OA
BRANCH   7  12
ATOM     10  O   UNL     1      34.200 -15.945 -24.831  0.00  0.00    -0.251 OA
ATOM     11  N   UNL     1      34.698 -16.578 -22.664  0.00  0.00    -0.289 N 
ATOM     12  N   UNL     1      33.716 -14.494 -23.066  0.00  0.00    -0.169 N 
ATOM     13  C   UNL     1      34.212 -15.714 -23.626  0.00  0.00    +0.319 C 
ATOM     14  H   UNL     1      34.663 -16.301 -21.720  0.00  0.00    +0.151 HD
ATOM     15  H   UNL     1      33.767 -14.391 -22.088  0.00  0.00    +0.178 HD
BRANCH  11  16
ATOM     16  C   UNL     1      35.259 -17.873 -22.982  0.00  0.00    +0.073 C 
ATOM     17  C   UNL     1      34.203 -18.977 -22.851  0.00  0.00    +0.020 C 
ATOM     18  C   UNL     1      36.484 -18.172 -22.114  0.00  0.00    +0.020 C 
ATOM     19  C   UNL     1      33.836 -19.266 -21.396  0.00  0.00    +0.002 C 
ATOM     20  C   UNL     1      36.114 -18.463 -20.659  0.00  0.00    +0.002 C 
ATOM     21  C   UNL     1      35.072 -19.572 -20.554  0.00  0.00    +0.000 C 
ENDBRANCH  11  16
ENDBRANCH   7  12
ENDBRANCH   1   7
BRANCH   2  22
ATOM     22  C   UNL     1      30.786  -9.801 -19.517  0.00  0.00    +0.048 C 
BRANCH  22  23
ATOM     23  C   UNL     1      31.649  -8.577 -19.183  0.00  0.00    +0.094 C 
BRANCH  23  25
ATOM     24  O   UNL     1      32.639  -5.884 -19.092  0.00  0.00    -0.270 OA
ATOM     25  N   UNL     1      31.749  -7.662 -20.287  0.00  0.00    -0.300 N 
ATOM     26  C   UNL     1      32.243  -6.371 -20.148  0.00  0.00    +0.249 C 
ATOM     27  H   UNL     1      31.454  -7.961 -21.178  0.00  0.00    +0.150 HD
BRANCH  26  29
ATOM     28 CL   UNL     1      30.328  -2.320 -22.705  0.00  0.00    -0.082 Cl
ATOM     29  C   UNL     1      32.256  -5.540 -21.380  0.00  0.00    +0.088 C 
ATOM     30  C   UNL     1      33.113  -5.857 -22.413  0.00  0.00    +0.143 C 
ATOM     31  C   UNL     1      31.394  -4.463 -21.445  0.00  0.00    +0.019 C 
ATOM     32  C   UNL     1      33.110  -5.065 -23.561  0.00  0.00    +0.038 C 
ATOM     33  C   UNL     1      31.391  -3.670 -22.593  0.00  0.00    +0.058 C 
ATOM     34  C   UNL     1      32.248  -3.971 -23.651  0.00  0.00    +0.015 C 
BRANCH  30  35
ATOM     35  O   UNL     1      33.963  -6.921 -22.345  0.00  0.00    -0.471 OA
ATOM     36  C   UNL     1      34.177  -7.656 -23.548  0.00  0.00    +0.252 C 
ENDBRANCH  30  35
ENDBRANCH  26  29
ENDBRANCH  23  25
ENDBRANCH  22  23
ENDBRANCH   2  22
TORSDOF 8
ENDMDL
MODEL 9
REMARK VINA RESULT:     -11.5      4.133     11.460
REMARK  Name = 3488
REMARK  8 active torsions:
REMARK  status: ('A' for Active; 'I' for Inactive)
REMARK    1  A    between atoms: C_1  and  S_7
REMARK    2  A    between atoms: C_2  and  C_22
REMARK    3  A    between atoms: S_7  and  N_12
REMARK    4  A    between atoms: N_11  and  C_16
REMARK    5  A    between atoms: C_22  and  C_23
REMARK    6  A    between atoms: C_23  and  N_25
REMARK    7  A    between atoms: C_26  and  C_29
REMARK    8  A    between atoms: C_30  and  O_35
REMARK                            x       y       z     vdW  Elec       q    Type
REMARK                         _______ _______ _______ _____ _____    ______ ____
ROOT
ATOM      1  C   UNL     1      34.284 -19.865 -20.634  0.00  0.00    +0.125 C 
ATOM      2  C   UNL     1      33.403 -21.753 -18.809  0.00  0.00    -0.020 C 
ATOM      3  C   UNL     1      32.926 -20.000 -20.404  0.00  0.00    +0.020 C 
ATOM      4  C   UNL     1      35.213 -20.650 -19.973  0.00  0.00    +0.020 C 
ATOM      5  C   UNL     1      32.482 -20.952 -19.485  0.00  0.00    -0.003 C 
ATOM      6  C   UNL     1      34.769 -21.601 -19.053  0.00  0.00    -0.003 C 
ENDROOT
BRANCH   1   7
ATOM      7  S   UNL     1      34.846 -18.660 -21.799  0.00  0.00    +0.077 S 
ATOM      8  O   UNL     1      34.138 -18.875 -23.046  0.00  0.00    -0.150 OA
ATOM      9  O   UNL     1      36.295 -18.685 -21.761  0.00  0.00    -0.150 OA
BRANCH   7  12
ATOM     10  O   UNL     1      35.185 -15.672 -22.576  0.00  0.00    -0.251 OA
ATOM     11  N   UNL     1      33.957 -14.922 -20.767  0.00  0.00    -0.289 N 
ATOM     12  N   UNL     1      34.287 -17.217 -21.073  0.00  0.00    -0.169 N 
ATOM     13  C   UNL     1      34.533 -15.895 -21.561  0.00  0.00    +0.319 C 
ATOM     14  H   UNL     1      33.452 -15.202 -19.970  0.00  0.00    +0.151 HD
ATOM     15  H   UNL     1      33.751 -17.304 -20.251  0.00  0.00    +0.178 HD
BRANCH  11  16
ATOM     16  C   UNL     1      34.061 -13.508 -21.056  0.00  0.00    +0.073 C 
ATOM     17  C   UNL     1      33.102 -12.695 -20.180  0.00  0.00    +0.020 C 
ATOM     18  C   UNL     1      33.825 -13.231 -22.544  0.00  0.00    +0.020 C 
ATOM     19  C   UNL     1      31.640 -12.879 -20.588  0.00  0.00    +0.002 C 
ATOM     20  C   UNL     1      32.361 -13.414 -22.948  0.00  0.00    +0.002 C 
ATOM     21  C   UNL     1      31.428 -12.586 -22.070  0.00  0.00    +0.000 C 
ENDBRANCH  11  16
ENDBRANCH   7  12
ENDBRANCH   1   7
BRANCH   2  22
ATOM     22  C   UNL     1      32.930 -22.770 -17.827  0.00  0.00    +0.048 C 
BRANCH  22  23
ATOM     23  C   UNL     1      32.623 -22.187 -16.441  0.00  0.00    +0.094 C 
BRANCH  23  25
ATOM     24  O   UNL     1      32.706 -24.117 -14.319  0.00  0.00    -0.270 OA
ATOM     25  N   UNL     1      33.700 -22.395 -15.512  0.00  0.00    -0.300 N 
ATOM     26  C   UNL     1      33.652 -23.358 -14.511  0.00  0.00    +0.249 C 
ATOM     27  H   UNL     1      34.505 -21.831 -15.586  0.00  0.00    +0.150 HD
BRANCH  26  29
ATOM     28 CL   UNL     1      35.468 -23.807  -9.704  0.00  0.00    -0.082 Cl
ATOM     29  C   UNL     1      34.834 -23.429 -13.614  0.00  0.00    +0.088 C 
ATOM     30  C   UNL     1      36.105 -23.356 -14.147  0.00  0.00    +0.143 C 
ATOM     31  C   UNL     1      34.613 -23.567 -12.258  0.00  0.00    +0.019 C 
ATOM     32  C   UNL     1      37.202 -23.425 -13.289  0.00  0.00    +0.038 C 
ATOM     33  C   UNL     1      35.710 -23.636 -11.400  0.00  0.00    +0.058 C 
ATOM     34  C   UNL     1      37.005 -23.564 -11.915  0.00  0.00    +0.015 C 
BRANCH  30  35
ATOM     35  O   UNL     1      36.319 -23.220 -15.486  0.00  0.00    -0.471 OA
ATOM     36  C   UNL     1      37.419 -22.407 -15.886  0.00  0.00    +0.252 C 
ENDBRANCH  30  35
ENDBRANCH  26  29
ENDBRANCH  23  25
ENDBRANCH  22  23
ENDBRANCH   2  22
TORSDOF 8
ENDMDL
