MODEL 1
REMARK VINA RESULT:     -10.8      0.000      0.000
REMARK  Name = 65624
REMARK  5 active torsions:
REMARK  status: ('A' for Active; 'I' for Inactive)
REMARK    1  A    between atoms: N_2  and  C_12
REMARK    2  A    between atoms: C_4  and  C_18
REMARK    3  A    between atoms: C_12  and  C_13
REMARK    4  A    between atoms: C_13  and  N_14
REMARK    5  A    between atoms: C_18  and  C_19
REMARK                            x       y       z     vdW  Elec       q    Type
REMARK                         _______ _______ _______ _____ _____    ______ ____
ROOT
ATOM      1  O   UNL     1      34.455 -23.146 -13.043  0.00  0.00    -0.266 OA
ATOM      2  N   UNL     1      34.933 -23.082 -15.313  0.00  0.00    -0.219 N 
ATOM      3  N   UNL     1      34.509 -22.986 -16.605  0.00  0.00    -0.171 NA
ATOM      4  C   UNL     1      33.243 -22.866 -16.855  0.00  0.00    +0.083 A 
ATOM      5  C   UNL     1      32.210 -22.827 -15.807  0.00  0.00    +0.020 A 
ATOM      6  C   UNL     1      32.643 -22.924 -14.490  0.00  0.00    +0.059 A 
ATOM      7  C   UNL     1      34.083 -23.060 -14.211  0.00  0.00    +0.276 A 
ATOM      8  C   UNL     1      30.847 -22.699 -16.089  0.00  0.00    +0.001 C 
ATOM      9  C   UNL     1      31.715 -22.894 -13.441  0.00  0.00    +0.005 C 
ATOM     10  C   UNL     1      29.922 -22.669 -15.044  0.00  0.00    +0.000 C 
ATOM     11  C   UNL     1      30.356 -22.767 -13.723  0.00  0.00    +0.000 C 
ENDROOT
BRANCH   2  12
ATOM     12  C   UNL     1      36.372 -23.213 -15.157  0.00  0.00    +0.108 C 
BRANCH  12  13
ATOM     13  C   UNL     1      36.711 -24.629 -14.710  0.00  0.00    -0.051 C 
BRANCH  13  14
ATOM     14  N   UNL     1      37.308 -24.613 -13.380  0.00  0.00    +0.385 N 
ATOM     15  C   UNL     1      38.767 -24.705 -13.469  0.00  0.00    -0.101 C 
ATOM     16  C   UNL     1      36.779 -25.706 -12.563  0.00  0.00    -0.101 C 
ATOM     17  H   UNL     1      37.066 -23.728 -12.934  0.00  0.00    -0.080 HD
ENDBRANCH  13  14
ENDBRANCH  12  13
ENDBRANCH   2  12
BRANCH   4  18
ATOM     18  C   UNL     1      32.828 -22.763 -18.304  0.00  0.00    +0.074 C 
BRANCH  18  19
ATOM     19  C   UNL     1      33.612 -21.695 -18.999  0.00  0.00    -0.016 C 
ATOM     20  C   UNL     1      34.996 -21.646 -18.855  0.00  0.00    -0.004 C 
ATOM     21  C   UNL     1      32.953 -20.754 -19.787  0.00  0.00    -0.004 C 
ATOM     22  C   UNL     1      35.727 -20.650 -19.503  0.00  0.00    -0.000 C 
ATOM     23  C   UNL     1      33.685 -19.758 -20.435  0.00  0.00    -0.000 C 
ATOM     24  C   UNL     1      35.071 -19.706 -20.293  0.00  0.00    -0.000 C 
ENDBRANCH  18  19
ENDBRANCH   4  18
TORSDOF 5
ENDMDL
MODEL 2
REMARK VINA RESULT:     -10.6      1.559      5.122
REMARK  Name = 65624
REMARK  5 active torsions:
REMARK  status: ('A' for Active; 'I' for Inactive)
REMARK    1  A    between atoms: N_2  and  C_12
REMARK    2  A    between atoms: C_4  and  C_18
REMARK    3  A    between atoms: C_12  and  C_13
REMARK    4  A    between atoms: C_13  and  N_14
REMARK    5  A    between atoms: C_18  and  C_19
REMARK                            x       y       z     vdW  Elec       q    Type
REMARK                         _______ _______ _______ _____ _____    ______ ____
ROOT
ATOM      1  O   UNL     1      36.814 -21.911 -16.851  0.00  0.00    -0.266 OA
ATOM      2  N   UNL     1      34.883 -22.712 -15.844  0.00  0.00    -0.219 N 
ATOM      3  N   UNL     1      33.530 -22.881 -15.854  0.00  0.00    -0.171 NA
ATOM      4  C   UNL     1      32.837 -22.421 -16.847  0.00  0.00    +0.083 A 
ATOM      5  C   UNL     1      33.432 -21.712 -17.993  0.00  0.00    +0.020 A 
ATOM      6  C   UNL     1      34.811 -21.543 -17.983  0.00  0.00    +0.059 A 
ATOM      7  C   UNL     1      35.595 -22.067 -16.850  0.00  0.00    +0.276 A 
ATOM      8  C   UNL     1      32.673 -21.220 -19.058  0.00  0.00    +0.001 C 
ATOM      9  C   UNL     1      35.445 -20.878 -19.039  0.00  0.00    +0.005 C 
ATOM     10  C   UNL     1      33.305 -20.557 -20.112  0.00  0.00    +0.000 C 
ATOM     11  C   UNL     1      34.688 -20.386 -20.102  0.00  0.00    +0.000 C 
ENDROOT
BRANCH   2  12
ATOM     12  C   UNL     1      35.552 -23.268 -14.680  0.00  0.00    +0.108 C 
BRANCH  12  13
ATOM     13  C   UNL     1      35.603 -24.787 -14.796  0.00  0.00    -0.051 C 
BRANCH  13  14
ATOM     14  N   UNL     1      36.984 -25.243 -14.894  0.00  0.00    +0.385 N 
ATOM     15  C   UNL     1      37.171 -26.487 -14.145  0.00  0.00    -0.101 C 
ATOM     16  C   UNL     1      37.903 -24.213 -14.407  0.00  0.00    -0.101 C 
ATOM     17  H   UNL     1      37.190 -25.422 -15.878  0.00  0.00    -0.080 HD
ENDBRANCH  13  14
ENDBRANCH  12  13
ENDBRANCH   2  12
BRANCH   4  18
ATOM     18  C   UNL     1      31.342 -22.635 -16.808  0.00  0.00    +0.074 C 
BRANCH  18  19
ATOM     19  C   UNL     1      30.921 -23.156 -15.471  0.00  0.00    -0.016 C 
ATOM     20  C   UNL     1      30.268 -24.383 -15.380  0.00  0.00    -0.004 C 
ATOM     21  C   UNL     1      31.183 -22.413 -14.323  0.00  0.00    -0.004 C 
ATOM     22  C   UNL     1      29.875 -24.870 -14.133  0.00  0.00    -0.000 C 
ATOM     23  C   UNL     1      30.790 -22.900 -13.076  0.00  0.00    -0.000 C 
ATOM     24  C   UNL     1      30.136 -24.128 -12.981  0.00  0.00    -0.000 C 
ENDBRANCH  18  19
ENDBRANCH   4  18
TORSDOF 5
ENDMDL
MODEL 3
REMARK VINA RESULT:     -10.5      2.067      5.961
REMARK  Name = 65624
REMARK  5 active torsions:
REMARK  status: ('A' for Active; 'I' for Inactive)
REMARK    1  A    between atoms: N_2  and  C_12
REMARK    2  A    between atoms: C_4  and  C_18
REMARK    3  A    between atoms: C_12  and  C_13
REMARK    4  A    between atoms: C_13  and  N_14
REMARK    5  A    between atoms: C_18  and  C_19
REMARK                            x       y       z     vdW  Elec       q    Type
REMARK                         _______ _______ _______ _____ _____    ______ ____
ROOT
ATOM      1  O   UNL     1      32.236 -22.034 -19.077  0.00  0.00    -0.266 OA
ATOM      2  N   UNL     1      34.384 -21.966 -18.201  0.00  0.00    -0.219 N 
ATOM      3  N   UNL     1      35.226 -22.065 -17.133  0.00  0.00    -0.171 NA
ATOM      4  C   UNL     1      34.742 -22.317 -15.958  0.00  0.00    +0.083 A 
ATOM      5  C   UNL     1      33.305 -22.507 -15.697  0.00  0.00    +0.020 A 
ATOM      6  C   UNL     1      32.447 -22.408 -16.786  0.00  0.00    +0.059 A 
ATOM      7  C   UNL     1      33.004 -22.121 -18.120  0.00  0.00    +0.276 A 
ATOM      8  C   UNL     1      32.794 -22.778 -14.425  0.00  0.00    +0.001 C 
ATOM      9  C   UNL     1      31.068 -22.578 -16.613  0.00  0.00    +0.005 C 
ATOM     10  C   UNL     1      31.419 -22.947 -14.251  0.00  0.00    +0.000 C 
ATOM     11  C   UNL     1      30.559 -22.847 -15.343  0.00  0.00    +0.000 C 
ENDROOT
BRANCH   2  12
ATOM     12  C   UNL     1      35.042 -21.679 -19.465  0.00  0.00    +0.108 C 
BRANCH  12  13
ATOM     13  C   UNL     1      35.928 -20.450 -19.313  0.00  0.00    -0.051 C 
BRANCH  13  14
ATOM     14  N   UNL     1      35.381 -19.333 -20.075  0.00  0.00    +0.385 N 
ATOM     15  C   UNL     1      34.264 -19.777 -20.911  0.00  0.00    -0.101 C 
ATOM     16  C   UNL     1      36.420 -18.715 -20.901  0.00  0.00    -0.101 C 
ATOM     17  H   UNL     1      35.036 -18.637 -19.414  0.00  0.00    -0.080 HD
ENDBRANCH  13  14
ENDBRANCH  12  13
ENDBRANCH   2  12
BRANCH   4  18
ATOM     18  C   UNL     1      35.719 -22.416 -14.811  0.00  0.00    +0.074 C 
BRANCH  18  19
ATOM     19  C   UNL     1      36.330 -23.781 -14.758  0.00  0.00    -0.016 C 
ATOM     20  C   UNL     1      35.526 -24.907 -14.919  0.00  0.00    -0.004 C 
ATOM     21  C   UNL     1      37.699 -23.919 -14.548  0.00  0.00    -0.004 C 
ATOM     22  C   UNL     1      36.095 -26.179 -14.870  0.00  0.00    -0.000 C 
ATOM     23  C   UNL     1      38.268 -25.192 -14.499  0.00  0.00    -0.000 C 
ATOM     24  C   UNL     1      37.467 -26.322 -14.660  0.00  0.00    -0.000 C 
ENDBRANCH  18  19
ENDBRANCH   4  18
TORSDOF 5
ENDMDL
MODEL 4
REMARK VINA RESULT:     -10.4      1.930      6.386
REMARK  Name = 65624
REMARK  5 active torsions:
REMARK  status: ('A' for Active; 'I' for Inactive)
REMARK    1  A    between atoms: N_2  and  C_12
REMARK    2  A    between atoms: C_4  and  C_18
REMARK    3  A    between atoms: C_12  and  C_13
REMARK    4  A    between atoms: C_13  and  N_14
REMARK    5  A    between atoms: C_18  and  C_19
REMARK                            x       y       z     vdW  Elec       q    Type
REMARK                         _______ _______ _______ _____ _____    ______ ____
ROOT
ATOM      1  O   UNL     1      31.694 -22.970 -17.085  0.00  0.00    -0.266 OA
ATOM      2  N   UNL     1      33.226 -23.176 -15.354  0.00  0.00    -0.219 N 
ATOM      3  N   UNL     1      34.484 -22.985 -14.863  0.00  0.00    -0.171 NA
ATOM      4  C   UNL     1      35.383 -22.425 -15.610  0.00  0.00    +0.083 A 
ATOM      5  C   UNL     1      35.126 -21.972 -16.987  0.00  0.00    +0.020 A 
ATOM      6  C   UNL     1      33.843 -22.165 -17.486  0.00  0.00    +0.059 A 
ATOM      7  C   UNL     1      32.825 -22.803 -16.633  0.00  0.00    +0.276 A 
ATOM      8  C   UNL     1      36.105 -21.370 -17.783  0.00  0.00    +0.001 C 
ATOM      9  C   UNL     1      33.528 -21.759 -18.788  0.00  0.00    +0.005 C 
ATOM     10  C   UNL     1      35.790 -20.964 -19.081  0.00  0.00    +0.000 C 
ATOM     11  C   UNL     1      34.504 -21.159 -19.582  0.00  0.00    +0.000 C 
ENDROOT
BRANCH   2  12
ATOM     12  C   UNL     1      32.306 -23.813 -14.427  0.00  0.00    +0.108 C 
BRANCH  12  13
ATOM     13  C   UNL     1      31.467 -22.750 -13.728  0.00  0.00    -0.051 C 
BRANCH  13  14
ATOM     14  N   UNL     1      30.064 -23.146 -13.704  0.00  0.00    +0.385 N 
ATOM     15  C   UNL     1      29.928 -24.580 -13.966  0.00  0.00    -0.101 C 
ATOM     16  C   UNL     1      29.294 -22.375 -14.681  0.00  0.00    -0.101 C 
ATOM     17  H   UNL     1      29.695 -22.950 -12.773  0.00  0.00    -0.080 HD
ENDBRANCH  13  14
ENDBRANCH  12  13
ENDBRANCH   2  12
BRANCH   4  18
ATOM     18  C   UNL     1      36.759 -22.238 -15.016  0.00  0.00    +0.074 C 
BRANCH  18  19
ATOM     19  C   UNL     1      37.067 -23.335 -14.046  0.00  0.00    -0.016 C 
ATOM     20  C   UNL     1      37.428 -24.595 -14.518  0.00  0.00    -0.004 C 
ATOM     21  C   UNL     1      36.989 -23.091 -12.678  0.00  0.00    -0.004 C 
ATOM     22  C   UNL     1      37.714 -25.618 -13.614  0.00  0.00    -0.000 C 
ATOM     23  C   UNL     1      37.276 -24.116 -11.774  0.00  0.00    -0.000 C 
ATOM     24  C   UNL     1      37.638 -25.378 -12.242  0.00  0.00    -0.000 C 
ENDBRANCH  18  19
ENDBRANCH   4  18
TORSDOF 5
ENDMDL
MODEL 5
REMARK VINA RESULT:     -10.2      1.688      5.390
REMARK  Name = 65624
REMARK  5 active torsions:
REMARK  status: ('A' for Active; 'I' for Inactive)
REMARK    1  A    between atoms: N_2  and  C_12
REMARK    2  A    between atoms: C_4  and  C_18
REMARK    3  A    between atoms: C_12  and  C_13
REMARK    4  A    between atoms: C_13  and  N_14
REMARK    5  A    between atoms: C_18  and  C_19
REMARK                            x       y       z     vdW  Elec       q    Type
REMARK                         _______ _______ _______ _____ _____    ______ ____
ROOT
ATOM      1  O   UNL     1      35.833 -25.300 -11.875  0.00  0.00    -0.266 OA
ATOM      2  N   UNL     1      35.171 -23.532 -13.225  0.00  0.00    -0.219 N 
ATOM      3  N   UNL     1      35.439 -22.651 -14.231  0.00  0.00    -0.171 NA
ATOM      4  C   UNL     1      36.588 -22.693 -14.827  0.00  0.00    +0.083 A 
ATOM      5  C   UNL     1      37.648 -23.654 -14.480  0.00  0.00    +0.020 A 
ATOM      6  C   UNL     1      37.374 -24.553 -13.456  0.00  0.00    +0.059 A 
ATOM      7  C   UNL     1      36.065 -24.501 -12.780  0.00  0.00    +0.276 A 
ATOM      8  C   UNL     1      38.884 -23.689 -15.131  0.00  0.00    +0.001 C 
ATOM      9  C   UNL     1      38.335 -25.496 -13.072  0.00  0.00    +0.005 C 
ATOM     10  C   UNL     1      39.843 -24.629 -14.748  0.00  0.00    +0.000 C 
ATOM     11  C   UNL     1      39.569 -25.530 -13.721  0.00  0.00    +0.000 C 
ENDROOT
BRANCH   2  12
ATOM     12  C   UNL     1      33.852 -23.389 -12.631  0.00  0.00    +0.108 C 
BRANCH  12  13
ATOM     13  C   UNL     1      32.798 -23.917 -13.596  0.00  0.00    -0.051 C 
BRANCH  13  14
ATOM     14  N   UNL     1      31.500 -23.316 -13.308  0.00  0.00    +0.385 N 
ATOM     15  C   UNL     1      30.490 -24.352 -13.086  0.00  0.00    -0.101 C 
ATOM     16  C   UNL     1      31.089 -22.431 -14.399  0.00  0.00    -0.101 C 
ATOM     17  H   UNL     1      31.589 -22.761 -12.456  0.00  0.00    -0.080 HD
ENDBRANCH  13  14
ENDBRANCH  12  13
ENDBRANCH   2  12
BRANCH   4  18
ATOM     18  C   UNL     1      36.832 -21.695 -15.934  0.00  0.00    +0.074 C 
BRANCH  18  19
ATOM     19  C   UNL     1      35.746 -21.772 -16.960  0.00  0.00    -0.016 C 
ATOM     20  C   UNL     1      34.531 -22.373 -16.639  0.00  0.00    -0.004 C 
ATOM     21  C   UNL     1      35.955 -21.245 -18.232  0.00  0.00    -0.004 C 
ATOM     22  C   UNL     1      33.519 -22.446 -17.595  0.00  0.00    -0.000 C 
ATOM     23  C   UNL     1      34.942 -21.319 -19.188  0.00  0.00    -0.000 C 
ATOM     24  C   UNL     1      33.724 -21.919 -18.870  0.00  0.00    -0.000 C 
ENDBRANCH  18  19
ENDBRANCH   4  18
TORSDOF 5
ENDMDL
MODEL 6
REMARK VINA RESULT:      -9.3      2.076      5.077
REMARK  Name = 65624
REMARK  5 active torsions:
REMARK  status: ('A' for Active; 'I' for Inactive)
REMARK    1  A    between atoms: N_2  and  C_12
REMARK    2  A    between atoms: C_4  and  C_18
REMARK    3  A    between atoms: C_12  and  C_13
REMARK    4  A    between atoms: C_13  and  N_14
REMARK    5  A    between atoms: C_18  and  C_19
REMARK                            x       y       z     vdW  Elec       q    Type
REMARK                         _______ _______ _______ _____ _____    ______ ____
ROOT
ATOM      1  O   UNL     1      31.926 -22.569 -12.913  0.00  0.00    -0.266 OA
ATOM      2  N   UNL     1      31.402 -22.865 -15.154  0.00  0.00    -0.219 N 
ATOM      3  N   UNL     1      31.801 -23.072 -16.441  0.00  0.00    -0.171 NA
ATOM      4  C   UNL     1      33.064 -23.176 -16.710  0.00  0.00    +0.083 A 
ATOM      5  C   UNL     1      34.121 -23.081 -15.689  0.00  0.00    +0.020 A 
ATOM      6  C   UNL     1      33.714 -22.872 -14.376  0.00  0.00    +0.059 A 
ATOM      7  C   UNL     1      32.276 -22.755 -14.077  0.00  0.00    +0.276 A 
ATOM      8  C   UNL     1      35.481 -23.194 -15.992  0.00  0.00    +0.001 C 
ATOM      9  C   UNL     1      34.664 -22.772 -13.354  0.00  0.00    +0.005 C 
ATOM     10  C   UNL     1      36.429 -23.094 -14.971  0.00  0.00    +0.000 C 
ATOM     11  C   UNL     1      36.021 -22.883 -13.656  0.00  0.00    +0.000 C 
ENDROOT
BRANCH   2  12
ATOM     12  C   UNL     1      29.963 -22.765 -14.976  0.00  0.00    +0.108 C 
BRANCH  12  13
ATOM     13  C   UNL     1      29.353 -22.020 -16.156  0.00  0.00    -0.051 C 
BRANCH  13  14
ATOM     14  N   UNL     1      28.259 -22.792 -16.733  0.00  0.00    +0.385 N 
ATOM     15  C   UNL     1      26.999 -22.053 -16.636  0.00  0.00    -0.101 C 
ATOM     16  C   UNL     1      28.138 -24.091 -16.069  0.00  0.00    -0.101 C 
ATOM     17  H   UNL     1      28.468 -22.951 -17.719  0.00  0.00    -0.080 HD
ENDBRANCH  13  14
ENDBRANCH  12  13
ENDBRANCH   2  12
BRANCH   4  18
ATOM     18  C   UNL     1      33.450 -23.404 -18.152  0.00  0.00    +0.074 C 
BRANCH  18  19
ATOM     19  C   UNL     1      33.550 -22.102 -18.882  0.00  0.00    -0.016 C 
ATOM     20  C   UNL     1      34.802 -21.595 -19.226  0.00  0.00    -0.004 C 
ATOM     21  C   UNL     1      32.393 -21.403 -19.212  0.00  0.00    -0.004 C 
ATOM     22  C   UNL     1      34.895 -20.381 -19.905  0.00  0.00    -0.000 C 
ATOM     23  C   UNL     1      32.488 -20.188 -19.893  0.00  0.00    -0.000 C 
ATOM     24  C   UNL     1      33.738 -19.677 -20.239  0.00  0.00    -0.000 C 
ENDBRANCH  18  19
ENDBRANCH   4  18
TORSDOF 5
ENDMDL
MODEL 7
REMARK VINA RESULT:      -9.1      1.913      5.932
REMARK  Name = 65624
REMARK  5 active torsions:
REMARK  status: ('A' for Active; 'I' for Inactive)
REMARK    1  A    between atoms: N_2  and  C_12
REMARK    2  A    between atoms: C_4  and  C_18
REMARK    3  A    between atoms: C_12  and  C_13
REMARK    4  A    between atoms: C_13  and  N_14
REMARK    5  A    between atoms: C_18  and  C_19
REMARK                            x       y       z     vdW  Elec       q    Type
REMARK                         _______ _______ _______ _____ _____    ______ ____
ROOT
ATOM      1  O   UNL     1      31.938 -22.688 -17.632  0.00  0.00    -0.266 OA
ATOM      2  N   UNL     1      34.199 -22.170 -17.593  0.00  0.00    -0.219 N 
ATOM      3  N   UNL     1      35.372 -22.052 -16.906  0.00  0.00    -0.171 NA
ATOM      4  C   UNL     1      35.401 -22.330 -15.641  0.00  0.00    +0.083 A 
ATOM      5  C   UNL     1      34.220 -22.775 -14.881  0.00  0.00    +0.020 A 
ATOM      6  C   UNL     1      33.027 -22.896 -15.583  0.00  0.00    +0.059 A 
ATOM      7  C   UNL     1      32.999 -22.578 -17.021  0.00  0.00    +0.276 A 
ATOM      8  C   UNL     1      34.265 -23.071 -13.516  0.00  0.00    +0.001 C 
ATOM      9  C   UNL     1      31.864 -23.314 -14.924  0.00  0.00    +0.005 C 
ATOM     10  C   UNL     1      33.105 -23.488 -12.859  0.00  0.00    +0.000 C 
ATOM     11  C   UNL     1      31.908 -23.609 -13.562  0.00  0.00    +0.000 C 
ENDROOT
BRANCH   2  12
ATOM     12  C   UNL     1      34.290 -21.830 -19.004  0.00  0.00    +0.108 C 
BRANCH  12  13
ATOM     13  C   UNL     1      35.492 -20.924 -19.236  0.00  0.00    -0.051 C 
BRANCH  13  14
ATOM     14  N   UNL     1      35.323 -20.161 -20.467  0.00  0.00    +0.385 N 
ATOM     15  C   UNL     1      36.250 -19.028 -20.502  0.00  0.00    -0.101 C 
ATOM     16  C   UNL     1      33.943 -19.693 -20.598  0.00  0.00    -0.101 C 
ATOM     17  H   UNL     1      35.533 -20.777 -21.253  0.00  0.00    -0.080 HD
ENDBRANCH  13  14
ENDBRANCH  12  13
ENDBRANCH   2  12
BRANCH   4  18
ATOM     18  C   UNL     1      36.724 -22.184 -14.929  0.00  0.00    +0.074 C 
BRANCH  18  19
ATOM     19  C   UNL     1      37.426 -23.502 -14.848  0.00  0.00    -0.016 C 
ATOM     20  C   UNL     1      36.692 -24.666 -14.631  0.00  0.00    -0.004 C 
ATOM     21  C   UNL     1      38.810 -23.560 -14.990  0.00  0.00    -0.004 C 
ATOM     22  C   UNL     1      37.346 -25.895 -14.556  0.00  0.00    -0.000 C 
ATOM     23  C   UNL     1      39.464 -24.791 -14.915  0.00  0.00    -0.000 C 
ATOM     24  C   UNL     1      38.733 -25.958 -14.698  0.00  0.00    -0.000 C 
ENDBRANCH  18  19
ENDBRANCH   4  18
TORSDOF 5
ENDMDL
MODEL 8
REMARK VINA RESULT:      -9.0      1.805      5.677
REMARK  Name = 65624
REMARK  5 active torsions:
REMARK  status: ('A' for Active; 'I' for Inactive)
REMARK    1  A    between atoms: N_2  and  C_12
REMARK    2  A    between atoms: C_4  and  C_18
REMARK    3  A    between atoms: C_12  and  C_13
REMARK    4  A    between atoms: C_13  and  N_14
REMARK    5  A    between atoms: C_18  and  C_19
REMARK                            x       y       z     vdW  Elec       q    Type
REMARK                         _______ _______ _______ _____ _____    ______ ____
ROOT
ATOM      1  O   UNL     1      31.656 -22.155 -17.771  0.00  0.00    -0.266 OA
ATOM      2  N   UNL     1      33.627 -22.466 -16.586  0.00  0.00    -0.219 N 
ATOM      3  N   UNL     1      34.275 -22.898 -15.467  0.00  0.00    -0.171 NA
ATOM      4  C   UNL     1      33.594 -23.413 -14.493  0.00  0.00    +0.083 A 
ATOM      5  C   UNL     1      32.129 -23.566 -14.520  0.00  0.00    +0.020 A 
ATOM      6  C   UNL     1      31.469 -23.127 -15.662  0.00  0.00    +0.059 A 
ATOM      7  C   UNL     1      32.250 -22.541 -16.766  0.00  0.00    +0.276 A 
ATOM      8  C   UNL     1      31.405 -24.123 -13.462  0.00  0.00    +0.001 C 
ATOM      9  C   UNL     1      30.078 -23.240 -15.757  0.00  0.00    +0.005 C 
ATOM     10  C   UNL     1      30.016 -24.236 -13.557  0.00  0.00    +0.000 C 
ATOM     11  C   UNL     1      29.355 -23.796 -14.701  0.00  0.00    +0.000 C 
ENDROOT
BRANCH   2  12
ATOM     12  C   UNL     1      34.495 -21.906 -17.608  0.00  0.00    +0.108 C 
BRANCH  12  13
ATOM     13  C   UNL     1      33.923 -22.209 -18.987  0.00  0.00    -0.051 C 
BRANCH  13  14
ATOM     14  N   UNL     1      34.370 -21.212 -19.953  0.00  0.00    +0.385 N 
ATOM     15  C   UNL     1      35.648 -20.630 -19.540  0.00  0.00    -0.101 C 
ATOM     16  C   UNL     1      33.362 -20.162 -20.114  0.00  0.00    -0.101 C 
ATOM     17  H   UNL     1      34.500 -21.677 -20.852  0.00  0.00    -0.080 HD
ENDBRANCH  13  14
ENDBRANCH  12  13
ENDBRANCH   2  12
BRANCH   4  18
ATOM     18  C   UNL     1      34.361 -23.875 -13.277  0.00  0.00    +0.074 C 
BRANCH  18  19
ATOM     19  C   UNL     1      35.684 -24.447 -13.677  0.00  0.00    -0.016 C 
ATOM     20  C   UNL     1      35.734 -25.608 -14.445  0.00  0.00    -0.004 C 
ATOM     21  C   UNL     1      36.860 -23.816 -13.280  0.00  0.00    -0.004 C 
ATOM     22  C   UNL     1      36.967 -26.141 -14.818  0.00  0.00    -0.000 C 
ATOM     23  C   UNL     1      38.094 -24.350 -13.653  0.00  0.00    -0.000 C 
ATOM     24  C   UNL     1      38.148 -25.512 -14.422  0.00  0.00    -0.000 C 
ENDBRANCH  18  19
ENDBRANCH   4  18
TORSDOF 5
ENDMDL
MODEL 9
REMARK VINA RESULT:      -8.9      5.967     10.177
REMARK  Name = 65624
REMARK  5 active torsions:
REMARK  status: ('A' for Active; 'I' for Inactive)
REMARK    1  A    between atoms: N_2  and  C_12
REMARK    2  A    between atoms: C_4  and  C_18
REMARK    3  A    between atoms: C_12  and  C_13
REMARK    4  A    between atoms: C_13  and  N_14
REMARK    5  A    between atoms: C_18  and  C_19
REMARK                            x       y       z     vdW  Elec       q    Type
REMARK                         _______ _______ _______ _____ _____    ______ ____
ROOT
ATOM      1  O   UNL     1      33.069 -14.965 -23.732  0.00  0.00    -0.266 OA
ATOM      2  N   UNL     1      34.263 -15.500 -21.815  0.00  0.00    -0.219 N 
ATOM      3  N   UNL     1      34.940 -16.415 -21.063  0.00  0.00    -0.171 NA
ATOM      4  C   UNL     1      35.064 -17.630 -21.495  0.00  0.00    +0.083 A 
ATOM      5  C   UNL     1      34.507 -18.096 -22.776  0.00  0.00    +0.020 A 
ATOM      6  C   UNL     1      33.819 -17.163 -23.543  0.00  0.00    +0.059 A 
ATOM      7  C   UNL     1      33.680 -15.782 -23.047  0.00  0.00    +0.276 A 
ATOM      8  C   UNL     1      34.647 -19.411 -23.230  0.00  0.00    +0.001 C 
ATOM      9  C   UNL     1      33.263 -17.536 -24.772  0.00  0.00    +0.005 C 
ATOM     10  C   UNL     1      34.092 -19.783 -24.457  0.00  0.00    +0.000 C 
ATOM     11  C   UNL     1      33.401 -18.848 -25.225  0.00  0.00    +0.000 C 
ENDROOT
BRANCH   2  12
ATOM     12  C   UNL     1      34.189 -14.172 -21.229  0.00  0.00    +0.108 C 
BRANCH  12  13
ATOM     13  C   UNL     1      32.768 -13.905 -20.748  0.00  0.00    -0.051 C 
BRANCH  13  14
ATOM     14  N   UNL     1      32.169 -12.819 -21.515  0.00  0.00    +0.385 N 
ATOM     15  C   UNL     1      33.170 -12.176 -22.368  0.00  0.00    -0.101 C 
ATOM     16  C   UNL     1      31.554 -11.835 -20.622  0.00  0.00    -0.101 C 
ATOM     17  H   UNL     1      31.441 -13.215 -22.110  0.00  0.00    -0.080 HD
ENDBRANCH  13  14
ENDBRANCH  12  13
ENDBRANCH   2  12
BRANCH   4  18
ATOM     18  C   UNL     1      35.822 -18.602 -20.623  0.00  0.00    +0.074 C 
BRANCH  18  19
ATOM     19  C   UNL     1      34.912 -19.677 -20.121  0.00  0.00    -0.016 C 
ATOM     20  C   UNL     1      33.534 -19.550 -20.284  0.00  0.00    -0.004 C 
ATOM     21  C   UNL     1      35.445 -20.799 -19.492  0.00  0.00    -0.004 C 
ATOM     22  C   UNL     1      32.685 -20.552 -19.815  0.00  0.00    -0.000 C 
ATOM     23  C   UNL     1      34.595 -21.801 -19.023  0.00  0.00    -0.000 C 
ATOM     24  C   UNL     1      33.215 -21.679 -19.185  0.00  0.00    -0.000 C 
ENDBRANCH  18  19
ENDBRANCH   4  18
TORSDOF 5
ENDMDL
