MODEL 1
REMARK VINA RESULT:     -10.5      0.000      0.000
REMARK  Name = 46937132
REMARK  4 active torsions:
REMARK  status: ('A' for Active; 'I' for Inactive)
REMARK    1  A    between atoms: N_2  and  C_9
REMARK    2  A    between atoms: N_2  and  O_29
REMARK    3  A    between atoms: C_5  and  C_17
REMARK    4  A    between atoms: C_18  and  C_24
REMARK                            x       y       z     vdW  Elec       q    Type
REMARK                         _______ _______ _______ _____ _____    ______ ____
ROOT
ATOM      1  N   UNL     1      36.937 -22.615 -12.314  0.00  0.00    -0.333 NA
ATOM      2  N   UNL     1      39.007 -23.809 -12.580  0.00  0.00    -0.333 NA
ATOM      3  N   UNL     1      38.862 -21.962 -11.146  0.00  0.00    -0.283 N 
ATOM      4  C   UNL     1      34.498 -23.730 -14.865  0.00  0.00    +0.035 C 
ATOM      5  C   UNL     1      34.893 -23.225 -13.469  0.00  0.00    +0.065 C 
ATOM      6  C   UNL     1      34.884 -25.206 -15.003  0.00  0.00    +0.053 C 
ATOM      7  C   UNL     1      36.355 -23.459 -13.197  0.00  0.00    +0.126 C 
ATOM      8  C   UNL     1      36.365 -25.418 -14.750  0.00  0.00    +0.090 C 
ATOM      9  C   UNL     1      37.047 -24.508 -13.796  0.00  0.00    +0.068 C 
ATOM     10  C   UNL     1      38.381 -24.632 -13.448  0.00  0.00    +0.126 C 
ATOM     11  C   UNL     1      38.238 -22.840 -12.058  0.00  0.00    +0.195 C 
ATOM     12  C   UNL     1      39.271 -25.705 -13.989  0.00  0.00    +0.068 C 
ATOM     13  H   UNL     1      38.345 -21.232 -10.733  0.00  0.00    +0.156 HD
ATOM     14  H   UNL     1      39.814 -22.080 -10.922  0.00  0.00    +0.156 HD
ENDROOT
BRANCH   4  16
ATOM     15  F   UNL     1      29.002 -22.913 -15.864  0.00  0.00    -0.204 F 
ATOM     16  C   UNL     1      33.029 -23.495 -15.157  0.00  0.00    -0.022 C 
ATOM     17  C   UNL     1      32.613 -22.805 -16.296  0.00  0.00    -0.000 C 
ATOM     18  C   UNL     1      32.084 -23.987 -14.256  0.00  0.00    -0.002 C 
ATOM     19  C   UNL     1      31.252 -22.609 -16.534  0.00  0.00    +0.029 C 
ATOM     20  C   UNL     1      30.724 -23.791 -14.494  0.00  0.00    +0.029 C 
ATOM     21  C   UNL     1      30.308 -23.101 -15.634  0.00  0.00    +0.140 C 
BRANCH  17  23
ATOM     22  N   UNL     1      35.840 -21.585 -17.719  0.00  0.00    -0.242 NA
ATOM     23  C   UNL     1      33.574 -22.283 -17.246  0.00  0.00    +0.019 C 
ATOM     24  C   UNL     1      33.201 -21.980 -18.551  0.00  0.00    +0.003 C 
ATOM     25  C   UNL     1      34.894 -22.069 -16.883  0.00  0.00    +0.099 C 
ATOM     26  C   UNL     1      34.146 -21.481 -19.441  0.00  0.00    +0.021 C 
ATOM     27  C   UNL     1      35.440 -21.303 -18.979  0.00  0.00    +0.099 C 
ENDBRANCH  17  23
ENDBRANCH   4  16
BRANCH   8  28
ATOM     28  N   UNL     1      36.942 -26.401 -15.361  0.00  0.00    -0.139 NA
BRANCH  28  29
ATOM     29  O   UNL     1      36.033 -26.944 -16.268  0.00  0.00    -0.266 OA
ATOM     30  H   UNL     1      35.619 -27.763 -16.083  0.00  0.00    +0.247 HD
ENDBRANCH  28  29
ENDBRANCH   8  28
TORSDOF 4
ENDMDL
MODEL 2
REMARK VINA RESULT:     -10.5      3.789      6.626
REMARK  Name = 46937132
REMARK  4 active torsions:
REMARK  status: ('A' for Active; 'I' for Inactive)
REMARK    1  A    between atoms: N_2  and  C_9
REMARK    2  A    between atoms: N_2  and  O_29
REMARK    3  A    between atoms: C_5  and  C_17
REMARK    4  A    between atoms: C_18  and  C_24
REMARK                            x       y       z     vdW  Elec       q    Type
REMARK                         _______ _______ _______ _____ _____    ______ ____
ROOT
ATOM      1  N   UNL     1      36.179 -20.438 -18.769  0.00  0.00    -0.333 NA
ATOM      2  N   UNL     1      34.421 -19.796 -20.279  0.00  0.00    -0.333 NA
ATOM      3  N   UNL     1      36.574 -18.893 -20.488  0.00  0.00    -0.283 N 
ATOM      4  C   UNL     1      34.775 -22.381 -15.950  0.00  0.00    +0.035 C 
ATOM      5  C   UNL     1      35.868 -22.037 -16.972  0.00  0.00    +0.065 C 
ATOM      6  C   UNL     1      33.631 -23.119 -16.652  0.00  0.00    +0.053 C 
ATOM      7  C   UNL     1      35.308 -21.251 -18.126  0.00  0.00    +0.126 C 
ATOM      8  C   UNL     1      33.064 -22.299 -17.797  0.00  0.00    +0.090 C 
ATOM      9  C   UNL     1      33.982 -21.387 -18.523  0.00  0.00    +0.068 C 
ATOM     10  C   UNL     1      33.592 -20.626 -19.612  0.00  0.00    +0.126 C 
ATOM     11  C   UNL     1      35.680 -19.752 -19.813  0.00  0.00    +0.195 C 
ATOM     12  C   UNL     1      32.208 -20.655 -20.177  0.00  0.00    +0.068 C 
ATOM     13  H   UNL     1      37.509 -18.822 -20.188  0.00  0.00    +0.156 HD
ATOM     14  H   UNL     1      36.262 -18.366 -21.259  0.00  0.00    +0.156 HD
ENDROOT
BRANCH   4  16
ATOM     15  F   UNL     1      36.923 -25.304 -11.623  0.00  0.00    -0.204 F 
ATOM     16  C   UNL     1      35.325 -23.169 -14.776  0.00  0.00    -0.022 C 
ATOM     17  C   UNL     1      34.488 -23.687 -13.789  0.00  0.00    -0.000 C 
ATOM     18  C   UNL     1      36.704 -23.371 -14.697  0.00  0.00    -0.002 C 
ATOM     19  C   UNL     1      35.028 -24.409 -12.724  0.00  0.00    +0.029 C 
ATOM     20  C   UNL     1      37.244 -24.091 -13.633  0.00  0.00    +0.029 C 
ATOM     21  C   UNL     1      36.405 -24.610 -12.645  0.00  0.00    +0.140 C 
BRANCH  17  23
ATOM     22  N   UNL     1      31.181 -21.964 -13.957  0.00  0.00    -0.242 NA
ATOM     23  C   UNL     1      33.053 -23.491 -13.847  0.00  0.00    +0.019 C 
ATOM     24  C   UNL     1      32.180 -24.573 -13.849  0.00  0.00    +0.003 C 
ATOM     25  C   UNL     1      32.508 -22.219 -13.902  0.00  0.00    +0.099 C 
ATOM     26  C   UNL     1      30.808 -24.353 -13.906  0.00  0.00    +0.021 C 
ATOM     27  C   UNL     1      30.364 -23.042 -13.957  0.00  0.00    +0.099 C 
ENDBRANCH  17  23
ENDBRANCH   4  16
BRANCH   8  28
ATOM     28  N   UNL     1      31.815 -22.466 -18.090  0.00  0.00    -0.139 NA
BRANCH  28  29
ATOM     29  O   UNL     1      31.050 -21.992 -17.026  0.00  0.00    -0.266 OA
ATOM     30  H   UNL     1      30.140 -21.805 -17.150  0.00  0.00    +0.247 HD
ENDBRANCH  28  29
ENDBRANCH   8  28
TORSDOF 4
ENDMDL
MODEL 3
REMARK VINA RESULT:     -10.2      2.562      4.295
REMARK  Name = 46937132
REMARK  4 active torsions:
REMARK  status: ('A' for Active; 'I' for Inactive)
REMARK    1  A    between atoms: N_2  and  C_9
REMARK    2  A    between atoms: N_2  and  O_29
REMARK    3  A    between atoms: C_5  and  C_17
REMARK    4  A    between atoms: C_18  and  C_24
REMARK                            x       y       z     vdW  Elec       q    Type
REMARK                         _______ _______ _______ _____ _____    ______ ____
ROOT
ATOM      1  N   UNL     1      37.635 -24.533 -14.512  0.00  0.00    -0.333 NA
ATOM      2  N   UNL     1      37.535 -25.195 -12.202  0.00  0.00    -0.333 NA
ATOM      3  N   UNL     1      39.376 -25.764 -13.535  0.00  0.00    -0.283 N 
ATOM      4  C   UNL     1      34.356 -23.196 -15.586  0.00  0.00    +0.035 C 
ATOM      5  C   UNL     1      35.890 -23.248 -15.603  0.00  0.00    +0.065 C 
ATOM      6  C   UNL     1      33.880 -22.530 -14.292  0.00  0.00    +0.053 C 
ATOM      7  C   UNL     1      36.426 -23.939 -14.378  0.00  0.00    +0.126 C 
ATOM      8  C   UNL     1      34.410 -23.256 -13.068  0.00  0.00    +0.090 C 
ATOM      9  C   UNL     1      35.728 -23.929 -13.174  0.00  0.00    +0.068 C 
ATOM     10  C   UNL     1      36.336 -24.581 -12.114  0.00  0.00    +0.126 C 
ATOM     11  C   UNL     1      38.120 -25.132 -13.409  0.00  0.00    +0.195 C 
ATOM     12  C   UNL     1      35.731 -24.661 -10.749  0.00  0.00    +0.068 C 
ATOM     13  H   UNL     1      39.850 -25.749 -14.398  0.00  0.00    +0.156 HD
ATOM     14  H   UNL     1      39.778 -26.218 -12.760  0.00  0.00    +0.156 HD
ENDROOT
BRANCH   4  16
ATOM     15  F   UNL     1      32.388 -20.614 -20.206  0.00  0.00    -0.204 F 
ATOM     16  C   UNL     1      33.800 -22.508 -16.818  0.00  0.00    -0.022 C 
ATOM     17  C   UNL     1      32.426 -22.362 -17.015  0.00  0.00    -0.000 C 
ATOM     18  C   UNL     1      34.696 -22.015 -17.767  0.00  0.00    -0.002 C 
ATOM     19  C   UNL     1      31.950 -21.722 -18.159  0.00  0.00    +0.029 C 
ATOM     20  C   UNL     1      34.220 -21.376 -18.911  0.00  0.00    +0.029 C 
ATOM     21  C   UNL     1      32.846 -21.230 -19.107  0.00  0.00    +0.140 C 
BRANCH  17  23
ATOM     22  N   UNL     1      30.748 -24.673 -14.612  0.00  0.00    -0.242 NA
ATOM     23  C   UNL     1      31.475 -22.866 -16.045  0.00  0.00    +0.019 C 
ATOM     24  C   UNL     1      30.407 -22.086 -15.615  0.00  0.00    +0.003 C 
ATOM     25  C   UNL     1      31.599 -24.141 -15.518  0.00  0.00    +0.099 C 
ATOM     26  C   UNL     1      29.510 -22.596 -14.683  0.00  0.00    +0.021 C 
ATOM     27  C   UNL     1      29.723 -23.884 -14.217  0.00  0.00    +0.099 C 
ENDBRANCH  17  23
ENDBRANCH   4  16
BRANCH   8  28
ATOM     28  N   UNL     1      33.691 -23.219 -11.993  0.00  0.00    -0.139 NA
BRANCH  28  29
ATOM     29  O   UNL     1      32.398 -22.836 -12.346  0.00  0.00    -0.266 OA
ATOM     30  H   UNL     1      32.259 -22.049 -12.835  0.00  0.00    +0.247 HD
ENDBRANCH  28  29
ENDBRANCH   8  28
TORSDOF 4
ENDMDL
MODEL 4
REMARK VINA RESULT:      -9.1     16.600     19.665
REMARK  Name = 46937132
REMARK  4 active torsions:
REMARK  status: ('A' for Active; 'I' for Inactive)
REMARK    1  A    between atoms: N_2  and  C_9
REMARK    2  A    between atoms: N_2  and  O_29
REMARK    3  A    between atoms: C_5  and  C_17
REMARK    4  A    between atoms: C_18  and  C_24
REMARK                            x       y       z     vdW  Elec       q    Type
REMARK                         _______ _______ _______ _____ _____    ______ ____
ROOT
ATOM      1  N   UNL     1      32.006 -10.200 -22.811  0.00  0.00    -0.333 NA
ATOM      2  N   UNL     1      31.089 -10.654 -20.635  0.00  0.00    -0.333 NA
ATOM      3  N   UNL     1      31.197 -12.333 -22.266  0.00  0.00    -0.283 N 
ATOM      4  C   UNL     1      32.507  -6.558 -23.237  0.00  0.00    +0.035 C 
ATOM      5  C   UNL     1      32.878  -8.031 -23.459  0.00  0.00    +0.065 C 
ATOM      6  C   UNL     1      32.868  -6.150 -21.805  0.00  0.00    +0.053 C 
ATOM      7  C   UNL     1      32.228  -8.920 -22.433  0.00  0.00    +0.126 C 
ATOM      8  C   UNL     1      32.183  -7.041 -20.785  0.00  0.00    +0.090 C 
ATOM      9  C   UNL     1      31.912  -8.451 -21.161  0.00  0.00    +0.068 C 
ATOM     10  C   UNL     1      31.337  -9.370 -20.300  0.00  0.00    +0.126 C 
ATOM     11  C   UNL     1      31.443 -10.996 -21.884  0.00  0.00    +0.195 C 
ATOM     12  C   UNL     1      30.943  -9.040 -18.896  0.00  0.00    +0.068 C 
ATOM     13  H   UNL     1      31.437 -12.638 -23.171  0.00  0.00    +0.156 HD
ATOM     14  H   UNL     1      30.786 -12.959 -21.628  0.00  0.00    +0.156 HD
ENDROOT
BRANCH   4  16
ATOM     15  F   UNL     1      34.967  -3.260 -27.102  0.00  0.00    -0.204 F 
ATOM     16  C   UNL     1      33.149  -5.651 -24.267  0.00  0.00    -0.022 C 
ATOM     17  C   UNL     1      32.751  -4.322 -24.419  0.00  0.00    -0.000 C 
ATOM     18  C   UNL     1      34.161  -6.171 -25.075  0.00  0.00    -0.002 C 
ATOM     19  C   UNL     1      33.366  -3.515 -25.376  0.00  0.00    +0.029 C 
ATOM     20  C   UNL     1      34.775  -5.365 -26.033  0.00  0.00    +0.029 C 
ATOM     21  C   UNL     1      34.376  -4.036 -26.183  0.00  0.00    +0.140 C 
BRANCH  17  23
ATOM     22  N   UNL     1      29.621  -4.066 -22.402  0.00  0.00    -0.242 NA
ATOM     23  C   UNL     1      31.702  -3.758 -23.594  0.00  0.00    +0.019 C 
ATOM     24  C   UNL     1      31.738  -2.424 -23.201  0.00  0.00    +0.003 C 
ATOM     25  C   UNL     1      30.632  -4.529 -23.172  0.00  0.00    +0.099 C 
ATOM     26  C   UNL     1      30.717  -1.910 -22.409  0.00  0.00    +0.021 C 
ATOM     27  C   UNL     1      29.690  -2.765 -22.040  0.00  0.00    +0.099 C 
ENDBRANCH  17  23
ENDBRANCH   4  16
BRANCH   8  28
ATOM     28  N   UNL     1      31.902  -6.525 -19.633  0.00  0.00    -0.139 NA
BRANCH  28  29
ATOM     29  O   UNL     1      33.080  -6.027 -19.079  0.00  0.00    -0.266 OA
ATOM     30  H   UNL     1      33.147  -5.903 -18.153  0.00  0.00    +0.247 HD
ENDBRANCH  28  29
ENDBRANCH   8  28
TORSDOF 4
ENDMDL
MODEL 5
REMARK VINA RESULT:      -8.9      3.475      7.312
REMARK  Name = 46937132
REMARK  4 active torsions:
REMARK  status: ('A' for Active; 'I' for Inactive)
REMARK    1  A    between atoms: N_2  and  C_9
REMARK    2  A    between atoms: N_2  and  O_29
REMARK    3  A    between atoms: C_5  and  C_17
REMARK    4  A    between atoms: C_18  and  C_24
REMARK                            x       y       z     vdW  Elec       q    Type
REMARK                         _______ _______ _______ _____ _____    ______ ____
ROOT
ATOM      1  N   UNL     1      33.563 -22.492 -17.476  0.00  0.00    -0.333 NA
ATOM      2  N   UNL     1      31.298 -22.059 -16.794  0.00  0.00    -0.333 NA
ATOM      3  N   UNL     1      32.020 -21.535 -18.960  0.00  0.00    -0.283 N 
ATOM      4  C   UNL     1      35.616 -23.401 -14.534  0.00  0.00    +0.035 C 
ATOM      5  C   UNL     1      35.222 -23.492 -16.015  0.00  0.00    +0.065 C 
ATOM      6  C   UNL     1      34.583 -24.146 -13.683  0.00  0.00    +0.053 C 
ATOM      7  C   UNL     1      33.824 -22.980 -16.240  0.00  0.00    +0.126 C 
ATOM      8  C   UNL     1      33.184 -23.599 -13.906  0.00  0.00    +0.090 C 
ATOM      9  C   UNL     1      32.857 -23.045 -15.243  0.00  0.00    +0.068 C 
ATOM     10  C   UNL     1      31.603 -22.563 -15.579  0.00  0.00    +0.126 C 
ATOM     11  C   UNL     1      32.307 -22.055 -17.680  0.00  0.00    +0.195 C 
ATOM     12  C   UNL     1      30.445 -22.564 -14.633  0.00  0.00    +0.068 C 
ATOM     13  H   UNL     1      32.724 -21.507 -19.649  0.00  0.00    +0.156 HD
ATOM     14  H   UNL     1      31.118 -21.200 -19.165  0.00  0.00    +0.156 HD
ENDROOT
BRANCH   4  16
ATOM     15  F   UNL     1      40.877 -25.286 -13.737  0.00  0.00    -0.204 F 
ATOM     16  C   UNL     1      37.024 -23.907 -14.291  0.00  0.00    -0.022 C 
ATOM     17  C   UNL     1      37.493 -24.171 -13.004  0.00  0.00    -0.000 C 
ATOM     18  C   UNL     1      37.859 -24.108 -15.391  0.00  0.00    -0.002 C 
ATOM     19  C   UNL     1      38.795 -24.637 -12.817  0.00  0.00    +0.029 C 
ATOM     20  C   UNL     1      39.160 -24.573 -15.205  0.00  0.00    +0.029 C 
ATOM     21  C   UNL     1      39.628 -24.838 -13.917  0.00  0.00    +0.140 C 
BRANCH  17  23
ATOM     22  N   UNL     1      35.129 -24.901 -10.210  0.00  0.00    -0.242 NA
ATOM     23  C   UNL     1      36.647 -23.969 -11.845  0.00  0.00    +0.019 C 
ATOM     24  C   UNL     1      36.523 -22.715 -11.256  0.00  0.00    +0.003 C 
ATOM     25  C   UNL     1      35.935 -25.019 -11.288  0.00  0.00    +0.099 C 
ATOM     26  C   UNL     1      35.704 -22.552 -10.144  0.00  0.00    +0.021 C 
ATOM     27  C   UNL     1      35.034 -23.667  -9.665  0.00  0.00    +0.099 C 
ENDBRANCH  17  23
ENDBRANCH   4  16
BRANCH   8  28
ATOM     28  N   UNL     1      32.348 -23.676 -12.921  0.00  0.00    -0.139 NA
BRANCH  28  29
ATOM     29  O   UNL     1      31.940 -25.003 -12.798  0.00  0.00    -0.266 OA
ATOM     30  H   UNL     1      32.370 -25.571 -12.189  0.00  0.00    +0.247 HD
ENDBRANCH  28  29
ENDBRANCH   8  28
TORSDOF 4
ENDMDL
MODEL 6
REMARK VINA RESULT:      -8.8      3.903      7.128
REMARK  Name = 46937132
REMARK  4 active torsions:
REMARK  status: ('A' for Active; 'I' for Inactive)
REMARK    1  A    between atoms: N_2  and  C_9
REMARK    2  A    between atoms: N_2  and  O_29
REMARK    3  A    between atoms: C_5  and  C_17
REMARK    4  A    between atoms: C_18  and  C_24
REMARK                            x       y       z     vdW  Elec       q    Type
REMARK                         _______ _______ _______ _____ _____    ______ ____
ROOT
ATOM      1  N   UNL     1      28.480 -21.918 -16.600  0.00  0.00    -0.333 NA
ATOM      2  N   UNL     1      27.425 -23.240 -14.890  0.00  0.00    -0.333 NA
ATOM      3  N   UNL     1      26.212 -21.624 -16.079  0.00  0.00    -0.283 N 
ATOM      4  C   UNL     1      32.146 -22.413 -16.497  0.00  0.00    +0.035 C 
ATOM      5  C   UNL     1      30.814 -22.162 -17.217  0.00  0.00    +0.065 C 
ATOM      6  C   UNL     1      32.225 -23.879 -16.062  0.00  0.00    +0.053 C 
ATOM      7  C   UNL     1      29.645 -22.564 -16.358  0.00  0.00    +0.126 C 
ATOM      8  C   UNL     1      31.051 -24.258 -15.177  0.00  0.00    +0.090 C 
ATOM      9  C   UNL     1      29.757 -23.568 -15.401  0.00  0.00    +0.068 C 
ATOM     10  C   UNL     1      28.606 -23.862 -14.691  0.00  0.00    +0.126 C 
ATOM     11  C   UNL     1      27.432 -22.295 -15.845  0.00  0.00    +0.195 C 
ATOM     12  C   UNL     1      28.545 -24.917 -13.633  0.00  0.00    +0.068 C 
ATOM     13  H   UNL     1      26.161 -20.922 -16.767  0.00  0.00    +0.156 HD
ATOM     14  H   UNL     1      25.413 -21.859 -15.554  0.00  0.00    +0.156 HD
ENDROOT
BRANCH   4  16
ATOM     15  F   UNL     1      36.501 -20.866 -19.740  0.00  0.00    -0.204 F 
ATOM     16  C   UNL     1      33.334 -22.006 -17.347  0.00  0.00    -0.022 C 
ATOM     17  C   UNL     1      34.645 -22.211 -16.915  0.00  0.00    -0.000 C 
ATOM     18  C   UNL     1      33.094 -21.414 -18.587  0.00  0.00    -0.002 C 
ATOM     19  C   UNL     1      35.714 -21.826 -17.724  0.00  0.00    +0.029 C 
ATOM     20  C   UNL     1      34.163 -21.028 -19.395  0.00  0.00    +0.029 C 
ATOM     21  C   UNL     1      35.474 -21.235 -18.963  0.00  0.00    +0.140 C 
BRANCH  17  23
ATOM     22  N   UNL     1      35.286 -24.832 -14.336  0.00  0.00    -0.242 NA
ATOM     23  C   UNL     1      34.921 -22.823 -15.630  0.00  0.00    +0.019 C 
ATOM     24  C   UNL     1      35.083 -22.048 -14.487  0.00  0.00    +0.003 C 
ATOM     25  C   UNL     1      35.031 -24.198 -15.503  0.00  0.00    +0.099 C 
ATOM     26  C   UNL     1      35.348 -22.664 -13.268  0.00  0.00    +0.021 C 
ATOM     27  C   UNL     1      35.438 -24.046 -13.247  0.00  0.00    +0.099 C 
ENDBRANCH  17  23
ENDBRANCH   4  16
BRANCH   8  28
ATOM     28  N   UNL     1      31.243 -25.186 -14.296  0.00  0.00    -0.139 NA
BRANCH  28  29
ATOM     29  O   UNL     1      32.197 -24.732 -13.385  0.00  0.00    -0.266 OA
ATOM     30  H   UNL     1      31.944 -24.162 -12.687  0.00  0.00    +0.247 HD
ENDBRANCH  28  29
ENDBRANCH   8  28
TORSDOF 4
ENDMDL
MODEL 7
REMARK VINA RESULT:      -8.8      3.225      6.456
REMARK  Name = 46937132
REMARK  4 active torsions:
REMARK  status: ('A' for Active; 'I' for Inactive)
REMARK    1  A    between atoms: N_2  and  C_9
REMARK    2  A    between atoms: N_2  and  O_29
REMARK    3  A    between atoms: C_5  and  C_17
REMARK    4  A    between atoms: C_18  and  C_24
REMARK                            x       y       z     vdW  Elec       q    Type
REMARK                         _______ _______ _______ _____ _____    ______ ____
ROOT
ATOM      1  N   UNL     1      33.094 -22.569 -17.425  0.00  0.00    -0.333 NA
ATOM      2  N   UNL     1      34.227 -21.575 -19.298  0.00  0.00    -0.333 NA
ATOM      3  N   UNL     1      32.045 -22.401 -19.515  0.00  0.00    -0.283 N 
ATOM      4  C   UNL     1      35.476 -23.099 -14.643  0.00  0.00    +0.035 C 
ATOM      5  C   UNL     1      34.093 -22.774 -15.223  0.00  0.00    +0.065 C 
ATOM      6  C   UNL     1      36.405 -21.896 -14.828  0.00  0.00    +0.053 C 
ATOM      7  C   UNL     1      34.191 -22.348 -16.664  0.00  0.00    +0.126 C 
ATOM      8  C   UNL     1      36.511 -21.498 -16.289  0.00  0.00    +0.090 C 
ATOM      9  C   UNL     1      35.334 -21.731 -17.163  0.00  0.00    +0.068 C 
ATOM     10  C   UNL     1      35.294 -21.367 -18.498  0.00  0.00    +0.126 C 
ATOM     11  C   UNL     1      33.178 -22.169 -18.706  0.00  0.00    +0.195 C 
ATOM     12  C   UNL     1      36.430 -20.687 -19.194  0.00  0.00    +0.068 C 
ATOM     13  H   UNL     1      31.247 -22.834 -19.133  0.00  0.00    +0.156 HD
ATOM     14  H   UNL     1      32.052 -22.129 -20.461  0.00  0.00    +0.156 HD
ENDROOT
BRANCH   4  16
ATOM     15  F   UNL     1      35.076 -24.669  -9.234  0.00  0.00    -0.204 F 
ATOM     16  C   UNL     1      35.393 -23.536 -13.193  0.00  0.00    -0.022 C 
ATOM     17  C   UNL     1      36.379 -24.337 -12.615  0.00  0.00    -0.000 C 
ATOM     18  C   UNL     1      34.299 -23.120 -12.434  0.00  0.00    -0.002 C 
ATOM     19  C   UNL     1      36.271 -24.719 -11.277  0.00  0.00    +0.029 C 
ATOM     20  C   UNL     1      34.191 -23.503 -11.097  0.00  0.00    +0.029 C 
ATOM     21  C   UNL     1      35.178 -24.302 -10.519  0.00  0.00    +0.140 C 
BRANCH  17  23
ATOM     22  N   UNL     1      38.509 -26.430 -14.854  0.00  0.00    -0.242 NA
ATOM     23  C   UNL     1      37.524 -24.783 -13.382  0.00  0.00    +0.019 C 
ATOM     24  C   UNL     1      38.705 -24.048 -13.403  0.00  0.00    +0.003 C 
ATOM     25  C   UNL     1      37.478 -25.956 -14.118  0.00  0.00    +0.099 C 
ATOM     26  C   UNL     1      39.787 -24.502 -14.148  0.00  0.00    +0.021 C 
ATOM     27  C   UNL     1      39.639 -25.688 -14.849  0.00  0.00    +0.099 C 
ENDBRANCH  17  23
ENDBRANCH   4  16
BRANCH   8  28
ATOM     28  N   UNL     1      37.615 -20.950 -16.681  0.00  0.00    -0.139 NA
BRANCH  28  29
ATOM     29  O   UNL     1      37.452 -19.566 -16.646  0.00  0.00    -0.266 OA
ATOM     30  H   UNL     1      36.648 -19.196 -16.338  0.00  0.00    +0.247 HD
ENDBRANCH  28  29
ENDBRANCH   8  28
TORSDOF 4
ENDMDL
MODEL 8
REMARK VINA RESULT:      -8.5      2.343      6.094
REMARK  Name = 46937132
REMARK  4 active torsions:
REMARK  status: ('A' for Active; 'I' for Inactive)
REMARK    1  A    between atoms: N_2  and  C_9
REMARK    2  A    between atoms: N_2  and  O_29
REMARK    3  A    between atoms: C_5  and  C_17
REMARK    4  A    between atoms: C_18  and  C_24
REMARK                            x       y       z     vdW  Elec       q    Type
REMARK                         _______ _______ _______ _____ _____    ______ ____
ROOT
ATOM      1  N   UNL     1      31.928 -20.856 -19.391  0.00  0.00    -0.333 NA
ATOM      2  N   UNL     1      33.943 -20.304 -20.582  0.00  0.00    -0.333 NA
ATOM      3  N   UNL     1      31.838 -19.855 -21.509  0.00  0.00    -0.283 N 
ATOM      4  C   UNL     1      32.734 -22.951 -16.448  0.00  0.00    +0.035 C 
ATOM      5  C   UNL     1      31.924 -21.879 -17.191  0.00  0.00    +0.065 C 
ATOM      6  C   UNL     1      34.100 -22.379 -16.055  0.00  0.00    +0.053 C 
ATOM      7  C   UNL     1      32.680 -21.347 -18.378  0.00  0.00    +0.126 C 
ATOM      8  C   UNL     1      34.857 -21.871 -17.268  0.00  0.00    +0.090 C 
ATOM      9  C   UNL     1      34.072 -21.332 -18.406  0.00  0.00    +0.068 C 
ATOM     10  C   UNL     1      34.651 -20.797 -19.544  0.00  0.00    +0.126 C 
ATOM     11  C   UNL     1      32.608 -20.363 -20.441  0.00  0.00    +0.195 C 
ATOM     12  C   UNL     1      36.130 -20.695 -19.738  0.00  0.00    +0.068 C 
ATOM     13  H   UNL     1      30.854 -19.873 -21.459  0.00  0.00    +0.156 HD
ATOM     14  H   UNL     1      32.284 -19.482 -22.304  0.00  0.00    +0.156 HD
ENDROOT
BRANCH   4  16
ATOM     15  F   UNL     1      29.840 -24.969 -12.041  0.00  0.00    -0.204 F 
ATOM     16  C   UNL     1      31.982 -23.502 -15.253  0.00  0.00    -0.022 C 
ATOM     17  C   UNL     1      32.650 -24.092 -14.179  0.00  0.00    -0.000 C 
ATOM     18  C   UNL     1      30.590 -23.410 -15.241  0.00  0.00    -0.002 C 
ATOM     19  C   UNL     1      31.926 -24.587 -13.094  0.00  0.00    +0.029 C 
ATOM     20  C   UNL     1      29.866 -23.906 -14.158  0.00  0.00    +0.029 C 
ATOM     21  C   UNL     1      30.535 -24.494 -13.083  0.00  0.00    +0.140 C 
BRANCH  17  23
ATOM     22  N   UNL     1      36.092 -25.269 -15.013  0.00  0.00    -0.242 NA
ATOM     23  C   UNL     1      34.095 -24.201 -14.167  0.00  0.00    +0.019 C 
ATOM     24  C   UNL     1      34.868 -23.392 -13.342  0.00  0.00    +0.003 C 
ATOM     25  C   UNL     1      34.749 -25.115 -14.976  0.00  0.00    +0.099 C 
ATOM     26  C   UNL     1      36.253 -23.519 -13.351  0.00  0.00    +0.021 C 
ATOM     27  C   UNL     1      36.810 -24.465 -14.197  0.00  0.00    +0.099 C 
ENDBRANCH  17  23
ENDBRANCH   4  16
BRANCH   8  28
ATOM     28  N   UNL     1      36.150 -21.911 -17.226  0.00  0.00    -0.139 NA
BRANCH  28  29
ATOM     29  O   UNL     1      36.571 -21.216 -16.093  0.00  0.00    -0.266 OA
ATOM     30  H   UNL     1      37.483 -21.168 -15.885  0.00  0.00    +0.247 HD
ENDBRANCH  28  29
ENDBRANCH   8  28
TORSDOF 4
ENDMDL
MODEL 9
REMARK VINA RESULT:      -7.8     15.585     18.790
REMARK  Name = 46937132
REMARK  4 active torsions:
REMARK  status: ('A' for Active; 'I' for Inactive)
REMARK    1  A    between atoms: N_2  and  C_9
REMARK    2  A    between atoms: N_2  and  O_29
REMARK    3  A    between atoms: C_5  and  C_17
REMARK    4  A    between atoms: C_18  and  C_24
REMARK                            x       y       z     vdW  Elec       q    Type
REMARK                         _______ _______ _______ _____ _____    ______ ____
ROOT
ATOM      1  N   UNL     1      32.951 -11.233 -23.867  0.00  0.00    -0.333 NA
ATOM      2  N   UNL     1      31.795 -12.292 -22.043  0.00  0.00    -0.333 NA
ATOM      3  N   UNL     1      32.553 -13.544 -23.873  0.00  0.00    -0.283 N 
ATOM      4  C   UNL     1      32.699  -7.553 -23.556  0.00  0.00    +0.035 C 
ATOM      5  C   UNL     1      33.420  -8.853 -23.940  0.00  0.00    +0.065 C 
ATOM      6  C   UNL     1      32.708  -7.394 -22.032  0.00  0.00    +0.053 C 
ATOM      7  C   UNL     1      32.815 -10.041 -23.240  0.00  0.00    +0.126 C 
ATOM      8  C   UNL     1      32.072  -8.589 -21.346  0.00  0.00    +0.090 C 
ATOM      9  C   UNL     1      32.188  -9.914 -22.004  0.00  0.00    +0.068 C 
ATOM     10  C   UNL     1      31.692 -11.082 -21.452  0.00  0.00    +0.126 C 
ATOM     11  C   UNL     1      32.427 -12.294 -23.228  0.00  0.00    +0.195 C 
ATOM     12  C   UNL     1      30.997 -11.131 -20.129  0.00  0.00    +0.068 C 
ATOM     13  H   UNL     1      33.007 -13.603 -24.746  0.00  0.00    +0.156 HD
ATOM     14  H   UNL     1      32.187 -14.354 -23.452  0.00  0.00    +0.156 HD
ENDROOT
BRANCH   4  16
ATOM     15  F   UNL     1      34.977  -3.132 -26.226  0.00  0.00    -0.204 F 
ATOM     16  C   UNL     1      33.293  -6.348 -24.258  0.00  0.00    -0.022 C 
ATOM     17  C   UNL     1      32.878  -5.051 -23.958  0.00  0.00    -0.000 C 
ATOM     18  C   UNL     1      34.276  -6.559 -25.225  0.00  0.00    -0.002 C 
ATOM     19  C   UNL     1      33.448  -3.964 -24.622  0.00  0.00    +0.029 C 
ATOM     20  C   UNL     1      34.845  -5.473 -25.891  0.00  0.00    +0.029 C 
ATOM     21  C   UNL     1      34.430  -4.175 -25.589  0.00  0.00    +0.140 C 
BRANCH  17  23
ATOM     22  N   UNL     1      29.524  -4.450 -22.433  0.00  0.00    -0.242 NA
ATOM     23  C   UNL     1      31.858  -4.805 -22.958  0.00  0.00    +0.019 C 
ATOM     24  C   UNL     1      32.186  -4.687 -21.612  0.00  0.00    +0.003 C 
ATOM     25  C   UNL     1      30.525  -4.679 -23.313  0.00  0.00    +0.099 C 
ATOM     26  C   UNL     1      31.186  -4.451 -20.675  0.00  0.00    +0.021 C 
ATOM     27  C   UNL     1      29.882  -4.341 -21.134  0.00  0.00    +0.099 C 
ENDBRANCH  17  23
ENDBRANCH   4  16
BRANCH   8  28
ATOM     28  N   UNL     1      31.488  -8.385 -20.210  0.00  0.00    -0.139 NA
BRANCH  28  29
ATOM     29  O   UNL     1      32.363  -7.672 -19.392  0.00  0.00    -0.266 OA
ATOM     30  H   UNL     1      32.400  -6.737 -19.447  0.00  0.00    +0.247 HD
ENDBRANCH  28  29
ENDBRANCH   8  28
TORSDOF 4
ENDMDL
