MODEL 1
REMARK VINA RESULT:     -11.7      0.000      0.000
REMARK  Name = 18142
REMARK  5 active torsions:
REMARK  status: ('A' for Active; 'I' for Inactive)
REMARK    1  A    between atoms: C_5  and  C_19
REMARK    2  A    between atoms: C_5  and  O_21
REMARK    3  A    between atoms: C_18  and  O_25
REMARK    4  A    between atoms: O_21  and  C_23
REMARK    5  A    between atoms: O_25  and  C_26
REMARK                            x       y       z     vdW  Elec       q    Type
REMARK                         _______ _______ _______ _____ _____    ______ ____
ROOT
ATOM      1  C   UNL     1      35.910 -22.962 -14.791  0.00  0.00    +0.045 C 
ATOM      2  C   UNL     1      34.659 -23.332 -15.615  0.00  0.00    +0.005 C 
ATOM      3  C   UNL     1      34.274 -22.260 -16.638  0.00  0.00    +0.005 C 
ATOM      4  C   UNL     1      35.462 -22.019 -17.613  0.00  0.00    +0.004 C 
ATOM      5  C   UNL     1      35.957 -24.159 -13.795  0.00  0.00    +0.189 C 
ATOM      6  C   UNL     1      37.092 -22.816 -15.768  0.00  0.00    +0.004 C 
ATOM      7  C   UNL     1      33.633 -23.724 -14.555  0.00  0.00    +0.005 C 
ATOM      8  C   UNL     1      36.800 -21.783 -16.871  0.00  0.00    +0.000 C 
ATOM      9  C   UNL     1      34.464 -24.363 -13.424  0.00  0.00    +0.053 C 
ATOM     10  C   UNL     1      35.108 -20.848 -18.574  0.00  0.00    +0.023 C 
ATOM     11  C   UNL     1      33.014 -22.656 -17.423  0.00  0.00    +0.026 C 
ATOM     12  C   UNL     1      35.761 -21.632 -13.996  0.00  0.00    +0.004 C 
ATOM     13  C   UNL     1      33.712 -20.996 -19.172  0.00  0.00    -0.024 C 
ATOM     14  C   UNL     1      36.151 -20.689 -19.699  0.00  0.00    +0.012 C 
ATOM     15  C   UNL     1      32.787 -21.816 -18.642  0.00  0.00    -0.030 C 
ATOM     16  C   UNL     1      35.800 -19.528 -20.637  0.00  0.00    +0.064 C 
ATOM     17  C   UNL     1      33.414 -20.212 -20.358  0.00  0.00    +0.028 C 
ATOM     18  C   UNL     1      34.349 -19.520 -21.023  0.00  0.00    +0.116 C 
ENDROOT
BRANCH   5  19
ATOM     19  C   UNL     1      36.501 -25.402 -14.380  0.00  0.00    -0.040 C 
ATOM     20  C   UNL     1      36.943 -26.411 -14.854  0.00  0.00    -0.011 C 
ENDBRANCH   5  19
BRANCH   5  21
ATOM     21  O   UNL     1      36.700 -23.858 -12.621  0.00  0.00    -0.443 OA
BRANCH  21  23
ATOM     22  O   UNL     1      36.437 -25.734 -11.299  0.00  0.00    -0.250 OA
ATOM     23  C   UNL     1      36.326 -24.530 -11.490  0.00  0.00    +0.318 C 
ATOM     24  C   UNL     1      35.751 -23.571 -10.493  0.00  0.00    +0.121 C 
ENDBRANCH  21  23
ENDBRANCH   5  21
BRANCH  18  25
ATOM     25  O   UNL     1      34.010 -18.775 -22.134  0.00  0.00    -0.483 OA
BRANCH  25  26
ATOM     26  C   UNL     1      34.626 -17.503 -22.144  0.00  0.00    +0.165 C 
ATOM     27  C   UNL     1      34.038 -16.603 -21.070  0.00  0.00    +0.044 C 
ATOM     28  C   UNL     1      34.322 -16.737 -23.422  0.00  0.00    +0.044 C 
ATOM     29  C   UNL     1      34.398 -15.196 -21.530  0.00  0.00    +0.004 C 
ATOM     30  C   UNL     1      34.566 -15.279 -23.050  0.00  0.00    +0.004 C 
ENDBRANCH  25  26
ENDBRANCH  18  25
TORSDOF 5
ENDMDL
MODEL 2
REMARK VINA RESULT:      -9.5      5.844     13.584
REMARK  Name = 18142
REMARK  5 active torsions:
REMARK  status: ('A' for Active; 'I' for Inactive)
REMARK    1  A    between atoms: C_5  and  C_19
REMARK    2  A    between atoms: C_5  and  O_21
REMARK    3  A    between atoms: C_18  and  O_25
REMARK    4  A    between atoms: O_21  and  C_23
REMARK    5  A    between atoms: O_25  and  C_26
REMARK                            x       y       z     vdW  Elec       q    Type
REMARK                         _______ _______ _______ _____ _____    ______ ____
ROOT
ATOM      1  C   UNL     1      31.532  -9.829 -22.364  0.00  0.00    +0.045 C 
ATOM      2  C   UNL     1      32.287 -10.413 -21.150  0.00  0.00    +0.005 C 
ATOM      3  C   UNL     1      32.454 -11.933 -21.222  0.00  0.00    +0.005 C 
ATOM      4  C   UNL     1      33.222 -12.313 -22.519  0.00  0.00    +0.004 C 
ATOM      5  C   UNL     1      31.426  -8.334 -21.938  0.00  0.00    +0.189 C 
ATOM      6  C   UNL     1      32.357 -10.141 -23.627  0.00  0.00    +0.004 C 
ATOM      7  C   UNL     1      31.553  -9.819 -19.951  0.00  0.00    +0.005 C 
ATOM      8  C   UNL     1      32.621 -11.650 -23.781  0.00  0.00    +0.000 C 
ATOM      9  C   UNL     1      31.093  -8.425 -20.425  0.00  0.00    +0.053 C 
ATOM     10  C   UNL     1      33.285 -13.863 -22.643  0.00  0.00    +0.023 C 
ATOM     11  C   UNL     1      33.191 -12.477 -19.987  0.00  0.00    +0.026 C 
ATOM     12  C   UNL     1      30.103 -10.418 -22.551  0.00  0.00    +0.004 C 
ATOM     13  C   UNL     1      33.713 -14.528 -21.338  0.00  0.00    -0.024 C 
ATOM     14  C   UNL     1      34.208 -14.314 -23.793  0.00  0.00    +0.012 C 
ATOM     15  C   UNL     1      33.667 -13.888 -20.156  0.00  0.00    -0.030 C 
ATOM     16  C   UNL     1      34.258 -15.841 -23.914  0.00  0.00    +0.064 C 
ATOM     17  C   UNL     1      34.188 -15.899 -21.419  0.00  0.00    +0.028 C 
ATOM     18  C   UNL     1      34.419 -16.518 -22.584  0.00  0.00    +0.116 C 
ENDROOT
BRANCH   5  19
ATOM     19  C   UNL     1      32.674  -7.568 -22.130  0.00  0.00    -0.040 C 
ATOM     20  C   UNL     1      33.688  -6.945 -22.285  0.00  0.00    -0.011 C 
ENDBRANCH   5  19
BRANCH   5  21
ATOM     21  O   UNL     1      30.377  -7.652 -22.614  0.00  0.00    -0.443 OA
BRANCH  21  23
ATOM     22  O   UNL     1      30.413  -5.575 -21.604  0.00  0.00    -0.250 OA
ATOM     23  C   UNL     1      30.448  -6.287 -22.599  0.00  0.00    +0.318 C 
ATOM     24  C   UNL     1      30.578  -5.767 -23.999  0.00  0.00    +0.121 C 
ENDBRANCH  21  23
ENDBRANCH   5  21
BRANCH  18  25
ATOM     25  O   UNL     1      34.851 -17.829 -22.606  0.00  0.00    -0.483 OA
BRANCH  25  26
ATOM     26  C   UNL     1      34.856 -18.420 -21.323  0.00  0.00    +0.165 C 
ATOM     27  C   UNL     1      36.255 -18.868 -20.934  0.00  0.00    +0.044 C 
ATOM     28  C   UNL     1      34.071 -19.722 -21.297  0.00  0.00    +0.044 C 
ATOM     29  C   UNL     1      36.020 -19.900 -19.837  0.00  0.00    +0.004 C 
ATOM     30  C   UNL     1      34.617 -20.462 -20.081  0.00  0.00    +0.004 C 
ENDBRANCH  25  26
ENDBRANCH  18  25
TORSDOF 5
ENDMDL
MODEL 3
REMARK VINA RESULT:      -9.1      1.583      9.813
REMARK  Name = 18142
REMARK  5 active torsions:
REMARK  status: ('A' for Active; 'I' for Inactive)
REMARK    1  A    between atoms: C_5  and  C_19
REMARK    2  A    between atoms: C_5  and  O_21
REMARK    3  A    between atoms: C_18  and  O_25
REMARK    4  A    between atoms: O_21  and  C_23
REMARK    5  A    between atoms: O_25  and  C_26
REMARK                            x       y       z     vdW  Elec       q    Type
REMARK                         _______ _______ _______ _____ _____    ______ ____
ROOT
ATOM      1  C   UNL     1      33.914 -18.708 -21.456  0.00  0.00    +0.045 C 
ATOM      2  C   UNL     1      35.216 -19.414 -21.023  0.00  0.00    +0.005 C 
ATOM      3  C   UNL     1      35.158 -19.956 -19.592  0.00  0.00    +0.005 C 
ATOM      4  C   UNL     1      33.978 -20.960 -19.462  0.00  0.00    +0.004 C 
ATOM      5  C   UNL     1      34.332 -18.183 -22.863  0.00  0.00    +0.189 C 
ATOM      6  C   UNL     1      32.776 -19.745 -21.405  0.00  0.00    +0.004 C 
ATOM      7  C   UNL     1      36.307 -18.405 -21.373  0.00  0.00    +0.005 C 
ATOM      8  C   UNL     1      32.648 -20.387 -20.012  0.00  0.00    +0.000 C 
ATOM      9  C   UNL     1      35.783 -17.685 -22.633  0.00  0.00    +0.053 C 
ATOM     10  C   UNL     1      33.853 -21.416 -17.980  0.00  0.00    +0.023 C 
ATOM     11  C   UNL     1      36.479 -20.633 -19.193  0.00  0.00    +0.026 C 
ATOM     12  C   UNL     1      33.527 -17.505 -20.548  0.00  0.00    +0.004 C 
ATOM     13  C   UNL     1      35.199 -21.816 -17.386  0.00  0.00    -0.024 C 
ATOM     14  C   UNL     1      32.838 -22.565 -17.812  0.00  0.00    +0.012 C 
ATOM     15  C   UNL     1      36.368 -21.458 -17.947  0.00  0.00    -0.030 C 
ATOM     16  C   UNL     1      32.714 -23.004 -16.348  0.00  0.00    +0.064 C 
ATOM     17  C   UNL     1      35.176 -22.619 -16.174  0.00  0.00    +0.028 C 
ATOM     18  C   UNL     1      34.049 -23.146 -15.677  0.00  0.00    +0.116 C 
ENDROOT
BRANCH   5  19
ATOM     19  C   UNL     1      34.320 -19.220 -23.915  0.00  0.00    -0.040 C 
ATOM     20  C   UNL     1      34.311 -20.062 -24.770  0.00  0.00    -0.011 C 
ENDBRANCH   5  19
BRANCH   5  21
ATOM     21  O   UNL     1      33.522 -17.099 -23.298  0.00  0.00    -0.443 OA
BRANCH  21  23
ATOM     22  O   UNL     1      34.513 -16.074 -25.116  0.00  0.00    -0.250 OA
ATOM     23  C   UNL     1      34.178 -16.085 -23.938  0.00  0.00    +0.318 C 
ATOM     24  C   UNL     1      34.438 -14.960 -22.982  0.00  0.00    +0.121 C 
ENDBRANCH  21  23
ENDBRANCH   5  21
BRANCH  18  25
ATOM     25  O   UNL     1      34.078 -23.885 -14.511  0.00  0.00    -0.483 OA
BRANCH  25  26
ATOM     26  C   UNL     1      35.386 -24.285 -14.155  0.00  0.00    +0.165 C 
ATOM     27  C   UNL     1      35.693 -25.678 -14.680  0.00  0.00    +0.044 C 
ATOM     28  C   UNL     1      35.534 -24.457 -12.650  0.00  0.00    +0.044 C 
ATOM     29  C   UNL     1      36.853 -26.151 -13.813  0.00  0.00    +0.004 C 
ATOM     30  C   UNL     1      36.742 -25.374 -12.498  0.00  0.00    +0.004 C 
ENDBRANCH  25  26
ENDBRANCH  18  25
TORSDOF 5
ENDMDL
