MODEL 1
REMARK VINA RESULT:     -13.0      0.000      0.000
REMARK  Name = 97226
REMARK  3 active torsions:
REMARK  status: ('A' for Active; 'I' for Inactive)
REMARK    1  A    between atoms: C_6  and  O_24
REMARK    2  A    between atoms: C_6  and  C_28
REMARK    3  A    between atoms: C_22  and  O_26
REMARK                            x       y       z     vdW  Elec       q    Type
REMARK                         _______ _______ _______ _____ _____    ______ ____
ROOT
ATOM      1  O   UNL     1      35.462 -24.997 -13.753  0.00  0.00    -0.442 OA
ATOM      2  O   UNL     1      32.224 -23.650 -16.122  0.00  0.00    -0.270 OA
ATOM      3  O   UNL     1      37.696 -25.221 -13.687  0.00  0.00    -0.247 OA
ATOM      4  N   UNL     1      33.629 -22.304 -17.371  0.00  0.00    -0.249 N 
ATOM      5  N   UNL     1      35.815 -20.175 -19.276  0.00  0.00    -0.405 NA
ATOM      6  C   UNL     1      36.845 -23.206 -14.712  0.00  0.00    +0.196 C 
ATOM      7  C   UNL     1      35.704 -22.923 -15.650  0.00  0.00    +0.017 C 
ATOM      8  C   UNL     1      34.880 -21.748 -17.578  0.00  0.00    +0.084 C 
ATOM      9  C   UNL     1      34.495 -23.465 -15.418  0.00  0.00    +0.074 C 
ATOM     10  C   UNL     1      32.668 -21.846 -18.396  0.00  0.00    +0.128 C 
ATOM     11  C   UNL     1      35.908 -22.015 -16.769  0.00  0.00    +0.016 C 
ATOM     12  C   UNL     1      33.511 -20.945 -19.238  0.00  0.00    +0.029 C 
ATOM     13  C   UNL     1      34.810 -20.890 -18.752  0.00  0.00    +0.142 C 
ATOM     14  C   UNL     1      33.333 -23.161 -16.327  0.00  0.00    +0.252 C 
ATOM     15  C   UNL     1      34.264 -24.366 -14.254  0.00  0.00    +0.239 C 
ATOM     16  C   UNL     1      36.714 -24.561 -14.026  0.00  0.00    +0.346 C 
ATOM     17  C   UNL     1      33.198 -20.208 -20.356  0.00  0.00    +0.002 C 
ATOM     18  C   UNL     1      34.212 -19.438 -20.948  0.00  0.00    +0.029 C 
ATOM     19  C   UNL     1      35.514 -19.450 -20.373  0.00  0.00    +0.114 C 
ATOM     20  C   UNL     1      33.955 -18.665 -22.091  0.00  0.00    +0.038 C 
ATOM     21  C   UNL     1      36.502 -18.679 -20.978  0.00  0.00    +0.088 C 
ATOM     22  C   UNL     1      34.967 -17.905 -22.672  0.00  0.00    +0.130 C 
ATOM     23  C   UNL     1      36.239 -17.912 -22.116  0.00  0.00    +0.018 C 
ENDROOT
BRANCH   6  24
ATOM     24  O   UNL     1      38.066 -23.297 -15.452  0.00  0.00    -0.373 OA
ATOM     25  H   UNL     1      38.230 -24.222 -15.693  0.00  0.00    +0.211 HD
ENDBRANCH   6  24
BRANCH  22  26
ATOM     26  O   UNL     1      34.710 -17.159 -23.780  0.00  0.00    -0.506 OA
ATOM     27  H   UNL     1      33.826 -17.010 -24.051  0.00  0.00    +0.292 HD
ENDBRANCH  22  26
BRANCH   6  28
ATOM     28  C   UNL     1      36.989 -22.115 -13.649  0.00  0.00    +0.042 C 
ATOM     29  C   UNL     1      36.804 -22.677 -12.255  0.00  0.00    +0.003 C 
ENDBRANCH   6  28
TORSDOF 3
ENDMDL
MODEL 2
REMARK VINA RESULT:     -10.3      2.306      4.413
REMARK  Name = 97226
REMARK  3 active torsions:
REMARK  status: ('A' for Active; 'I' for Inactive)
REMARK    1  A    between atoms: C_6  and  O_24
REMARK    2  A    between atoms: C_6  and  C_28
REMARK    3  A    between atoms: C_22  and  O_26
REMARK                            x       y       z     vdW  Elec       q    Type
REMARK                         _______ _______ _______ _____ _____    ______ ____
ROOT
ATOM      1  O   UNL     1      31.502 -24.462 -12.539  0.00  0.00    -0.442 OA
ATOM      2  O   UNL     1      35.334 -23.973 -14.268  0.00  0.00    -0.270 OA
ATOM      3  O   UNL     1      29.411 -23.645 -12.494  0.00  0.00    -0.247 OA
ATOM      4  N   UNL     1      34.440 -22.793 -16.045  0.00  0.00    -0.249 N 
ATOM      5  N   UNL     1      33.033 -21.002 -18.830  0.00  0.00    -0.405 NA
ATOM      6  C   UNL     1      30.506 -23.685 -14.646  0.00  0.00    +0.196 C 
ATOM      7  C   UNL     1      31.901 -23.362 -15.106  0.00  0.00    +0.017 C 
ATOM      8  C   UNL     1      33.333 -22.336 -16.741  0.00  0.00    +0.084 C 
ATOM      9  C   UNL     1      32.958 -23.830 -14.420  0.00  0.00    +0.074 C 
ATOM     10  C   UNL     1      35.693 -22.383 -16.712  0.00  0.00    +0.128 C 
ATOM     11  C   UNL     1      32.090 -22.591 -16.326  0.00  0.00    +0.016 C 
ATOM     12  C   UNL     1      35.187 -21.624 -17.894  0.00  0.00    +0.029 C 
ATOM     13  C   UNL     1      33.800 -21.600 -17.907  0.00  0.00    +0.142 C 
ATOM     14  C   UNL     1      34.362 -23.547 -14.888  0.00  0.00    +0.252 C 
ATOM     15  C   UNL     1      32.777 -24.652 -13.190  0.00  0.00    +0.239 C 
ATOM     16  C   UNL     1      30.424 -23.908 -13.141  0.00  0.00    +0.346 C 
ATOM     17  C   UNL     1      35.863 -20.987 -18.908  0.00  0.00    +0.002 C 
ATOM     18  C   UNL     1      35.112 -20.344 -19.904  0.00  0.00    +0.029 C 
ATOM     19  C   UNL     1      33.690 -20.376 -19.827  0.00  0.00    +0.114 C 
ATOM     20  C   UNL     1      35.743 -19.676 -20.966  0.00  0.00    +0.038 C 
ATOM     21  C   UNL     1      32.967 -19.731 -20.826  0.00  0.00    +0.088 C 
ATOM     22  C   UNL     1      34.989 -19.041 -21.949  0.00  0.00    +0.130 C 
ATOM     23  C   UNL     1      33.603 -19.069 -21.879  0.00  0.00    +0.018 C 
ENDROOT
BRANCH   6  24
ATOM     24  O   UNL     1      29.647 -22.567 -14.889  0.00  0.00    -0.373 OA
ATOM     25  H   UNL     1      30.136 -21.744 -14.731  0.00  0.00    +0.211 HD
ENDBRANCH   6  24
BRANCH  22  26
ATOM     26  O   UNL     1      35.608 -18.395 -22.974  0.00  0.00    -0.506 OA
ATOM     27  H   UNL     1      36.539 -18.288 -22.966  0.00  0.00    +0.292 HD
ENDBRANCH  22  26
BRANCH   6  28
ATOM     28  C   UNL     1      29.941 -24.910 -15.369  0.00  0.00    +0.042 C 
ATOM     29  C   UNL     1      28.496 -24.695 -15.769  0.00  0.00    +0.003 C 
ENDBRANCH   6  28
TORSDOF 3
ENDMDL
MODEL 3
REMARK VINA RESULT:     -10.1      3.921      6.142
REMARK  Name = 97226
REMARK  3 active torsions:
REMARK  status: ('A' for Active; 'I' for Inactive)
REMARK    1  A    between atoms: C_6  and  O_24
REMARK    2  A    between atoms: C_6  and  C_28
REMARK    3  A    between atoms: C_22  and  O_26
REMARK                            x       y       z     vdW  Elec       q    Type
REMARK                         _______ _______ _______ _____ _____    ______ ____
ROOT
ATOM      1  O   UNL     1      38.662 -23.917 -13.135  0.00  0.00    -0.442 OA
ATOM      2  O   UNL     1      36.849 -22.139 -16.520  0.00  0.00    -0.270 OA
ATOM      3  O   UNL     1      38.290 -24.627 -11.037  0.00  0.00    -0.247 OA
ATOM      4  N   UNL     1      34.747 -22.776 -15.796  0.00  0.00    -0.249 N 
ATOM      5  N   UNL     1      31.487 -23.815 -14.685  0.00  0.00    -0.405 NA
ATOM      6  C   UNL     1      36.529 -25.032 -12.639  0.00  0.00    +0.196 C 
ATOM      7  C   UNL     1      35.922 -24.210 -13.743  0.00  0.00    +0.017 C 
ATOM      8  C   UNL     1      33.951 -23.482 -14.909  0.00  0.00    +0.084 C 
ATOM      9  C   UNL     1      36.719 -23.545 -14.599  0.00  0.00    +0.074 C 
ATOM     10  C   UNL     1      33.926 -22.083 -16.811  0.00  0.00    +0.128 C 
ATOM     11  C   UNL     1      34.476 -24.191 -13.907  0.00  0.00    +0.016 C 
ATOM     12  C   UNL     1      32.540 -22.470 -16.413  0.00  0.00    +0.029 C 
ATOM     13  C   UNL     1      32.560 -23.293 -15.295  0.00  0.00    +0.142 C 
ATOM     14  C   UNL     1      36.128 -22.748 -15.733  0.00  0.00    +0.252 C 
ATOM     15  C   UNL     1      38.202 -23.588 -14.464  0.00  0.00    +0.239 C 
ATOM     16  C   UNL     1      37.885 -24.500 -12.192  0.00  0.00    +0.346 C 
ATOM     17  C   UNL     1      31.324 -22.146 -16.966  0.00  0.00    +0.002 C 
ATOM     18  C   UNL     1      30.164 -22.664 -16.369  0.00  0.00    +0.029 C 
ATOM     19  C   UNL     1      30.292 -23.500 -15.223  0.00  0.00    +0.114 C 
ATOM     20  C   UNL     1      28.892 -22.370 -16.886  0.00  0.00    +0.038 C 
ATOM     21  C   UNL     1      29.127 -24.002 -14.649  0.00  0.00    +0.088 C 
ATOM     22  C   UNL     1      27.748 -22.889 -16.287  0.00  0.00    +0.130 C 
ATOM     23  C   UNL     1      27.865 -23.704 -15.169  0.00  0.00    +0.018 C 
ENDROOT
BRANCH   6  24
ATOM     24  O   UNL     1      35.708 -24.949 -11.470  0.00  0.00    -0.373 OA
ATOM     25  H   UNL     1      36.131 -24.365 -10.820  0.00  0.00    +0.211 HD
ENDBRANCH   6  24
BRANCH  22  26
ATOM     26  O   UNL     1      26.520 -22.598 -16.793  0.00  0.00    -0.506 OA
ATOM     27  H   UNL     1      26.388 -21.806 -17.278  0.00  0.00    +0.292 HD
ENDBRANCH  22  26
BRANCH   6  28
ATOM     28  C   UNL     1      36.672 -26.502 -13.041  0.00  0.00    +0.042 C 
ATOM     29  C   UNL     1      36.739 -26.656 -14.547  0.00  0.00    +0.003 C 
ENDBRANCH   6  28
TORSDOF 3
ENDMDL
