MODEL 1
REMARK VINA RESULT:     -13.7      0.000      0.000
REMARK  Name = 11987860
REMARK  5 active torsions:
REMARK  status: ('A' for Active; 'I' for Inactive)
REMARK    1  A    between atoms: N_2  and  C_19
REMARK    2  A    between atoms: C_3  and  C_11
REMARK    3  A    between atoms: N_9  and  O_17
REMARK    4  A    between atoms: C_19  and  C_20
REMARK    5  A    between atoms: C_23  and  C_26
REMARK                            x       y       z     vdW  Elec       q    Type
REMARK                         _______ _______ _______ _____ _____    ______ ____
ROOT
ATOM      1  O   UNL     1      33.603 -22.470 -14.699  0.00  0.00    -0.272 OA
ATOM      2  N   UNL     1      34.154 -23.178 -16.847  0.00  0.00    -0.298 N 
ATOM      3  C   UNL     1      34.379 -22.993 -15.494  0.00  0.00    +0.253 C 
ATOM      4  H   UNL     1      34.856 -23.613 -17.384  0.00  0.00    +0.150 HD
ENDROOT
BRANCH   3  11
ATOM      5  O   UNL     1      35.432 -23.864 -12.805  0.00  0.00    -0.327 OA
ATOM      6  O   UNL     1      35.510 -24.938 -14.863  0.00  0.00    -0.320 OA
ATOM      7  O   UNL     1      40.260 -23.999 -13.896  0.00  0.00    -0.250 OA
ATOM      8  N   UNL     1      38.047 -24.594 -13.518  0.00  0.00    -0.255 N 
ATOM      9  N   UNL     1      39.713 -26.223 -13.826  0.00  0.00    -0.181 N 
ATOM     10  C   UNL     1      36.133 -22.996 -13.706  0.00  0.00    +0.174 C 
ATOM     11  C   UNL     1      35.704 -23.535 -15.061  0.00  0.00    +0.222 C 
ATOM     12  C   UNL     1      35.625 -25.129 -13.445  0.00  0.00    +0.256 C 
ATOM     13  C   UNL     1      37.628 -23.187 -13.432  0.00  0.00    +0.128 C 
ATOM     14  C   UNL     1      37.043 -25.607 -13.135  0.00  0.00    +0.156 C 
ATOM     15  C   UNL     1      39.405 -24.880 -13.755  0.00  0.00    +0.326 C 
ATOM     16  H   UNL     1      39.033 -26.925 -13.715  0.00  0.00    +0.184 HD
BRANCH   9  17
ATOM     17  O   UNL     1      41.064 -26.516 -14.068  0.00  0.00    -0.294 OA
ATOM     18  H   UNL     1      41.173 -26.802 -14.989  0.00  0.00    +0.241 HD
ENDBRANCH   9  17
ENDBRANCH   3  11
BRANCH   2  19
ATOM     19  C   UNL     1      32.938 -22.764 -17.509  0.00  0.00    +0.116 C 
BRANCH  19  20
ATOM     20  C   UNL     1      33.234 -21.720 -18.550  0.00  0.00    -0.003 C 
ATOM     21  C   UNL     1      34.549 -21.495 -18.940  0.00  0.00    -0.003 C 
ATOM     22  C   UNL     1      32.192 -20.992 -19.108  0.00  0.00    -0.003 C 
ATOM     23  C   UNL     1      33.783 -19.791 -20.471  0.00  0.00    -0.000 C 
ATOM     24  C   UNL     1      34.824 -20.526 -19.905  0.00  0.00    -0.000 C 
ATOM     25  C   UNL     1      32.467 -20.024 -20.073  0.00  0.00    -0.000 C 
BRANCH  23  26
ATOM     26  C   UNL     1      34.068 -18.786 -21.474  0.00  0.00    -0.000 C 
ATOM     27  C   UNL     1      33.685 -18.995 -22.798  0.00  0.00    -0.000 C 
ATOM     28  C   UNL     1      34.724 -17.610 -21.114  0.00  0.00    -0.000 C 
ATOM     29  C   UNL     1      33.958 -18.026 -23.764  0.00  0.00    +0.000 C 
ATOM     30  C   UNL     1      34.998 -16.641 -22.079  0.00  0.00    +0.000 C 
ATOM     31  C   UNL     1      34.615 -16.849 -23.405  0.00  0.00    +0.000 C 
ENDBRANCH  23  26
ENDBRANCH  19  20
ENDBRANCH   2  19
TORSDOF 5
ENDMDL
MODEL 2
REMARK VINA RESULT:     -12.4      8.554     12.683
REMARK  Name = 11987860
REMARK  5 active torsions:
REMARK  status: ('A' for Active; 'I' for Inactive)
REMARK    1  A    between atoms: N_2  and  C_19
REMARK    2  A    between atoms: C_3  and  C_11
REMARK    3  A    between atoms: N_9  and  O_17
REMARK    4  A    between atoms: C_19  and  C_20
REMARK    5  A    between atoms: C_23  and  C_26
REMARK                            x       y       z     vdW  Elec       q    Type
REMARK                         _______ _______ _______ _____ _____    ______ ____
ROOT
ATOM      1  O   UNL     1      32.708 -12.975 -25.189  0.00  0.00    -0.272 OA
ATOM      2  N   UNL     1      33.820 -13.965 -23.399  0.00  0.00    -0.298 N 
ATOM      3  C   UNL     1      33.073 -12.976 -24.016  0.00  0.00    +0.253 C 
ATOM      4  H   UNL     1      34.052 -13.853 -22.448  0.00  0.00    +0.150 HD
ENDROOT
BRANCH   3  11
ATOM      5  O   UNL     1      31.143 -12.829 -21.703  0.00  0.00    -0.327 OA
ATOM      6  O   UNL     1      33.366 -12.173 -21.842  0.00  0.00    -0.320 OA
ATOM      7  O   UNL     1      30.967  -7.909 -21.183  0.00  0.00    -0.250 OA
ATOM      8  N   UNL     1      31.505 -10.154 -20.935  0.00  0.00    -0.255 N 
ATOM      9  N   UNL     1      32.256  -8.542 -19.398  0.00  0.00    -0.181 N 
ATOM     10  C   UNL     1      31.229 -11.852 -22.749  0.00  0.00    +0.174 C 
ATOM     11  C   UNL     1      32.713 -11.870 -23.077  0.00  0.00    +0.222 C 
ATOM     12  C   UNL     1      32.304 -12.503 -20.935  0.00  0.00    +0.256 C 
ATOM     13  C   UNL     1      30.764 -10.520 -22.151  0.00  0.00    +0.128 C 
ATOM     14  C   UNL     1      31.986 -11.268 -20.093  0.00  0.00    +0.156 C 
ATOM     15  C   UNL     1      31.536  -8.801 -20.545  0.00  0.00    +0.326 C 
ATOM     16  H   UNL     1      32.709  -9.252 -18.890  0.00  0.00    +0.184 HD
BRANCH   9  17
ATOM     17  O   UNL     1      32.296  -7.195 -19.006  0.00  0.00    -0.294 OA
ATOM     18  H   UNL     1      31.704  -7.061 -18.248  0.00  0.00    +0.241 HD
ENDBRANCH   9  17
ENDBRANCH   3  11
BRANCH   2  19
ATOM     19  C   UNL     1      34.276 -15.154 -24.083  0.00  0.00    +0.116 C 
BRANCH  19  20
ATOM     20  C   UNL     1      34.312 -16.324 -23.139  0.00  0.00    -0.003 C 
ATOM     21  C   UNL     1      34.649 -16.119 -21.806  0.00  0.00    -0.003 C 
ATOM     22  C   UNL     1      34.009 -17.594 -23.610  0.00  0.00    -0.003 C 
ATOM     23  C   UNL     1      34.379 -18.484 -21.395  0.00  0.00    -0.000 C 
ATOM     24  C   UNL     1      34.682 -17.205 -20.932  0.00  0.00    -0.000 C 
ATOM     25  C   UNL     1      34.043 -18.679 -22.735  0.00  0.00    -0.000 C 
BRANCH  23  26
ATOM     26  C   UNL     1      34.413 -19.611 -20.487  0.00  0.00    -0.000 C 
ATOM     27  C   UNL     1      35.635 -20.082 -20.007  0.00  0.00    -0.000 C 
ATOM     28  C   UNL     1      33.225 -20.223 -20.091  0.00  0.00    -0.000 C 
ATOM     29  C   UNL     1      35.668 -21.167 -19.130  0.00  0.00    +0.000 C 
ATOM     30  C   UNL     1      33.257 -21.307 -19.215  0.00  0.00    +0.000 C 
ATOM     31  C   UNL     1      34.479 -21.781 -18.735  0.00  0.00    +0.000 C 
ENDBRANCH  23  26
ENDBRANCH  19  20
ENDBRANCH   2  19
TORSDOF 5
ENDMDL
MODEL 3
REMARK VINA RESULT:     -12.3      8.488     12.984
REMARK  Name = 11987860
REMARK  5 active torsions:
REMARK  status: ('A' for Active; 'I' for Inactive)
REMARK    1  A    between atoms: N_2  and  C_19
REMARK    2  A    between atoms: C_3  and  C_11
REMARK    3  A    between atoms: N_9  and  O_17
REMARK    4  A    between atoms: C_19  and  C_20
REMARK    5  A    between atoms: C_23  and  C_26
REMARK                            x       y       z     vdW  Elec       q    Type
REMARK                         _______ _______ _______ _____ _____    ______ ____
ROOT
ATOM      1  O   UNL     1      32.801 -14.523 -25.986  0.00  0.00    -0.272 OA
ATOM      2  N   UNL     1      33.861 -14.923 -23.952  0.00  0.00    -0.298 N 
ATOM      3  C   UNL     1      33.044 -14.220 -24.821  0.00  0.00    +0.253 C 
ATOM      4  H   UNL     1      33.978 -14.579 -23.037  0.00  0.00    +0.150 HD
ENDROOT
BRANCH   3  11
ATOM      5  O   UNL     1      34.005 -12.392 -22.622  0.00  0.00    -0.327 OA
ATOM      6  O   UNL     1      33.127 -11.888 -24.713  0.00  0.00    -0.320 OA
ATOM      7  O   UNL     1      29.723 -10.128 -21.600  0.00  0.00    -0.250 OA
ATOM      8  N   UNL     1      31.820 -10.638 -22.456  0.00  0.00    -0.255 N 
ATOM      9  N   UNL     1      30.870  -8.509 -22.745  0.00  0.00    -0.181 N 
ATOM     10  C   UNL     1      32.694 -12.970 -22.679  0.00  0.00    +0.174 C 
ATOM     11  C   UNL     1      32.433 -13.017 -24.175  0.00  0.00    +0.222 C 
ATOM     12  C   UNL     1      33.890 -11.368 -23.614  0.00  0.00    +0.256 C 
ATOM     13  C   UNL     1      31.756 -12.013 -21.937  0.00  0.00    +0.128 C 
ATOM     14  C   UNL     1      33.120 -10.198 -23.002  0.00  0.00    +0.156 C 
ATOM     15  C   UNL     1      30.731  -9.777 -22.222  0.00  0.00    +0.326 C 
ATOM     16  H   UNL     1      31.672  -8.228 -23.240  0.00  0.00    +0.184 HD
BRANCH   9  17
ATOM     17  O   UNL     1      29.785  -7.646 -22.521  0.00  0.00    -0.294 OA
ATOM     18  H   UNL     1      29.578  -7.167 -23.339  0.00  0.00    +0.241 HD
ENDBRANCH   9  17
ENDBRANCH   3  11
BRANCH   2  19
ATOM     19  C   UNL     1      34.552 -16.136 -24.325  0.00  0.00    +0.116 C 
BRANCH  19  20
ATOM     20  C   UNL     1      34.429 -17.168 -23.238  0.00  0.00    -0.003 C 
ATOM     21  C   UNL     1      33.799 -18.377 -23.509  0.00  0.00    -0.003 C 
ATOM     22  C   UNL     1      34.946 -16.901 -21.978  0.00  0.00    -0.003 C 
ATOM     23  C   UNL     1      34.201 -19.075 -21.232  0.00  0.00    -0.000 C 
ATOM     24  C   UNL     1      33.685 -19.334 -22.501  0.00  0.00    -0.000 C 
ATOM     25  C   UNL     1      34.832 -17.859 -20.970  0.00  0.00    -0.000 C 
BRANCH  23  26
ATOM     26  C   UNL     1      34.084 -20.068 -20.186  0.00  0.00    -0.000 C 
ATOM     27  C   UNL     1      35.231 -20.602 -19.600  0.00  0.00    -0.000 C 
ATOM     28  C   UNL     1      32.824 -20.490 -19.763  0.00  0.00    -0.000 C 
ATOM     29  C   UNL     1      35.118 -21.559 -18.591  0.00  0.00    +0.000 C 
ATOM     30  C   UNL     1      32.710 -21.446 -18.755  0.00  0.00    +0.000 C 
ATOM     31  C   UNL     1      33.857 -21.982 -18.168  0.00  0.00    +0.000 C 
ENDBRANCH  23  26
ENDBRANCH  19  20
ENDBRANCH   2  19
TORSDOF 5
ENDMDL
MODEL 4
REMARK VINA RESULT:     -11.7      3.176      4.961
REMARK  Name = 11987860
REMARK  5 active torsions:
REMARK  status: ('A' for Active; 'I' for Inactive)
REMARK    1  A    between atoms: N_2  and  C_19
REMARK    2  A    between atoms: C_3  and  C_11
REMARK    3  A    between atoms: N_9  and  O_17
REMARK    4  A    between atoms: C_19  and  C_20
REMARK    5  A    between atoms: C_23  and  C_26
REMARK                            x       y       z     vdW  Elec       q    Type
REMARK                         _______ _______ _______ _____ _____    ______ ____
ROOT
ATOM      1  O   UNL     1      36.724 -21.659 -16.792  0.00  0.00    -0.272 OA
ATOM      2  N   UNL     1      35.099 -21.560 -18.456  0.00  0.00    -0.298 N 
ATOM      3  C   UNL     1      35.554 -21.720 -17.158  0.00  0.00    +0.253 C 
ATOM      4  H   UNL     1      34.131 -21.631 -18.625  0.00  0.00    +0.150 HD
ENDROOT
BRANCH   3  11
ATOM      5  O   UNL     1      34.253 -24.248 -16.150  0.00  0.00    -0.327 OA
ATOM      6  O   UNL     1      35.054 -22.407 -14.982  0.00  0.00    -0.320 OA
ATOM      7  O   UNL     1      30.191 -22.254 -14.141  0.00  0.00    -0.250 OA
ATOM      8  N   UNL     1      32.311 -23.151 -14.446  0.00  0.00    -0.255 N 
ATOM      9  N   UNL     1      31.444 -22.774 -12.295  0.00  0.00    -0.181 N 
ATOM     10  C   UNL     1      33.534 -23.102 -16.626  0.00  0.00    +0.174 C 
ATOM     11  C   UNL     1      34.437 -21.960 -16.192  0.00  0.00    +0.222 C 
ATOM     12  C   UNL     1      34.674 -23.786 -14.863  0.00  0.00    +0.256 C 
ATOM     13  C   UNL     1      32.180 -23.100 -15.910  0.00  0.00    +0.128 C 
ATOM     14  C   UNL     1      33.480 -23.879 -13.912  0.00  0.00    +0.156 C 
ATOM     15  C   UNL     1      31.238 -22.696 -13.656  0.00  0.00    +0.326 C 
ATOM     16  H   UNL     1      32.277 -23.126 -11.908  0.00  0.00    +0.184 HD
BRANCH   9  17
ATOM     17  O   UNL     1      30.380 -22.317 -11.501  0.00  0.00    -0.294 OA
ATOM     18  H   UNL     1      29.653 -22.960 -11.533  0.00  0.00    +0.241 HD
ENDBRANCH   9  17
ENDBRANCH   3  11
BRANCH   2  19
ATOM     19  C   UNL     1      35.976 -21.296 -19.573  0.00  0.00    +0.116 C 
BRANCH  19  20
ATOM     20  C   UNL     1      35.569 -20.030 -20.275  0.00  0.00    -0.003 C 
ATOM     21  C   UNL     1      36.538 -19.096 -20.622  0.00  0.00    -0.003 C 
ATOM     22  C   UNL     1      34.230 -19.809 -20.568  0.00  0.00    -0.003 C 
ATOM     23  C   UNL     1      34.818 -17.691 -21.571  0.00  0.00    -0.000 C 
ATOM     24  C   UNL     1      36.160 -17.922 -21.273  0.00  0.00    -0.000 C 
ATOM     25  C   UNL     1      33.852 -18.635 -21.219  0.00  0.00    -0.000 C 
BRANCH  23  26
ATOM     26  C   UNL     1      34.425 -16.473 -22.248  0.00  0.00    -0.000 C 
ATOM     27  C   UNL     1      34.216 -15.305 -21.515  0.00  0.00    -0.000 C 
ATOM     28  C   UNL     1      34.258 -16.468 -23.632  0.00  0.00    -0.000 C 
ATOM     29  C   UNL     1      33.839 -14.131 -22.167  0.00  0.00    +0.000 C 
ATOM     30  C   UNL     1      33.881 -15.294 -24.284  0.00  0.00    +0.000 C 
ATOM     31  C   UNL     1      33.670 -14.125 -23.552  0.00  0.00    +0.000 C 
ENDBRANCH  23  26
ENDBRANCH  19  20
ENDBRANCH   2  19
TORSDOF 5
ENDMDL
MODEL 5
REMARK VINA RESULT:     -11.6      3.831      6.816
REMARK  Name = 11987860
REMARK  5 active torsions:
REMARK  status: ('A' for Active; 'I' for Inactive)
REMARK    1  A    between atoms: N_2  and  C_19
REMARK    2  A    between atoms: C_3  and  C_11
REMARK    3  A    between atoms: N_9  and  O_17
REMARK    4  A    between atoms: C_19  and  C_20
REMARK    5  A    between atoms: C_23  and  C_26
REMARK                            x       y       z     vdW  Elec       q    Type
REMARK                         _______ _______ _______ _____ _____    ______ ____
ROOT
ATOM      1  O   UNL     1      33.181 -19.483 -21.890  0.00  0.00    -0.272 OA
ATOM      2  N   UNL     1      35.190 -18.707 -21.008  0.00  0.00    -0.298 N 
ATOM      3  C   UNL     1      34.015 -19.438 -20.990  0.00  0.00    +0.253 C 
ATOM      4  H   UNL     1      35.782 -18.753 -20.222  0.00  0.00    +0.150 HD
ENDROOT
BRANCH   3  11
ATOM      5  O   UNL     1      35.304 -21.983 -20.011  0.00  0.00    -0.327 OA
ATOM      6  O   UNL     1      35.015 -19.943 -18.940  0.00  0.00    -0.320 OA
ATOM      7  O   UNL     1      32.199 -23.018 -16.296  0.00  0.00    -0.250 OA
ATOM      8  N   UNL     1      34.012 -22.263 -17.535  0.00  0.00    -0.255 N 
ATOM      9  N   UNL     1      34.054 -22.259 -15.185  0.00  0.00    -0.181 N 
ATOM     10  C   UNL     1      33.894 -21.723 -19.973  0.00  0.00    +0.174 C 
ATOM     11  C   UNL     1      33.855 -20.224 -19.728  0.00  0.00    +0.222 C 
ATOM     12  C   UNL     1      35.756 -21.172 -18.923  0.00  0.00    +0.256 C 
ATOM     13  C   UNL     1      33.325 -22.536 -18.806  0.00  0.00    +0.128 C 
ATOM     14  C   UNL     1      35.443 -21.907 -17.620  0.00  0.00    +0.156 C 
ATOM     15  C   UNL     1      33.341 -22.549 -16.330  0.00  0.00    +0.326 C 
ATOM     16  H   UNL     1      34.963 -21.885 -15.211  0.00  0.00    +0.184 HD
BRANCH   9  17
ATOM     17  O   UNL     1      33.389 -22.536 -13.980  0.00  0.00    -0.294 OA
ATOM     18  H   UNL     1      33.710 -23.378 -13.620  0.00  0.00    +0.241 HD
ENDBRANCH   9  17
ENDBRANCH   3  11
BRANCH   2  19
ATOM     19  C   UNL     1      35.591 -17.881 -22.124  0.00  0.00    +0.116 C 
BRANCH  19  20
ATOM     20  C   UNL     1      34.861 -16.567 -22.096  0.00  0.00    -0.003 C 
ATOM     21  C   UNL     1      34.561 -15.924 -23.291  0.00  0.00    -0.003 C 
ATOM     22  C   UNL     1      34.495 -16.012 -20.877  0.00  0.00    -0.003 C 
ATOM     23  C   UNL     1      33.513 -14.140 -22.046  0.00  0.00    -0.000 C 
ATOM     24  C   UNL     1      33.884 -14.705 -23.265  0.00  0.00    -0.000 C 
ATOM     25  C   UNL     1      33.818 -14.793 -20.852  0.00  0.00    -0.000 C 
BRANCH  23  26
ATOM     26  C   UNL     1      32.809 -12.875 -22.019  0.00  0.00    -0.000 C 
ATOM     27  C   UNL     1      31.971 -12.566 -20.948  0.00  0.00    -0.000 C 
ATOM     28  C   UNL     1      32.971 -11.965 -23.063  0.00  0.00    -0.000 C 
ATOM     29  C   UNL     1      31.294 -11.347 -20.921  0.00  0.00    +0.000 C 
ATOM     30  C   UNL     1      32.294 -10.746 -23.036  0.00  0.00    +0.000 C 
ATOM     31  C   UNL     1      31.455 -10.436 -21.966  0.00  0.00    +0.000 C 
ENDBRANCH  23  26
ENDBRANCH  19  20
ENDBRANCH   2  19
TORSDOF 5
ENDMDL
MODEL 6
REMARK VINA RESULT:     -11.3      9.324     13.548
REMARK  Name = 11987860
REMARK  5 active torsions:
REMARK  status: ('A' for Active; 'I' for Inactive)
REMARK    1  A    between atoms: N_2  and  C_19
REMARK    2  A    between atoms: C_3  and  C_11
REMARK    3  A    between atoms: N_9  and  O_17
REMARK    4  A    between atoms: C_19  and  C_20
REMARK    5  A    between atoms: C_23  and  C_26
REMARK                            x       y       z     vdW  Elec       q    Type
REMARK                         _______ _______ _______ _____ _____    ______ ____
ROOT
ATOM      1  O   UNL     1      31.561 -13.247 -22.558  0.00  0.00    -0.272 OA
ATOM      2  N   UNL     1      33.031 -12.422 -24.162  0.00  0.00    -0.298 N 
ATOM      3  C   UNL     1      32.238 -12.339 -23.031  0.00  0.00    +0.253 C 
ATOM      4  H   UNL     1      33.531 -11.621 -24.444  0.00  0.00    +0.150 HD
ENDROOT
BRANCH   3  11
ATOM      5  O   UNL     1      30.094 -10.411 -22.145  0.00  0.00    -0.327 OA
ATOM      6  O   UNL     1      31.969 -11.189 -21.015  0.00  0.00    -0.320 OA
ATOM      7  O   UNL     1      32.902  -6.373 -21.576  0.00  0.00    -0.250 OA
ATOM      8  N   UNL     1      31.692  -8.315 -21.179  0.00  0.00    -0.255 N 
ATOM      9  N   UNL     1      32.510  -7.004 -19.409  0.00  0.00    -0.181 N 
ATOM     10  C   UNL     1      31.240 -10.045 -22.926  0.00  0.00    +0.174 C 
ATOM     11  C   UNL     1      32.303 -10.989 -22.391  0.00  0.00    +0.222 C 
ATOM     12  C   UNL     1      30.689 -10.561 -20.852  0.00  0.00    +0.256 C 
ATOM     13  C   UNL     1      31.534  -8.574 -22.618  0.00  0.00    +0.128 C 
ATOM     14  C   UNL     1      30.906  -9.167 -20.264  0.00  0.00    +0.156 C 
ATOM     15  C   UNL     1      32.404  -7.170 -20.774  0.00  0.00    +0.326 C 
ATOM     16  H   UNL     1      32.113  -7.637 -18.769  0.00  0.00    +0.184 HD
BRANCH   9  17
ATOM     17  O   UNL     1      33.223  -5.867 -18.997  0.00  0.00    -0.294 OA
ATOM     18  H   UNL     1      33.822  -6.106 -18.271  0.00  0.00    +0.241 HD
ENDBRANCH   9  17
ENDBRANCH   3  11
BRANCH   2  19
ATOM     19  C   UNL     1      33.160 -13.626 -24.950  0.00  0.00    +0.116 C 
BRANCH  19  20
ATOM     20  C   UNL     1      33.599 -14.777 -24.087  0.00  0.00    -0.003 C 
ATOM     21  C   UNL     1      34.120 -14.525 -22.823  0.00  0.00    -0.003 C 
ATOM     22  C   UNL     1      33.478 -16.076 -24.562  0.00  0.00    -0.003 C 
ATOM     23  C   UNL     1      34.410 -16.900 -22.491  0.00  0.00    -0.000 C 
ATOM     24  C   UNL     1      34.527 -15.592 -22.023  0.00  0.00    -0.000 C 
ATOM     25  C   UNL     1      33.886 -17.142 -23.761  0.00  0.00    -0.000 C 
BRANCH  23  26
ATOM     26  C   UNL     1      34.832 -18.008 -21.660  0.00  0.00    -0.000 C 
ATOM     27  C   UNL     1      33.923 -19.010 -21.320  0.00  0.00    -0.000 C 
ATOM     28  C   UNL     1      36.147 -18.073 -21.201  0.00  0.00    -0.000 C 
ATOM     29  C   UNL     1      34.329 -20.078 -20.520  0.00  0.00    +0.000 C 
ATOM     30  C   UNL     1      36.554 -19.141 -20.401  0.00  0.00    +0.000 C 
ATOM     31  C   UNL     1      35.645 -20.143 -20.060  0.00  0.00    +0.000 C 
ENDBRANCH  23  26
ENDBRANCH  19  20
ENDBRANCH   2  19
TORSDOF 5
ENDMDL
MODEL 7
REMARK VINA RESULT:     -11.1     12.350     16.855
REMARK  Name = 11987860
REMARK  5 active torsions:
REMARK  status: ('A' for Active; 'I' for Inactive)
REMARK    1  A    between atoms: N_2  and  C_19
REMARK    2  A    between atoms: C_3  and  C_11
REMARK    3  A    between atoms: N_9  and  O_17
REMARK    4  A    between atoms: C_19  and  C_20
REMARK    5  A    between atoms: C_23  and  C_26
REMARK                            x       y       z     vdW  Elec       q    Type
REMARK                         _______ _______ _______ _____ _____    ______ ____
ROOT
ATOM      1  O   UNL     1      32.293  -7.417 -19.978  0.00  0.00    -0.272 OA
ATOM      2  N   UNL     1      31.161  -8.692 -21.563  0.00  0.00    -0.298 N 
ATOM      3  C   UNL     1      31.876  -7.592 -21.120  0.00  0.00    +0.253 C 
ATOM      4  H   UNL     1      30.880  -8.718 -22.506  0.00  0.00    +0.150 HD
ENDROOT
BRANCH   3  11
ATOM      5  O   UNL     1      30.150  -6.581 -23.377  0.00  0.00    -0.327 OA
ATOM      6  O   UNL     1      31.434  -5.413 -21.834  0.00  0.00    -0.320 OA
ATOM      7  O   UNL     1      33.678  -4.457 -26.126  0.00  0.00    -0.250 OA
ATOM      8  N   UNL     1      31.952  -4.820 -24.617  0.00  0.00    -0.255 N 
ATOM      9  N   UNL     1      32.628  -2.646 -25.196  0.00  0.00    -0.181 N 
ATOM     10  C   UNL     1      31.505  -7.028 -23.531  0.00  0.00    +0.174 C 
ATOM     11  C   UNL     1      32.129  -6.603 -22.212  0.00  0.00    +0.222 C 
ATOM     12  C   UNL     1      30.357  -5.299 -22.776  0.00  0.00    +0.256 C 
ATOM     13  C   UNL     1      32.084  -6.280 -24.736  0.00  0.00    +0.128 C 
ATOM     14  C   UNL     1      30.777  -4.321 -23.874  0.00  0.00    +0.156 C 
ATOM     15  C   UNL     1      32.814  -4.001 -25.370  0.00  0.00    +0.326 C 
ATOM     16  H   UNL     1      31.940  -2.282 -24.594  0.00  0.00    +0.184 HD
BRANCH   9  17
ATOM     17  O   UNL     1      33.487  -1.822 -25.940  0.00  0.00    -0.294 OA
ATOM     18  H   UNL     1      34.354  -2.252 -26.024  0.00  0.00    +0.241 HD
ENDBRANCH   9  17
ENDBRANCH   3  11
BRANCH   2  19
ATOM     19  C   UNL     1      30.806  -9.801 -20.707  0.00  0.00    +0.116 C 
BRANCH  19  20
ATOM     20  C   UNL     1      31.520 -11.051 -21.140  0.00  0.00    -0.003 C 
ATOM     21  C   UNL     1      31.654 -12.107 -20.247  0.00  0.00    -0.003 C 
ATOM     22  C   UNL     1      32.038 -11.134 -22.425  0.00  0.00    -0.003 C 
ATOM     23  C   UNL     1      32.840 -13.360 -21.938  0.00  0.00    -0.000 C 
ATOM     24  C   UNL     1      32.317 -13.267 -20.649  0.00  0.00    -0.000 C 
ATOM     25  C   UNL     1      32.700 -12.294 -22.826  0.00  0.00    -0.000 C 
BRANCH  23  26
ATOM     26  C   UNL     1      33.527 -14.564 -22.355  0.00  0.00    -0.000 C 
ATOM     27  C   UNL     1      33.569 -14.910 -23.706  0.00  0.00    -0.000 C 
ATOM     28  C   UNL     1      34.149 -15.376 -21.407  0.00  0.00    -0.000 C 
ATOM     29  C   UNL     1      34.232 -16.069 -24.108  0.00  0.00    +0.000 C 
ATOM     30  C   UNL     1      34.812 -16.535 -21.809  0.00  0.00    +0.000 C 
ATOM     31  C   UNL     1      34.853 -16.883 -23.160  0.00  0.00    +0.000 C 
ENDBRANCH  23  26
ENDBRANCH  19  20
ENDBRANCH   2  19
TORSDOF 5
ENDMDL
MODEL 8
REMARK VINA RESULT:     -11.1      4.598      7.883
REMARK  Name = 11987860
REMARK  5 active torsions:
REMARK  status: ('A' for Active; 'I' for Inactive)
REMARK    1  A    between atoms: N_2  and  C_19
REMARK    2  A    between atoms: C_3  and  C_11
REMARK    3  A    between atoms: N_9  and  O_17
REMARK    4  A    between atoms: C_19  and  C_20
REMARK    5  A    between atoms: C_23  and  C_26
REMARK                            x       y       z     vdW  Elec       q    Type
REMARK                         _______ _______ _______ _____ _____    ______ ____
ROOT
ATOM      1  O   UNL     1      36.401 -17.978 -20.518  0.00  0.00    -0.272 OA
ATOM      2  N   UNL     1      34.488 -17.821 -21.835  0.00  0.00    -0.298 N 
ATOM      3  C   UNL     1      35.244 -18.297 -20.778  0.00  0.00    +0.253 C 
ATOM      4  H   UNL     1      33.567 -18.153 -21.940  0.00  0.00    +0.150 HD
ENDROOT
BRANCH   3  11
ATOM      5  O   UNL     1      34.492 -21.192 -21.167  0.00  0.00    -0.327 OA
ATOM      6  O   UNL     1      35.458 -20.128 -19.343  0.00  0.00    -0.320 OA
ATOM      7  O   UNL     1      31.058 -21.560 -17.619  0.00  0.00    -0.250 OA
ATOM      8  N   UNL     1      33.057 -21.646 -18.797  0.00  0.00    -0.255 N 
ATOM      9  N   UNL     1      32.833 -22.679 -16.699  0.00  0.00    -0.181 N 
ATOM     10  C   UNL     1      33.580 -20.168 -20.745  0.00  0.00    +0.174 C 
ATOM     11  C   UNL     1      34.481 -19.260 -19.925  0.00  0.00    +0.222 C 
ATOM     12  C   UNL     1      35.235 -21.403 -19.963  0.00  0.00    +0.256 C 
ATOM     13  C   UNL     1      32.499 -20.857 -19.905  0.00  0.00    +0.128 C 
ATOM     14  C   UNL     1      34.384 -22.256 -19.022  0.00  0.00    +0.156 C 
ATOM     15  C   UNL     1      32.232 -21.940 -17.695  0.00  0.00    +0.326 C 
ATOM     16  H   UNL     1      33.767 -22.982 -16.759  0.00  0.00    +0.184 HD
BRANCH   9  17
ATOM     17  O   UNL     1      32.018 -22.971 -15.594  0.00  0.00    -0.294 OA
ATOM     18  H   UNL     1      31.093 -22.771 -15.812  0.00  0.00    +0.241 HD
ENDBRANCH   9  17
ENDBRANCH   3  11
BRANCH   2  19
ATOM     19  C   UNL     1      34.987 -16.861 -22.794  0.00  0.00    +0.116 C 
BRANCH  19  20
ATOM     20  C   UNL     1      34.270 -15.547 -22.646  0.00  0.00    -0.003 C 
ATOM     21  C   UNL     1      34.109 -14.993 -21.381  0.00  0.00    -0.003 C 
ATOM     22  C   UNL     1      33.778 -14.904 -23.773  0.00  0.00    -0.003 C 
ATOM     23  C   UNL     1      32.947 -13.121 -22.370  0.00  0.00    -0.000 C 
ATOM     24  C   UNL     1      33.444 -13.775 -21.244  0.00  0.00    -0.000 C 
ATOM     25  C   UNL     1      33.114 -13.686 -23.635  0.00  0.00    -0.000 C 
BRANCH  23  26
ATOM     26  C   UNL     1      32.258 -11.856 -22.228  0.00  0.00    -0.000 C 
ATOM     27  C   UNL     1      32.485 -10.832 -23.146  0.00  0.00    -0.000 C 
ATOM     28  C   UNL     1      31.365 -11.664 -21.174  0.00  0.00    -0.000 C 
ATOM     29  C   UNL     1      31.820  -9.613 -23.010  0.00  0.00    +0.000 C 
ATOM     30  C   UNL     1      30.700 -10.445 -21.037  0.00  0.00    +0.000 C 
ATOM     31  C   UNL     1      30.928  -9.419 -21.955  0.00  0.00    +0.000 C 
ENDBRANCH  23  26
ENDBRANCH  19  20
ENDBRANCH   2  19
TORSDOF 5
ENDMDL
MODEL 9
REMARK VINA RESULT:     -10.9      1.847      2.498
REMARK  Name = 11987860
REMARK  5 active torsions:
REMARK  status: ('A' for Active; 'I' for Inactive)
REMARK    1  A    between atoms: N_2  and  C_19
REMARK    2  A    between atoms: C_3  and  C_11
REMARK    3  A    between atoms: N_9  and  O_17
REMARK    4  A    between atoms: C_19  and  C_20
REMARK    5  A    between atoms: C_23  and  C_26
REMARK                            x       y       z     vdW  Elec       q    Type
REMARK                         _______ _______ _______ _____ _____    ______ ____
ROOT
ATOM      1  O   UNL     1      32.044 -23.339 -15.756  0.00  0.00    -0.272 OA
ATOM      2  N   UNL     1      33.786 -22.922 -17.243  0.00  0.00    -0.298 N 
ATOM      3  C   UNL     1      33.231 -23.129 -15.992  0.00  0.00    +0.253 C 
ATOM      4  H   UNL     1      34.756 -22.764 -17.304  0.00  0.00    +0.150 HD
ENDROOT
BRANCH   3  11
ATOM      5  O   UNL     1      34.359 -25.285 -14.209  0.00  0.00    -0.327 OA
ATOM      6  O   UNL     1      35.444 -23.662 -15.467  0.00  0.00    -0.320 OA
ATOM      7  O   UNL     1      36.524 -22.398 -10.818  0.00  0.00    -0.250 OA
ATOM      8  N   UNL     1      36.134 -23.757 -12.660  0.00  0.00    -0.255 N 
ATOM      9  N   UNL     1      38.317 -23.170 -12.018  0.00  0.00    -0.181 N 
ATOM     10  C   UNL     1      33.894 -24.010 -13.743  0.00  0.00    +0.174 C 
ATOM     11  C   UNL     1      34.256 -23.098 -14.904  0.00  0.00    +0.222 C 
ATOM     12  C   UNL     1      35.612 -24.917 -14.791  0.00  0.00    +0.256 C 
ATOM     13  C   UNL     1      34.677 -23.693 -12.466  0.00  0.00    +0.128 C 
ATOM     14  C   UNL     1      36.624 -24.726 -13.662  0.00  0.00    +0.156 C 
ATOM     15  C   UNL     1      36.966 -23.062 -11.762  0.00  0.00    +0.326 C 
ATOM     16  H   UNL     1      38.669 -23.698 -12.770  0.00  0.00    +0.184 HD
BRANCH   9  17
ATOM     17  O   UNL     1      39.152 -22.475 -11.131  0.00  0.00    -0.294 OA
ATOM     18  H   UNL     1      38.676 -22.308 -10.302  0.00  0.00    +0.241 HD
ENDBRANCH   9  17
ENDBRANCH   3  11
BRANCH   2  19
ATOM     19  C   UNL     1      33.011 -22.927 -18.462  0.00  0.00    +0.116 C 
BRANCH  19  20
ATOM     20  C   UNL     1      33.309 -21.701 -19.281  0.00  0.00    -0.003 C 
ATOM     21  C   UNL     1      32.259 -20.927 -19.763  0.00  0.00    -0.003 C 
ATOM     22  C   UNL     1      34.627 -21.357 -19.545  0.00  0.00    -0.003 C 
ATOM     23  C   UNL     1      33.856 -19.437 -20.793  0.00  0.00    -0.000 C 
ATOM     24  C   UNL     1      32.536 -19.791 -20.522  0.00  0.00    -0.000 C 
ATOM     25  C   UNL     1      34.903 -20.220 -20.304  0.00  0.00    -0.000 C 
BRANCH  23  26
ATOM     26  C   UNL     1      34.143 -18.256 -21.580  0.00  0.00    -0.000 C 
ATOM     27  C   UNL     1      34.497 -17.065 -20.947  0.00  0.00    -0.000 C 
ATOM     28  C   UNL     1      34.068 -18.311 -22.971  0.00  0.00    -0.000 C 
ATOM     29  C   UNL     1      34.774 -15.928 -21.705  0.00  0.00    +0.000 C 
ATOM     30  C   UNL     1      34.345 -17.175 -23.730  0.00  0.00    +0.000 C 
ATOM     31  C   UNL     1      34.698 -15.982 -23.098  0.00  0.00    +0.000 C 
ENDBRANCH  23  26
ENDBRANCH  19  20
ENDBRANCH   2  19
TORSDOF 5
ENDMDL
