MODEL 1
REMARK VINA RESULT:     -10.2      0.000      0.000
REMARK  Name = 20843156
REMARK  7 active torsions:
REMARK  status: ('A' for Active; 'I' for Inactive)
REMARK    1  A    between atoms: N_3  and  C_34
REMARK    2  A    between atoms: C_5  and  C_28
REMARK    3  A    between atoms: C_9  and  C_16
REMARK    4  A    between atoms: C_17  and  C_24
REMARK    5  A    between atoms: C_34  and  C_35
REMARK    6  A    between atoms: C_35  and  C_36
REMARK    7  A    between atoms: C_36  and  O_37
REMARK                            x       y       z     vdW  Elec       q    Type
REMARK                         _______ _______ _______ _____ _____    ______ ____
ROOT
ATOM      1  O   UNL     1      31.133 -23.505 -14.717  0.00  0.00    -0.464 OA
ATOM      2  O   UNL     1      31.087 -21.693 -17.794  0.00  0.00    -0.270 OA
ATOM      3  N   UNL     1      32.933 -22.598 -16.703  0.00  0.00    -0.253 N 
ATOM      4  C   UNL     1      33.389 -23.373 -15.599  0.00  0.00    +0.088 C 
ATOM      5  C   UNL     1      30.680 -23.307 -16.045  0.00  0.00    +0.264 C 
ATOM      6  C   UNL     1      31.566 -22.422 -16.925  0.00  0.00    +0.274 C 
ATOM      7  C   UNL     1      32.465 -23.803 -14.641  0.00  0.00    +0.153 C 
ATOM      8  C   UNL     1      34.742 -23.686 -15.407  0.00  0.00    +0.015 C 
ATOM      9  C   UNL     1      35.155 -24.410 -14.285  0.00  0.00    -0.007 C 
ATOM     10  C   UNL     1      32.878 -24.510 -13.509  0.00  0.00    +0.038 C 
ATOM     11  C   UNL     1      34.223 -24.821 -13.336  0.00  0.00    -0.000 C 
ENDROOT
BRANCH   9  16
ATOM     12  N   UNL     1      38.704 -24.186 -13.163  0.00  0.00    -0.337 NA
ATOM     13  N   UNL     1      38.443 -26.168 -14.508  0.00  0.00    -0.317 NA
ATOM     14  N   UNL     1      36.342 -26.721 -15.442  0.00  0.00    -0.335 N 
ATOM     15  N   UNL     1      40.522 -25.609 -13.575  0.00  0.00    -0.283 N 
ATOM     16  C   UNL     1      36.556 -24.729 -14.105  0.00  0.00    +0.138 C 
ATOM     17  C   UNL     1      37.393 -23.926 -13.358  0.00  0.00    +0.112 C 
ATOM     18  C   UNL     1      37.142 -25.849 -14.661  0.00  0.00    +0.178 C 
ATOM     19  C   UNL     1      39.156 -25.306 -13.757  0.00  0.00    +0.196 C 
ATOM     20  H   UNL     1      36.743 -27.524 -15.848  0.00  0.00    +0.144 HD
ATOM     21  H   UNL     1      35.387 -26.524 -15.578  0.00  0.00    +0.144 HD
ATOM     22  H   UNL     1      41.091 -25.013 -13.036  0.00  0.00    +0.156 HD
ATOM     23  H   UNL     1      40.907 -26.416 -13.987  0.00  0.00    +0.156 HD
BRANCH  17  24
ATOM     24  C   UNL     1      36.885 -22.685 -12.700  0.00  0.00    +0.056 C 
ATOM     25  C   UNL     1      36.549 -22.906 -11.230  0.00  0.00    +0.008 C 
ENDBRANCH  17  24
ENDBRANCH   9  16
BRANCH   5  28
ATOM     26  F   UNL     1      27.227 -21.001 -13.507  0.00  0.00    -0.204 F 
ATOM     27  F   UNL     1      26.281 -22.408 -17.929  0.00  0.00    -0.204 F 
ATOM     28  C   UNL     1      29.300 -22.743 -15.930  0.00  0.00    +0.031 C 
ATOM     29  C   UNL     1      28.419 -22.841 -17.005  0.00  0.00    +0.029 C 
ATOM     30  C   UNL     1      28.901 -22.123 -14.749  0.00  0.00    +0.029 C 
ATOM     31  C   UNL     1      27.613 -21.598 -14.642  0.00  0.00    +0.142 C 
ATOM     32  C   UNL     1      27.131 -22.316 -16.897  0.00  0.00    +0.142 C 
ATOM     33  C   UNL     1      26.728 -21.694 -15.716  0.00  0.00    +0.059 C 
ENDBRANCH   5  28
BRANCH   3  34
ATOM     34  C   UNL     1      33.900 -21.963 -17.591  0.00  0.00    +0.101 C 
BRANCH  34  35
ATOM     35  C   UNL     1      33.533 -22.117 -19.060  0.00  0.00    +0.054 C 
BRANCH  35  36
ATOM     36  C   UNL     1      33.432 -20.782 -19.788  0.00  0.00    +0.144 C 
BRANCH  36  37
ATOM     37  O   UNL     1      34.720 -20.183 -19.824  0.00  0.00    -0.351 OA
ATOM     38  C   UNL     1      34.843 -19.276 -20.912  0.00  0.00    +0.174 C 
ENDBRANCH  36  37
ENDBRANCH  35  36
ENDBRANCH  34  35
ENDBRANCH   3  34
TORSDOF 7
ENDMDL
MODEL 2
REMARK VINA RESULT:     -10.0      3.344      6.422
REMARK  Name = 20843156
REMARK  7 active torsions:
REMARK  status: ('A' for Active; 'I' for Inactive)
REMARK    1  A    between atoms: N_3  and  C_34
REMARK    2  A    between atoms: C_5  and  C_28
REMARK    3  A    between atoms: C_9  and  C_16
REMARK    4  A    between atoms: C_17  and  C_24
REMARK    5  A    between atoms: C_34  and  C_35
REMARK    6  A    between atoms: C_35  and  C_36
REMARK    7  A    between atoms: C_36  and  O_37
REMARK                            x       y       z     vdW  Elec       q    Type
REMARK                         _______ _______ _______ _____ _____    ______ ____
ROOT
ATOM      1  O   UNL     1      36.102 -20.538 -18.640  0.00  0.00    -0.464 OA
ATOM      2  O   UNL     1      32.813 -21.207 -19.861  0.00  0.00    -0.270 OA
ATOM      3  N   UNL     1      33.853 -22.128 -17.993  0.00  0.00    -0.253 N 
ATOM      4  C   UNL     1      35.011 -22.124 -17.165  0.00  0.00    +0.088 C 
ATOM      5  C   UNL     1      34.805 -20.123 -19.033  0.00  0.00    +0.264 C 
ATOM      6  C   UNL     1      33.732 -21.213 -19.041  0.00  0.00    +0.274 C 
ATOM      7  C   UNL     1      36.100 -21.322 -17.521  0.00  0.00    +0.153 C 
ATOM      8  C   UNL     1      35.124 -22.934 -16.025  0.00  0.00    +0.015 C 
ATOM      9  C   UNL     1      36.297 -22.935 -15.265  0.00  0.00    -0.007 C 
ATOM     10  C   UNL     1      37.281 -21.338 -16.773  0.00  0.00    +0.038 C 
ATOM     11  C   UNL     1      37.375 -22.139 -15.639  0.00  0.00    -0.000 C 
ENDROOT
BRANCH   9  16
ATOM     12  N   UNL     1      37.558 -25.471 -12.839  0.00  0.00    -0.337 NA
ATOM     13  N   UNL     1      35.540 -24.494 -11.955  0.00  0.00    -0.317 NA
ATOM     14  N   UNL     1      34.383 -22.822 -13.164  0.00  0.00    -0.335 N 
ATOM     15  N   UNL     1      36.698 -26.152 -10.765  0.00  0.00    -0.283 N 
ATOM     16  C   UNL     1      36.395 -23.772 -14.087  0.00  0.00    +0.138 C 
ATOM     17  C   UNL     1      37.426 -24.673 -13.920  0.00  0.00    +0.112 C 
ATOM     18  C   UNL     1      35.472 -23.725 -13.061  0.00  0.00    +0.178 C 
ATOM     19  C   UNL     1      36.594 -25.332 -11.909  0.00  0.00    +0.196 C 
ATOM     20  H   UNL     1      33.715 -22.775 -12.442  0.00  0.00    +0.144 HD
ATOM     21  H   UNL     1      34.297 -22.244 -13.955  0.00  0.00    +0.144 HD
ATOM     22  H   UNL     1      37.448 -26.783 -10.679  0.00  0.00    +0.156 HD
ATOM     23  H   UNL     1      36.022 -26.091 -10.052  0.00  0.00    +0.156 HD
BRANCH  17  24
ATOM     24  C   UNL     1      38.493 -24.823 -14.956  0.00  0.00    +0.056 C 
ATOM     25  C   UNL     1      39.878 -24.990 -14.339  0.00  0.00    +0.008 C 
ENDBRANCH  17  24
ENDBRANCH   9  16
BRANCH   5  28
ATOM     26  F   UNL     1      32.970 -18.827 -23.351  0.00  0.00    -0.204 F 
ATOM     27  F   UNL     1      37.531 -17.943 -22.428  0.00  0.00    -0.204 F 
ATOM     28  C   UNL     1      34.962 -19.512 -20.389  0.00  0.00    +0.031 C 
ATOM     29  C   UNL     1      36.198 -19.003 -20.782  0.00  0.00    +0.029 C 
ATOM     30  C   UNL     1      33.871 -19.453 -21.253  0.00  0.00    +0.029 C 
ATOM     31  C   UNL     1      34.018 -18.884 -22.518  0.00  0.00    +0.142 C 
ATOM     32  C   UNL     1      36.344 -18.434 -22.047  0.00  0.00    +0.142 C 
ATOM     33  C   UNL     1      35.254 -18.374 -22.915  0.00  0.00    +0.059 C 
ENDBRANCH   5  28
BRANCH   3  34
ATOM     34  C   UNL     1      32.800 -23.109 -17.761  0.00  0.00    +0.101 C 
BRANCH  34  35
ATOM     35  C   UNL     1      31.663 -22.556 -16.913  0.00  0.00    +0.054 C 
BRANCH  35  36
ATOM     36  C   UNL     1      31.413 -23.375 -15.653  0.00  0.00    +0.144 C 
BRANCH  36  37
ATOM     37  O   UNL     1      31.649 -22.552 -14.518  0.00  0.00    -0.351 OA
ATOM     38  C   UNL     1      30.780 -22.882 -13.443  0.00  0.00    +0.174 C 
ENDBRANCH  36  37
ENDBRANCH  35  36
ENDBRANCH  34  35
ENDBRANCH   3  34
TORSDOF 7
ENDMDL
MODEL 3
REMARK VINA RESULT:      -9.7     12.331     17.345
REMARK  Name = 20843156
REMARK  7 active torsions:
REMARK  status: ('A' for Active; 'I' for Inactive)
REMARK    1  A    between atoms: N_3  and  C_34
REMARK    2  A    between atoms: C_5  and  C_28
REMARK    3  A    between atoms: C_9  and  C_16
REMARK    4  A    between atoms: C_17  and  C_24
REMARK    5  A    between atoms: C_34  and  C_35
REMARK    6  A    between atoms: C_35  and  C_36
REMARK    7  A    between atoms: C_36  and  O_37
REMARK                            x       y       z     vdW  Elec       q    Type
REMARK                         _______ _______ _______ _____ _____    ______ ____
ROOT
ATOM      1  O   UNL     1      33.748 -11.252 -23.249  0.00  0.00    -0.464 OA
ATOM      2  O   UNL     1      30.922 -12.787 -21.696  0.00  0.00    -0.270 OA
ATOM      3  N   UNL     1      31.228 -10.531 -22.182  0.00  0.00    -0.253 N 
ATOM      4  C   UNL     1      32.075  -9.558 -22.786  0.00  0.00    +0.088 C 
ATOM      5  C   UNL     1      32.692 -12.197 -23.228  0.00  0.00    +0.264 C 
ATOM      6  C   UNL     1      31.543 -11.889 -22.265  0.00  0.00    +0.274 C 
ATOM      7  C   UNL     1      33.312  -9.958 -23.303  0.00  0.00    +0.153 C 
ATOM      8  C   UNL     1      31.738  -8.198 -22.841  0.00  0.00    +0.015 C 
ATOM      9  C   UNL     1      32.618  -7.267 -23.401  0.00  0.00    -0.007 C 
ATOM     10  C   UNL     1      34.201  -9.026 -23.844  0.00  0.00    +0.038 C 
ATOM     11  C   UNL     1      33.850  -7.681 -23.901  0.00  0.00    -0.000 C 
ENDROOT
BRANCH   9  16
ATOM     12  N   UNL     1      31.481  -3.972 -24.725  0.00  0.00    -0.337 NA
ATOM     13  N   UNL     1      31.959  -3.736 -22.374  0.00  0.00    -0.317 NA
ATOM     14  N   UNL     1      32.716  -5.585 -21.109  0.00  0.00    -0.335 N 
ATOM     15  N   UNL     1      31.206  -1.910 -23.641  0.00  0.00    -0.283 N 
ATOM     16  C   UNL     1      32.252  -5.867 -23.456  0.00  0.00    +0.138 C 
ATOM     17  C   UNL     1      31.833  -5.272 -24.628  0.00  0.00    +0.112 C 
ATOM     18  C   UNL     1      32.295  -5.042 -22.350  0.00  0.00    +0.178 C 
ATOM     19  C   UNL     1      31.566  -3.273 -23.577  0.00  0.00    +0.196 C 
ATOM     20  H   UNL     1      32.754  -5.013 -20.309  0.00  0.00    +0.144 HD
ATOM     21  H   UNL     1      32.970  -6.535 -21.049  0.00  0.00    +0.144 HD
ATOM     22  H   UNL     1      30.912  -1.518 -24.494  0.00  0.00    +0.156 HD
ATOM     23  H   UNL     1      31.249  -1.351 -22.831  0.00  0.00    +0.156 HD
BRANCH  17  24
ATOM     24  C   UNL     1      31.740  -6.053 -25.898  0.00  0.00    +0.056 C 
ATOM     25  C   UNL     1      32.817  -5.654 -26.901  0.00  0.00    +0.008 C 
ENDBRANCH  17  24
ENDBRANCH   9  16
BRANCH   5  28
ATOM     26  F   UNL     1      34.403 -15.424 -20.011  0.00  0.00    -0.204 F 
ATOM     27  F   UNL     1      34.576 -16.462 -24.629  0.00  0.00    -0.204 F 
ATOM     28  C   UNL     1      33.324 -13.514 -22.909  0.00  0.00    +0.031 C 
ATOM     29  C   UNL     1      33.661 -14.390 -23.939  0.00  0.00    +0.029 C 
ATOM     30  C   UNL     1      33.573 -13.861 -21.583  0.00  0.00    +0.029 C 
ATOM     31  C   UNL     1      34.163 -15.089 -21.285  0.00  0.00    +0.142 C 
ATOM     32  C   UNL     1      34.251 -15.618 -23.641  0.00  0.00    +0.142 C 
ATOM     33  C   UNL     1      34.502 -15.968 -22.315  0.00  0.00    +0.059 C 
ENDBRANCH   5  28
BRANCH   3  34
ATOM     34  C   UNL     1      30.041 -10.105 -21.452  0.00  0.00    +0.101 C 
BRANCH  34  35
ATOM     35  C   UNL     1      30.380  -9.335 -20.184  0.00  0.00    +0.054 C 
BRANCH  35  36
ATOM     36  C   UNL     1      31.376 -10.070 -19.295  0.00  0.00    +0.144 C 
BRANCH  36  37
ATOM     37  O   UNL     1      32.206  -9.113 -18.649  0.00  0.00    -0.351 OA
ATOM     38  C   UNL     1      31.896  -7.789 -19.062  0.00  0.00    +0.174 C 
ENDBRANCH  36  37
ENDBRANCH  35  36
ENDBRANCH  34  35
ENDBRANCH   3  34
TORSDOF 7
ENDMDL
MODEL 4
REMARK VINA RESULT:      -9.6      3.305      6.434
REMARK  Name = 20843156
REMARK  7 active torsions:
REMARK  status: ('A' for Active; 'I' for Inactive)
REMARK    1  A    between atoms: N_3  and  C_34
REMARK    2  A    between atoms: C_5  and  C_28
REMARK    3  A    between atoms: C_9  and  C_16
REMARK    4  A    between atoms: C_17  and  C_24
REMARK    5  A    between atoms: C_34  and  C_35
REMARK    6  A    between atoms: C_35  and  C_36
REMARK    7  A    between atoms: C_36  and  O_37
REMARK                            x       y       z     vdW  Elec       q    Type
REMARK                         _______ _______ _______ _____ _____    ______ ____
ROOT
ATOM      1  O   UNL     1      35.728 -20.040 -19.244  0.00  0.00    -0.464 OA
ATOM      2  O   UNL     1      32.369 -20.714 -20.254  0.00  0.00    -0.270 OA
ATOM      3  N   UNL     1      33.540 -21.663 -18.480  0.00  0.00    -0.253 N 
ATOM      4  C   UNL     1      34.752 -21.665 -17.732  0.00  0.00    +0.088 C 
ATOM      5  C   UNL     1      34.405 -19.629 -19.541  0.00  0.00    +0.264 C 
ATOM      6  C   UNL     1      33.341 -20.728 -19.498  0.00  0.00    +0.274 C 
ATOM      7  C   UNL     1      35.808 -20.846 -18.144  0.00  0.00    +0.153 C 
ATOM      8  C   UNL     1      34.947 -22.496 -16.619  0.00  0.00    +0.015 C 
ATOM      9  C   UNL     1      36.169 -22.502 -15.940  0.00  0.00    -0.007 C 
ATOM     10  C   UNL     1      37.036 -20.867 -17.478  0.00  0.00    +0.038 C 
ATOM     11  C   UNL     1      37.213 -21.689 -16.369  0.00  0.00    -0.000 C 
ENDROOT
BRANCH   9  16
ATOM     12  N   UNL     1      35.462 -24.382 -12.798  0.00  0.00    -0.337 NA
ATOM     13  N   UNL     1      37.739 -24.814 -13.460  0.00  0.00    -0.317 NA
ATOM     14  N   UNL     1      38.632 -23.824 -15.413  0.00  0.00    -0.335 N 
ATOM     15  N   UNL     1      36.840 -25.791 -11.525  0.00  0.00    -0.283 N 
ATOM     16  C   UNL     1      36.352 -23.362 -14.789  0.00  0.00    +0.138 C 
ATOM     17  C   UNL     1      35.337 -23.588 -13.882  0.00  0.00    +0.112 C 
ATOM     18  C   UNL     1      37.543 -24.009 -14.524  0.00  0.00    +0.178 C 
ATOM     19  C   UNL     1      36.672 -24.955 -12.650  0.00  0.00    +0.196 C 
ATOM     20  H   UNL     1      39.489 -24.276 -15.241  0.00  0.00    +0.144 HD
ATOM     21  H   UNL     1      38.530 -23.244 -16.202  0.00  0.00    +0.144 HD
ATOM     22  H   UNL     1      36.094 -25.930 -10.899  0.00  0.00    +0.156 HD
ATOM     23  H   UNL     1      37.704 -26.237 -11.368  0.00  0.00    +0.156 HD
BRANCH  17  24
ATOM     24  C   UNL     1      33.997 -22.949 -14.052  0.00  0.00    +0.056 C 
ATOM     25  C   UNL     1      32.928 -23.609 -13.187  0.00  0.00    +0.008 C 
ENDBRANCH  17  24
ENDBRANCH   9  16
BRANCH   5  28
ATOM     26  F   UNL     1      34.195 -19.916 -24.395  0.00  0.00    -0.204 F 
ATOM     27  F   UNL     1      34.956 -15.703 -22.368  0.00  0.00    -0.204 F 
ATOM     28  C   UNL     1      34.465 -18.989 -20.891  0.00  0.00    +0.031 C 
ATOM     29  C   UNL     1      34.687 -17.618 -21.000  0.00  0.00    +0.029 C 
ATOM     30  C   UNL     1      34.298 -19.766 -22.034  0.00  0.00    +0.029 C 
ATOM     31  C   UNL     1      34.355 -19.170 -23.294  0.00  0.00    +0.142 C 
ATOM     32  C   UNL     1      34.744 -17.022 -22.260  0.00  0.00    +0.142 C 
ATOM     33  C   UNL     1      34.577 -17.797 -23.406  0.00  0.00    +0.059 C 
ENDBRANCH   5  28
BRANCH   3  34
ATOM     34  C   UNL     1      32.513 -22.658 -18.198  0.00  0.00    +0.101 C 
BRANCH  34  35
ATOM     35  C   UNL     1      31.442 -22.139 -17.248  0.00  0.00    +0.054 C 
BRANCH  35  36
ATOM     36  C   UNL     1      31.102 -23.132 -16.142  0.00  0.00    +0.144 C 
BRANCH  36  37
ATOM     37  O   UNL     1      30.035 -22.603 -15.366  0.00  0.00    -0.351 OA
ATOM     38  C   UNL     1      28.867 -22.402 -16.150  0.00  0.00    +0.174 C 
ENDBRANCH  36  37
ENDBRANCH  35  36
ENDBRANCH  34  35
ENDBRANCH   3  34
TORSDOF 7
ENDMDL
MODEL 5
REMARK VINA RESULT:      -9.5      3.826      8.418
REMARK  Name = 20843156
REMARK  7 active torsions:
REMARK  status: ('A' for Active; 'I' for Inactive)
REMARK    1  A    between atoms: N_3  and  C_34
REMARK    2  A    between atoms: C_5  and  C_28
REMARK    3  A    between atoms: C_9  and  C_16
REMARK    4  A    between atoms: C_17  and  C_24
REMARK    5  A    between atoms: C_34  and  C_35
REMARK    6  A    between atoms: C_35  and  C_36
REMARK    7  A    between atoms: C_36  and  O_37
REMARK                            x       y       z     vdW  Elec       q    Type
REMARK                         _______ _______ _______ _____ _____    ______ ____
ROOT
ATOM      1  O   UNL     1      36.066 -22.399 -15.607  0.00  0.00    -0.464 OA
ATOM      2  O   UNL     1      33.219 -24.251 -14.502  0.00  0.00    -0.270 OA
ATOM      3  N   UNL     1      33.403 -22.925 -16.407  0.00  0.00    -0.253 N 
ATOM      4  C   UNL     1      34.265 -22.125 -17.209  0.00  0.00    +0.088 C 
ATOM      5  C   UNL     1      35.434 -23.605 -15.213  0.00  0.00    +0.264 C 
ATOM      6  C   UNL     1      33.906 -23.615 -15.302  0.00  0.00    +0.274 C 
ATOM      7  C   UNL     1      35.575 -21.891 -16.777  0.00  0.00    +0.153 C 
ATOM      8  C   UNL     1      33.837 -21.517 -18.398  0.00  0.00    +0.015 C 
ATOM      9  C   UNL     1      34.702 -20.700 -19.133  0.00  0.00    -0.007 C 
ATOM     10  C   UNL     1      36.433 -21.059 -17.500  0.00  0.00    +0.038 C 
ATOM     11  C   UNL     1      35.998 -20.470 -18.683  0.00  0.00    -0.000 C 
ENDROOT
BRANCH   9  16
ATOM     12  N   UNL     1      34.721 -18.793 -22.337  0.00  0.00    -0.337 NA
ATOM     13  N   UNL     1      32.487 -19.602 -21.934  0.00  0.00    -0.317 NA
ATOM     14  N   UNL     1      31.999 -20.875 -20.001  0.00  0.00    -0.335 N 
ATOM     15  N   UNL     1      32.985 -18.340 -23.848  0.00  0.00    -0.283 N 
ATOM     16  C   UNL     1      34.245 -20.086 -20.362  0.00  0.00    +0.138 C 
ATOM     17  C   UNL     1      35.102 -19.380 -21.182  0.00  0.00    +0.112 C 
ATOM     18  C   UNL     1      32.936 -20.165 -20.794  0.00  0.00    +0.178 C 
ATOM     19  C   UNL     1      33.419 -18.942 -22.647  0.00  0.00    +0.196 C 
ATOM     20  H   UNL     1      31.060 -20.943 -20.292  0.00  0.00    +0.144 HD
ATOM     21  H   UNL     1      32.287 -21.301 -19.162  0.00  0.00    +0.144 HD
ATOM     22  H   UNL     1      33.623 -17.844 -24.409  0.00  0.00    +0.156 HD
ATOM     23  H   UNL     1      32.043 -18.417 -24.125  0.00  0.00    +0.156 HD
BRANCH  17  24
ATOM     24  C   UNL     1      36.546 -19.219 -20.832  0.00  0.00    +0.056 C 
ATOM     25  C   UNL     1      37.239 -18.180 -21.706  0.00  0.00    +0.008 C 
ENDBRANCH  17  24
ENDBRANCH   9  16
BRANCH   5  28
ATOM     26  F   UNL     1      37.074 -26.650 -11.788  0.00  0.00    -0.204 F 
ATOM     27  F   UNL     1      36.412 -22.090 -10.690  0.00  0.00    -0.204 F 
ATOM     28  C   UNL     1      35.894 -23.874 -13.816  0.00  0.00    +0.031 C 
ATOM     29  C   UNL     1      35.939 -22.835 -12.888  0.00  0.00    +0.029 C 
ATOM     30  C   UNL     1      36.277 -25.161 -13.448  0.00  0.00    +0.029 C 
ATOM     31  C   UNL     1      36.706 -25.413 -12.145  0.00  0.00    +0.142 C 
ATOM     32  C   UNL     1      36.367 -23.087 -11.585  0.00  0.00    +0.142 C 
ATOM     33  C   UNL     1      36.751 -24.375 -11.213  0.00  0.00    +0.059 C 
ENDBRANCH   5  28
BRANCH   3  34
ATOM     34  C   UNL     1      31.983 -23.004 -16.726  0.00  0.00    +0.101 C 
BRANCH  34  35
ATOM     35  C   UNL     1      31.109 -22.354 -15.662  0.00  0.00    +0.054 C 
BRANCH  35  36
ATOM     36  C   UNL     1      29.664 -22.838 -15.709  0.00  0.00    +0.144 C 
BRANCH  36  37
ATOM     37  O   UNL     1      28.951 -22.059 -16.661  0.00  0.00    -0.351 OA
ATOM     38  C   UNL     1      27.560 -22.348 -16.635  0.00  0.00    +0.174 C 
ENDBRANCH  36  37
ENDBRANCH  35  36
ENDBRANCH  34  35
ENDBRANCH   3  34
TORSDOF 7
ENDMDL
MODEL 6
REMARK VINA RESULT:      -9.2     12.475     17.390
REMARK  Name = 20843156
REMARK  7 active torsions:
REMARK  status: ('A' for Active; 'I' for Inactive)
REMARK    1  A    between atoms: N_3  and  C_34
REMARK    2  A    between atoms: C_5  and  C_28
REMARK    3  A    between atoms: C_9  and  C_16
REMARK    4  A    between atoms: C_17  and  C_24
REMARK    5  A    between atoms: C_34  and  C_35
REMARK    6  A    between atoms: C_35  and  C_36
REMARK    7  A    between atoms: C_36  and  O_37
REMARK                            x       y       z     vdW  Elec       q    Type
REMARK                         _______ _______ _______ _____ _____    ______ ____
ROOT
ATOM      1  O   UNL     1      33.936 -11.169 -23.295  0.00  0.00    -0.464 OA
ATOM      2  O   UNL     1      30.974 -12.521 -21.829  0.00  0.00    -0.270 OA
ATOM      3  N   UNL     1      31.384 -10.309 -22.427  0.00  0.00    -0.253 N 
ATOM      4  C   UNL     1      32.297  -9.400 -23.033  0.00  0.00    +0.088 C 
ATOM      5  C   UNL     1      32.849 -12.078 -23.283  0.00  0.00    +0.264 C 
ATOM      6  C   UNL     1      31.657 -11.678 -22.412  0.00  0.00    +0.274 C 
ATOM      7  C   UNL     1      33.548  -9.868 -23.450  0.00  0.00    +0.153 C 
ATOM      8  C   UNL     1      32.011  -8.036 -23.188  0.00  0.00    +0.015 C 
ATOM      9  C   UNL     1      32.953  -7.168 -23.747  0.00  0.00    -0.007 C 
ATOM     10  C   UNL     1      34.498  -8.997 -23.990  0.00  0.00    +0.038 C 
ATOM     11  C   UNL     1      34.197  -7.648 -24.146  0.00  0.00    -0.000 C 
ENDROOT
BRANCH   9  16
ATOM     12  N   UNL     1      32.055  -3.644 -22.923  0.00  0.00    -0.337 NA
ATOM     13  N   UNL     1      32.314  -3.836 -25.311  0.00  0.00    -0.317 NA
ATOM     14  N   UNL     1      32.888  -5.908 -26.296  0.00  0.00    -0.335 N 
ATOM     15  N   UNL     1      31.746  -1.786 -24.321  0.00  0.00    -0.283 N 
ATOM     16  C   UNL     1      32.638  -5.764 -23.905  0.00  0.00    +0.138 C 
ATOM     17  C   UNL     1      32.352  -4.957 -22.822  0.00  0.00    +0.112 C 
ATOM     18  C   UNL     1      32.605  -5.142 -25.137  0.00  0.00    +0.178 C 
ATOM     19  C   UNL     1      32.054  -3.156 -24.177  0.00  0.00    +0.196 C 
ATOM     20  H   UNL     1      32.869  -5.482 -27.183  0.00  0.00    +0.144 HD
ATOM     21  H   UNL     1      33.105  -6.865 -26.212  0.00  0.00    +0.144 HD
ATOM     22  H   UNL     1      31.547  -1.241 -23.526  0.00  0.00    +0.156 HD
ATOM     23  H   UNL     1      31.732  -1.375 -25.216  0.00  0.00    +0.156 HD
BRANCH  17  24
ATOM     24  C   UNL     1      32.354  -5.505 -21.432  0.00  0.00    +0.056 C 
ATOM     25  C   UNL     1      31.138  -5.053 -20.631  0.00  0.00    +0.008 C 
ENDBRANCH  17  24
ENDBRANCH   9  16
BRANCH   5  28
ATOM     26  F   UNL     1      34.665 -16.474 -24.318  0.00  0.00    -0.204 F 
ATOM     27  F   UNL     1      34.259 -15.158 -19.786  0.00  0.00    -0.204 F 
ATOM     28  C   UNL     1      33.416 -13.392 -22.850  0.00  0.00    +0.031 C 
ATOM     29  C   UNL     1      33.576 -13.666 -21.493  0.00  0.00    +0.029 C 
ATOM     30  C   UNL     1      33.783 -14.338 -23.805  0.00  0.00    +0.029 C 
ATOM     31  C   UNL     1      34.312 -15.564 -23.401  0.00  0.00    +0.142 C 
ATOM     32  C   UNL     1      34.104 -14.893 -21.090  0.00  0.00    +0.142 C 
ATOM     33  C   UNL     1      34.472 -15.841 -22.043  0.00  0.00    +0.059 C 
ENDBRANCH   5  28
BRANCH   3  34
ATOM     34  C   UNL     1      30.171  -9.804 -21.796  0.00  0.00    +0.101 C 
BRANCH  34  35
ATOM     35  C   UNL     1      30.436  -9.192 -20.428  0.00  0.00    +0.054 C 
BRANCH  35  36
ATOM     36  C   UNL     1      31.242 -10.109 -19.516  0.00  0.00    +0.144 C 
BRANCH  36  37
ATOM     37  O   UNL     1      31.941  -9.313 -18.568  0.00  0.00    -0.351 OA
ATOM     38  C   UNL     1      32.056  -7.965 -19.002  0.00  0.00    +0.174 C 
ENDBRANCH  36  37
ENDBRANCH  35  36
ENDBRANCH  34  35
ENDBRANCH   3  34
TORSDOF 7
ENDMDL
MODEL 7
REMARK VINA RESULT:      -8.8      3.950      8.397
REMARK  Name = 20843156
REMARK  7 active torsions:
REMARK  status: ('A' for Active; 'I' for Inactive)
REMARK    1  A    between atoms: N_3  and  C_34
REMARK    2  A    between atoms: C_5  and  C_28
REMARK    3  A    between atoms: C_9  and  C_16
REMARK    4  A    between atoms: C_17  and  C_24
REMARK    5  A    between atoms: C_34  and  C_35
REMARK    6  A    between atoms: C_35  and  C_36
REMARK    7  A    between atoms: C_36  and  O_37
REMARK                            x       y       z     vdW  Elec       q    Type
REMARK                         _______ _______ _______ _____ _____    ______ ____
ROOT
ATOM      1  O   UNL     1      36.383 -22.223 -15.470  0.00  0.00    -0.464 OA
ATOM      2  O   UNL     1      33.614 -24.358 -14.744  0.00  0.00    -0.270 OA
ATOM      3  N   UNL     1      33.873 -22.932 -16.566  0.00  0.00    -0.253 N 
ATOM      4  C   UNL     1      34.737 -22.025 -17.241  0.00  0.00    +0.088 C 
ATOM      5  C   UNL     1      35.824 -23.495 -15.192  0.00  0.00    +0.264 C 
ATOM      6  C   UNL     1      34.320 -23.629 -15.441  0.00  0.00    +0.274 C 
ATOM      7  C   UNL     1      35.971 -21.703 -16.665  0.00  0.00    +0.153 C 
ATOM      8  C   UNL     1      34.381 -21.399 -18.444  0.00  0.00    +0.015 C 
ATOM      9  C   UNL     1      35.239 -20.479 -19.052  0.00  0.00    -0.007 C 
ATOM     10  C   UNL     1      36.821 -20.767 -17.261  0.00  0.00    +0.038 C 
ATOM     11  C   UNL     1      36.458 -20.162 -18.460  0.00  0.00    -0.000 C 
ENDROOT
BRANCH   9  16
ATOM     12  N   UNL     1      33.223 -19.491 -22.029  0.00  0.00    -0.337 NA
ATOM     13  N   UNL     1      35.366 -18.396 -22.151  0.00  0.00    -0.317 NA
ATOM     14  N   UNL     1      36.986 -18.731 -20.461  0.00  0.00    -0.335 N 
ATOM     15  N   UNL     1      33.750 -18.071 -23.820  0.00  0.00    -0.283 N 
ATOM     16  C   UNL     1      34.858 -19.847 -20.298  0.00  0.00    +0.138 C 
ATOM     17  C   UNL     1      33.621 -20.060 -20.871  0.00  0.00    +0.112 C 
ATOM     18  C   UNL     1      35.697 -18.997 -20.990  0.00  0.00    +0.178 C 
ATOM     19  C   UNL     1      34.131 -18.683 -22.607  0.00  0.00    +0.196 C 
ATOM     20  H   UNL     1      37.599 -18.128 -20.940  0.00  0.00    +0.144 HD
ATOM     21  H   UNL     1      37.266 -19.150 -19.615  0.00  0.00    +0.144 HD
ATOM     22  H   UNL     1      32.858 -18.246 -24.200  0.00  0.00    +0.156 HD
ATOM     23  H   UNL     1      34.374 -17.470 -24.287  0.00  0.00    +0.156 HD
BRANCH  17  24
ATOM     24  C   UNL     1      32.616 -20.958 -20.224  0.00  0.00    +0.056 C 
ATOM     25  C   UNL     1      31.596 -20.183 -19.397  0.00  0.00    +0.008 C 
ENDBRANCH  17  24
ENDBRANCH   9  16
BRANCH   5  28
ATOM     26  F   UNL     1      37.158 -26.606 -11.695  0.00  0.00    -0.204 F 
ATOM     27  F   UNL     1      36.413 -22.065 -10.575  0.00  0.00    -0.204 F 
ATOM     28  C   UNL     1      36.162 -23.790 -13.766  0.00  0.00    +0.031 C 
ATOM     29  C   UNL     1      36.128 -22.769 -12.819  0.00  0.00    +0.029 C 
ATOM     30  C   UNL     1      36.509 -25.085 -13.390  0.00  0.00    +0.029 C 
ATOM     31  C   UNL     1      36.824 -25.362 -12.059  0.00  0.00    +0.142 C 
ATOM     32  C   UNL     1      36.443 -23.045 -11.488  0.00  0.00    +0.142 C 
ATOM     33  C   UNL     1      36.791 -24.341 -11.109  0.00  0.00    +0.059 C 
ENDBRANCH   5  28
BRANCH   3  34
ATOM     34  C   UNL     1      32.505 -23.115 -17.035  0.00  0.00    +0.101 C 
BRANCH  34  35
ATOM     35  C   UNL     1      31.512 -22.225 -16.301  0.00  0.00    +0.054 C 
BRANCH  35  36
ATOM     36  C   UNL     1      30.164 -22.901 -16.078  0.00  0.00    +0.144 C 
BRANCH  36  37
ATOM     37  O   UNL     1      29.152 -22.122 -16.701  0.00  0.00    -0.351 OA
ATOM     38  C   UNL     1      27.862 -22.683 -16.498  0.00  0.00    +0.174 C 
ENDBRANCH  36  37
ENDBRANCH  35  36
ENDBRANCH  34  35
ENDBRANCH   3  34
TORSDOF 7
ENDMDL
MODEL 8
REMARK VINA RESULT:      -8.4      0.730      2.326
REMARK  Name = 20843156
REMARK  7 active torsions:
REMARK  status: ('A' for Active; 'I' for Inactive)
REMARK    1  A    between atoms: N_3  and  C_34
REMARK    2  A    between atoms: C_5  and  C_28
REMARK    3  A    between atoms: C_9  and  C_16
REMARK    4  A    between atoms: C_17  and  C_24
REMARK    5  A    between atoms: C_34  and  C_35
REMARK    6  A    between atoms: C_35  and  C_36
REMARK    7  A    between atoms: C_36  and  O_37
REMARK                            x       y       z     vdW  Elec       q    Type
REMARK                         _______ _______ _______ _____ _____    ______ ____
ROOT
ATOM      1  O   UNL     1      31.228 -23.464 -14.718  0.00  0.00    -0.464 OA
ATOM      2  O   UNL     1      31.098 -21.715 -17.829  0.00  0.00    -0.270 OA
ATOM      3  N   UNL     1      32.976 -22.580 -16.760  0.00  0.00    -0.253 N 
ATOM      4  C   UNL     1      33.463 -23.329 -15.652  0.00  0.00    +0.088 C 
ATOM      5  C   UNL     1      30.745 -23.297 -16.040  0.00  0.00    +0.264 C 
ATOM      6  C   UNL     1      31.602 -22.421 -16.956  0.00  0.00    +0.274 C 
ATOM      7  C   UNL     1      32.564 -23.748 -14.665  0.00  0.00    +0.153 C 
ATOM      8  C   UNL     1      34.823 -23.625 -15.483  0.00  0.00    +0.015 C 
ATOM      9  C   UNL     1      35.267 -24.323 -14.356  0.00  0.00    -0.007 C 
ATOM     10  C   UNL     1      33.009 -24.428 -13.529  0.00  0.00    +0.038 C 
ATOM     11  C   UNL     1      34.360 -24.723 -13.378  0.00  0.00    -0.000 C 
ENDROOT
BRANCH   9  16
ATOM     12  N   UNL     1      38.483 -26.209 -14.330  0.00  0.00    -0.337 NA
ATOM     13  N   UNL     1      38.912 -23.943 -13.633  0.00  0.00    -0.317 NA
ATOM     14  N   UNL     1      37.150 -22.371 -13.499  0.00  0.00    -0.335 N 
ATOM     15  N   UNL     1      40.652 -25.512 -13.771  0.00  0.00    -0.283 N 
ATOM     16  C   UNL     1      36.674 -24.626 -14.200  0.00  0.00    +0.138 C 
ATOM     17  C   UNL     1      37.179 -25.883 -14.460  0.00  0.00    +0.112 C 
ATOM     18  C   UNL     1      37.597 -23.686 -13.786  0.00  0.00    +0.178 C 
ATOM     19  C   UNL     1      39.281 -25.207 -13.919  0.00  0.00    +0.196 C 
ATOM     20  H   UNL     1      37.793 -21.687 -13.202  0.00  0.00    +0.144 HD
ATOM     21  H   UNL     1      36.198 -22.143 -13.598  0.00  0.00    +0.144 HD
ATOM     22  H   UNL     1      40.978 -26.420 -13.966  0.00  0.00    +0.156 HD
ATOM     23  H   UNL     1      41.282 -24.816 -13.474  0.00  0.00    +0.156 HD
BRANCH  17  24
ATOM     24  C   UNL     1      36.288 -26.992 -14.917  0.00  0.00    +0.056 C 
ATOM     25  C   UNL     1      36.441 -27.281 -16.406  0.00  0.00    +0.008 C 
ENDBRANCH  17  24
ENDBRANCH   9  16
BRANCH   5  28
ATOM     26  F   UNL     1      26.307 -22.456 -17.853  0.00  0.00    -0.204 F 
ATOM     27  F   UNL     1      27.317 -20.989 -13.464  0.00  0.00    -0.204 F 
ATOM     28  C   UNL     1      29.362 -22.743 -15.906  0.00  0.00    +0.031 C 
ATOM     29  C   UNL     1      28.979 -22.112 -14.724  0.00  0.00    +0.029 C 
ATOM     30  C   UNL     1      28.463 -22.861 -16.962  0.00  0.00    +0.029 C 
ATOM     31  C   UNL     1      27.173 -22.344 -16.838  0.00  0.00    +0.142 C 
ATOM     32  C   UNL     1      27.689 -21.595 -14.599  0.00  0.00    +0.142 C 
ATOM     33  C   UNL     1      26.787 -21.712 -15.656  0.00  0.00    +0.059 C 
ENDBRANCH   5  28
BRANCH   3  34
ATOM     34  C   UNL     1      33.917 -21.955 -17.681  0.00  0.00    +0.101 C 
BRANCH  34  35
ATOM     35  C   UNL     1      33.466 -22.052 -19.132  0.00  0.00    +0.054 C 
BRANCH  35  36
ATOM     36  C   UNL     1      33.369 -20.693 -19.814  0.00  0.00    +0.144 C 
BRANCH  36  37
ATOM     37  O   UNL     1      34.675 -20.141 -19.922  0.00  0.00    -0.351 OA
ATOM     38  C   UNL     1      34.730 -19.119 -20.908  0.00  0.00    +0.174 C 
ENDBRANCH  36  37
ENDBRANCH  35  36
ENDBRANCH  34  35
ENDBRANCH   3  34
TORSDOF 7
ENDMDL
MODEL 9
REMARK VINA RESULT:      -7.5      4.040      7.458
REMARK  Name = 20843156
REMARK  7 active torsions:
REMARK  status: ('A' for Active; 'I' for Inactive)
REMARK    1  A    between atoms: N_3  and  C_34
REMARK    2  A    between atoms: C_5  and  C_28
REMARK    3  A    between atoms: C_9  and  C_16
REMARK    4  A    between atoms: C_17  and  C_24
REMARK    5  A    between atoms: C_34  and  C_35
REMARK    6  A    between atoms: C_35  and  C_36
REMARK    7  A    between atoms: C_36  and  O_37
REMARK                            x       y       z     vdW  Elec       q    Type
REMARK                         _______ _______ _______ _____ _____    ______ ____
ROOT
ATOM      1  O   UNL     1      32.769 -20.012 -19.948  0.00  0.00    -0.464 OA
ATOM      2  O   UNL     1      36.311 -20.257 -20.332  0.00  0.00    -0.270 OA
ATOM      3  N   UNL     1      34.985 -21.246 -18.694  0.00  0.00    -0.253 N 
ATOM      4  C   UNL     1      33.660 -21.462 -18.220  0.00  0.00    +0.088 C 
ATOM      5  C   UNL     1      33.927 -20.323 -20.704  0.00  0.00    +0.264 C 
ATOM      6  C   UNL     1      35.203 -20.568 -19.896  0.00  0.00    +0.274 C 
ATOM      7  C   UNL     1      32.593 -20.833 -18.870  0.00  0.00    +0.153 C 
ATOM      8  C   UNL     1      33.384 -22.245 -17.090  0.00  0.00    +0.015 C 
ATOM      9  C   UNL     1      32.073 -22.393 -16.628  0.00  0.00    -0.007 C 
ATOM     10  C   UNL     1      31.285 -20.964 -18.398  0.00  0.00    +0.038 C 
ATOM     11  C   UNL     1      31.024 -21.752 -17.281  0.00  0.00    -0.000 C 
ENDROOT
BRANCH   9  16
ATOM     12  N   UNL     1      30.343 -24.707 -14.270  0.00  0.00    -0.337 NA
ATOM     13  N   UNL     1      32.465 -24.078 -13.317  0.00  0.00    -0.317 NA
ATOM     14  N   UNL     1      33.916 -22.611 -14.473  0.00  0.00    -0.335 N 
ATOM     15  N   UNL     1      31.018 -25.535 -12.181  0.00  0.00    -0.283 N 
ATOM     16  C   UNL     1      31.804 -23.211 -15.463  0.00  0.00    +0.138 C 
ATOM     17  C   UNL     1      30.634 -23.932 -15.336  0.00  0.00    +0.112 C 
ATOM     18  C   UNL     1      32.692 -23.324 -14.412  0.00  0.00    +0.178 C 
ATOM     19  C   UNL     1      31.289 -24.734 -13.312  0.00  0.00    +0.196 C 
ATOM     20  H   UNL     1      34.561 -22.679 -13.732  0.00  0.00    +0.144 HD
ATOM     21  H   UNL     1      34.119 -22.049 -15.255  0.00  0.00    +0.144 HD
ATOM     22  H   UNL     1      30.173 -26.036 -12.124  0.00  0.00    +0.156 HD
ATOM     23  H   UNL     1      31.674 -25.592 -11.450  0.00  0.00    +0.156 HD
BRANCH  17  24
ATOM     24  C   UNL     1      29.589 -23.898 -16.404  0.00  0.00    +0.056 C 
ATOM     25  C   UNL     1      28.188 -23.704 -15.834  0.00  0.00    +0.008 C 
ENDBRANCH  17  24
ENDBRANCH   9  16
BRANCH   5  28
ATOM     26  F   UNL     1      35.074 -15.689 -21.651  0.00  0.00    -0.204 F 
ATOM     27  F   UNL     1      33.805 -18.524 -25.227  0.00  0.00    -0.204 F 
ATOM     28  C   UNL     1      34.107 -19.192 -21.665  0.00  0.00    +0.031 C 
ATOM     29  C   UNL     1      33.867 -19.391 -23.023  0.00  0.00    +0.029 C 
ATOM     30  C   UNL     1      34.515 -17.945 -21.200  0.00  0.00    +0.029 C 
ATOM     31  C   UNL     1      34.682 -16.889 -22.096  0.00  0.00    +0.142 C 
ATOM     32  C   UNL     1      34.035 -18.336 -23.920  0.00  0.00    +0.142 C 
ATOM     33  C   UNL     1      34.443 -17.086 -23.457  0.00  0.00    +0.059 C 
ENDBRANCH   5  28
BRANCH   3  34
ATOM     34  C   UNL     1      36.121 -21.714 -17.909  0.00  0.00    +0.101 C 
BRANCH  34  35
ATOM     35  C   UNL     1      36.503 -20.744 -16.800  0.00  0.00    +0.054 C 
BRANCH  35  36
ATOM     36  C   UNL     1      37.115 -21.440 -15.590  0.00  0.00    +0.144 C 
BRANCH  36  37
ATOM     37  O   UNL     1      36.681 -22.794 -15.573  0.00  0.00    -0.351 OA
ATOM     38  C   UNL     1      37.423 -23.568 -14.641  0.00  0.00    +0.174 C 
ENDBRANCH  36  37
ENDBRANCH  35  36
ENDBRANCH  34  35
ENDBRANCH   3  34
TORSDOF 7
ENDMDL
