MODEL 1
REMARK VINA RESULT:     -12.0      0.000      0.000
REMARK  Name = 130188
REMARK  8 active torsions:
REMARK  status: ('A' for Active; 'I' for Inactive)
REMARK    1  A    between atoms: C_1  and  C_5
REMARK    2  A    between atoms: C_1  and  C_15
REMARK    3  A    between atoms: C_15  and  C_16
REMARK    4  A    between atoms: C_16  and  O_17
REMARK    5  A    between atoms: O_17  and  C_18
REMARK    6  A    between atoms: C_23  and  C_25
REMARK    7  A    between atoms: C_25  and  O_26
REMARK    8  A    between atoms: O_26  and  C_27
REMARK                            x       y       z     vdW  Elec       q    Type
REMARK                         _______ _______ _______ _____ _____    ______ ____
ROOT
ATOM      1  C   UNL     1      33.873 -19.164 -21.362  0.00  0.00    +0.004 C 
ENDROOT
BRANCH   1   5
ATOM      2  N   UNL     1      34.658 -21.635 -17.922  0.00  0.00    -0.292 N 
ATOM      3  N   UNL     1      34.190 -23.428 -16.442  0.00  0.00    -0.133 NA
ATOM      4  N   UNL     1      34.410 -24.076 -15.266  0.00  0.00    -0.151 NA
ATOM      5  C   UNL     1      34.140 -20.380 -20.479  0.00  0.00    +0.004 C 
ATOM      6  C   UNL     1      33.041 -20.540 -19.423  0.00  0.00    +0.022 C 
ATOM      7  C   UNL     1      35.501 -20.263 -19.786  0.00  0.00    +0.022 C 
ATOM      8  C   UNL     1      33.315 -21.733 -18.508  0.00  0.00    +0.092 C 
ATOM      9  C   UNL     1      35.767 -21.454 -18.864  0.00  0.00    +0.092 C 
ATOM     10  C   UNL     1      34.884 -22.302 -16.712  0.00  0.00    +0.153 C 
ATOM     11  C   UNL     1      35.817 -21.769 -15.845  0.00  0.00    +0.037 C 
ATOM     12  C   UNL     1      36.040 -22.428 -14.649  0.00  0.00    +0.019 C 
ATOM     13  C   UNL     1      35.316 -23.577 -14.399  0.00  0.00    +0.081 C 
ATOM     14  C   UNL     1      35.519 -24.324 -13.125  0.00  0.00    +0.054 C 
ENDBRANCH   1   5
BRANCH   1  15
ATOM     15  C   UNL     1      35.082 -18.830 -22.226  0.00  0.00    +0.047 C 
BRANCH  15  16
ATOM     16  C   UNL     1      35.738 -17.529 -21.788  0.00  0.00    +0.205 C 
BRANCH  16  17
ATOM     17  O   UNL     1      34.849 -16.836 -20.921  0.00  0.00    -0.475 OA
BRANCH  17  18
ATOM     18  C   UNL     1      34.354 -15.640 -21.371  0.00  0.00    +0.139 C 
ATOM     19  C   UNL     1      34.415 -15.327 -22.730  0.00  0.00    +0.037 C 
ATOM     20  C   UNL     1      33.791 -14.736 -20.472  0.00  0.00    +0.037 C 
ATOM     21  C   UNL     1      33.915 -14.109 -23.188  0.00  0.00    +0.010 C 
ATOM     22  C   UNL     1      33.289 -13.517 -20.930  0.00  0.00    +0.010 C 
ATOM     23  C   UNL     1      33.350 -13.204 -22.288  0.00  0.00    +0.076 C 
BRANCH  23  25
ATOM     24  O   UNL     1      33.431 -11.177 -23.540  0.00  0.00    -0.245 OA
ATOM     25  C   UNL     1      32.829 -11.933 -22.766  0.00  0.00    +0.341 C 
BRANCH  25  26
ATOM     26  O   UNL     1      31.586 -11.676 -22.257  0.00  0.00    -0.445 OA
BRANCH  26  27
ATOM     27  C   UNL     1      31.292 -10.315 -21.924  0.00  0.00    +0.209 C 
ATOM     28  C   UNL     1      30.966 -10.227 -20.448  0.00  0.00    +0.051 C 
ENDBRANCH  26  27
ENDBRANCH  25  26
ENDBRANCH  23  25
ENDBRANCH  17  18
ENDBRANCH  16  17
ENDBRANCH  15  16
ENDBRANCH   1  15
TORSDOF 8
ENDMDL
MODEL 2
REMARK VINA RESULT:     -12.0      1.490      2.246
REMARK  Name = 130188
REMARK  8 active torsions:
REMARK  status: ('A' for Active; 'I' for Inactive)
REMARK    1  A    between atoms: C_1  and  C_5
REMARK    2  A    between atoms: C_1  and  C_15
REMARK    3  A    between atoms: C_15  and  C_16
REMARK    4  A    between atoms: C_16  and  O_17
REMARK    5  A    between atoms: O_17  and  C_18
REMARK    6  A    between atoms: C_23  and  C_25
REMARK    7  A    between atoms: C_25  and  O_26
REMARK    8  A    between atoms: O_26  and  C_27
REMARK                            x       y       z     vdW  Elec       q    Type
REMARK                         _______ _______ _______ _____ _____    ______ ____
ROOT
ATOM      1  C   UNL     1      34.282 -20.950 -20.202  0.00  0.00    +0.004 C 
ENDROOT
BRANCH   1   5
ATOM      2  N   UNL     1      35.603 -22.404 -16.369  0.00  0.00    -0.292 N 
ATOM      3  N   UNL     1      36.852 -22.262 -14.358  0.00  0.00    -0.133 NA
ATOM      4  N   UNL     1      37.340 -22.843 -13.229  0.00  0.00    -0.151 NA
ATOM      5  C   UNL     1      34.576 -21.040 -18.708  0.00  0.00    +0.004 C 
ATOM      6  C   UNL     1      36.082 -21.187 -18.456  0.00  0.00    +0.022 C 
ATOM      7  C   UNL     1      33.836 -22.222 -18.075  0.00  0.00    +0.022 C 
ATOM      8  C   UNL     1      36.389 -21.316 -16.965  0.00  0.00    +0.092 C 
ATOM      9  C   UNL     1      34.153 -22.354 -16.585  0.00  0.00    +0.092 C 
ATOM     10  C   UNL     1      36.105 -23.001 -15.207  0.00  0.00    +0.153 C 
ATOM     11  C   UNL     1      35.810 -24.331 -14.983  0.00  0.00    +0.037 C 
ATOM     12  C   UNL     1      36.307 -24.921 -13.835  0.00  0.00    +0.019 C 
ATOM     13  C   UNL     1      37.067 -24.142 -12.985  0.00  0.00    +0.081 C 
ATOM     14  C   UNL     1      37.626 -24.730 -11.734  0.00  0.00    +0.054 C 
ENDBRANCH   1   5
BRANCH   1  15
ATOM     15  C   UNL     1      33.829 -19.549 -20.593  0.00  0.00    +0.047 C 
BRANCH  15  16
ATOM     16  C   UNL     1      34.961 -18.754 -21.228  0.00  0.00    +0.205 C 
BRANCH  16  17
ATOM     17  O   UNL     1      35.039 -17.482 -20.598  0.00  0.00    -0.475 OA
BRANCH  17  18
ATOM     18  C   UNL     1      34.598 -16.406 -21.322  0.00  0.00    +0.139 C 
ATOM     19  C   UNL     1      34.613 -16.450 -22.716  0.00  0.00    +0.037 C 
ATOM     20  C   UNL     1      34.136 -15.266 -20.665  0.00  0.00    +0.037 C 
ATOM     21  C   UNL     1      34.168 -15.353 -23.454  0.00  0.00    +0.010 C 
ATOM     22  C   UNL     1      33.689 -14.168 -21.403  0.00  0.00    +0.010 C 
ATOM     23  C   UNL     1      33.704 -14.213 -22.797  0.00  0.00    +0.076 C 
BRANCH  23  25
ATOM     24  O   UNL     1      32.774 -13.139 -24.711  0.00  0.00    -0.245 OA
ATOM     25  C   UNL     1      33.240 -13.070 -23.566  0.00  0.00    +0.341 C 
BRANCH  25  26
ATOM     26  O   UNL     1      33.379 -11.903 -22.866  0.00  0.00    -0.445 OA
BRANCH  26  27
ATOM     27  C   UNL     1      32.240 -11.036 -22.821  0.00  0.00    +0.209 C 
ATOM     28  C   UNL     1      31.376 -11.418 -21.638  0.00  0.00    +0.051 C 
ENDBRANCH  26  27
ENDBRANCH  25  26
ENDBRANCH  23  25
ENDBRANCH  17  18
ENDBRANCH  16  17
ENDBRANCH  15  16
ENDBRANCH   1  15
TORSDOF 8
ENDMDL
MODEL 3
REMARK VINA RESULT:     -11.8      5.274     11.714
REMARK  Name = 130188
REMARK  8 active torsions:
REMARK  status: ('A' for Active; 'I' for Inactive)
REMARK    1  A    between atoms: C_1  and  C_5
REMARK    2  A    between atoms: C_1  and  C_15
REMARK    3  A    between atoms: C_15  and  C_16
REMARK    4  A    between atoms: C_16  and  O_17
REMARK    5  A    between atoms: O_17  and  C_18
REMARK    6  A    between atoms: C_23  and  C_25
REMARK    7  A    between atoms: C_25  and  O_26
REMARK    8  A    between atoms: O_26  and  C_27
REMARK                            x       y       z     vdW  Elec       q    Type
REMARK                         _______ _______ _______ _____ _____    ______ ____
ROOT
ATOM      1  C   UNL     1      33.391 -14.169 -21.653  0.00  0.00    +0.004 C 
ENDROOT
BRANCH   1   5
ATOM      2  N   UNL     1      31.808 -10.177 -21.988  0.00  0.00    -0.292 N 
ATOM      3  N   UNL     1      30.979  -8.314 -23.200  0.00  0.00    -0.133 NA
ATOM      4  N   UNL     1      30.623  -7.002 -23.250  0.00  0.00    -0.151 NA
ATOM      5  C   UNL     1      32.481 -12.993 -21.997  0.00  0.00    +0.004 C 
ATOM      6  C   UNL     1      33.206 -11.988 -22.900  0.00  0.00    +0.022 C 
ATOM      7  C   UNL     1      32.001 -12.284 -20.727  0.00  0.00    +0.022 C 
ATOM      8  C   UNL     1      32.320 -10.786 -23.223  0.00  0.00    +0.092 C 
ATOM      9  C   UNL     1      31.122 -11.076 -21.054  0.00  0.00    +0.092 C 
ATOM     10  C   UNL     1      31.440  -8.827 -22.039  0.00  0.00    +0.153 C 
ATOM     11  C   UNL     1      31.570  -8.078 -20.887  0.00  0.00    +0.037 C 
ATOM     12  C   UNL     1      31.208  -6.744 -20.938  0.00  0.00    +0.019 C 
ATOM     13  C   UNL     1      30.739  -6.246 -22.138  0.00  0.00    +0.081 C 
ATOM     14  C   UNL     1      30.336  -4.815 -22.245  0.00  0.00    +0.054 C 
ENDBRANCH   1   5
BRANCH   1  15
ATOM     15  C   UNL     1      34.206 -14.610 -22.861  0.00  0.00    +0.047 C 
BRANCH  15  16
ATOM     16  C   UNL     1      33.796 -15.998 -23.334  0.00  0.00    +0.205 C 
BRANCH  16  17
ATOM     17  O   UNL     1      34.944 -16.836 -23.347  0.00  0.00    -0.475 OA
BRANCH  17  18
ATOM     18  C   UNL     1      34.996 -17.825 -22.400  0.00  0.00    +0.139 C 
ATOM     19  C   UNL     1      36.127 -17.962 -21.595  0.00  0.00    +0.037 C 
ATOM     20  C   UNL     1      33.919 -18.697 -22.242  0.00  0.00    +0.037 C 
ATOM     21  C   UNL     1      36.182 -18.970 -20.633  0.00  0.00    +0.010 C 
ATOM     22  C   UNL     1      33.973 -19.706 -21.279  0.00  0.00    +0.010 C 
ATOM     23  C   UNL     1      35.104 -19.841 -20.474  0.00  0.00    +0.076 C 
BRANCH  23  25
ATOM     24  O   UNL     1      34.479 -21.926 -19.501  0.00  0.00    -0.245 OA
ATOM     25  C   UNL     1      35.162 -20.893 -19.472  0.00  0.00    +0.341 C 
BRANCH  25  26
ATOM     26  O   UNL     1      36.068 -20.602 -18.489  0.00  0.00    -0.445 OA
BRANCH  26  27
ATOM     27  C   UNL     1      36.097 -21.478 -17.356  0.00  0.00    +0.209 C 
ATOM     28  C   UNL     1      37.044 -20.911 -16.320  0.00  0.00    +0.051 C 
ENDBRANCH  26  27
ENDBRANCH  25  26
ENDBRANCH  23  25
ENDBRANCH  17  18
ENDBRANCH  16  17
ENDBRANCH  15  16
ENDBRANCH   1  15
TORSDOF 8
ENDMDL
MODEL 4
REMARK VINA RESULT:     -11.8      0.926      1.519
REMARK  Name = 130188
REMARK  8 active torsions:
REMARK  status: ('A' for Active; 'I' for Inactive)
REMARK    1  A    between atoms: C_1  and  C_5
REMARK    2  A    between atoms: C_1  and  C_15
REMARK    3  A    between atoms: C_15  and  C_16
REMARK    4  A    between atoms: C_16  and  O_17
REMARK    5  A    between atoms: O_17  and  C_18
REMARK    6  A    between atoms: C_23  and  C_25
REMARK    7  A    between atoms: C_25  and  O_26
REMARK    8  A    between atoms: O_26  and  C_27
REMARK                            x       y       z     vdW  Elec       q    Type
REMARK                         _______ _______ _______ _____ _____    ______ ____
ROOT
ATOM      1  C   UNL     1      34.129 -18.855 -21.837  0.00  0.00    +0.004 C 
ENDROOT
BRANCH   1   5
ATOM      2  N   UNL     1      34.672 -21.380 -18.390  0.00  0.00    -0.292 N 
ATOM      3  N   UNL     1      34.040 -23.124 -16.912  0.00  0.00    -0.133 NA
ATOM      4  N   UNL     1      34.194 -23.787 -15.734  0.00  0.00    -0.151 NA
ATOM      5  C   UNL     1      34.283 -20.088 -20.951  0.00  0.00    +0.004 C 
ATOM      6  C   UNL     1      33.167 -20.150 -19.902  0.00  0.00    +0.022 C 
ATOM      7  C   UNL     1      35.644 -20.090 -20.249  0.00  0.00    +0.022 C 
ATOM      8  C   UNL     1      33.330 -21.361 -18.984  0.00  0.00    +0.092 C 
ATOM      9  C   UNL     1      35.800 -21.297 -19.324  0.00  0.00    +0.092 C 
ATOM     10  C   UNL     1      34.832 -22.063 -17.178  0.00  0.00    +0.153 C 
ATOM     11  C   UNL     1      35.801 -21.612 -16.304  0.00  0.00    +0.037 C 
ATOM     12  C   UNL     1      35.958 -22.286 -15.107  0.00  0.00    +0.019 C 
ATOM     13  C   UNL     1      35.135 -23.368 -14.861  0.00  0.00    +0.081 C 
ATOM     14  C   UNL     1      35.263 -24.128 -13.585  0.00  0.00    +0.054 C 
ENDBRANCH   1   5
BRANCH   1  15
ATOM     15  C   UNL     1      35.217 -17.828 -21.550  0.00  0.00    +0.047 C 
BRANCH  15  16
ATOM     16  C   UNL     1      34.625 -16.482 -21.157  0.00  0.00    +0.205 C 
BRANCH  16  17
ATOM     17  O   UNL     1      34.666 -15.616 -22.283  0.00  0.00    -0.475 OA
BRANCH  17  18
ATOM     18  C   UNL     1      33.920 -14.469 -22.208  0.00  0.00    +0.139 C 
ATOM     19  C   UNL     1      33.325 -14.102 -21.000  0.00  0.00    +0.037 C 
ATOM     20  C   UNL     1      33.754 -13.670 -23.338  0.00  0.00    +0.037 C 
ATOM     21  C   UNL     1      32.563 -12.937 -20.924  0.00  0.00    +0.010 C 
ATOM     22  C   UNL     1      32.993 -12.502 -23.262  0.00  0.00    +0.010 C 
ATOM     23  C   UNL     1      32.398 -12.136 -22.054  0.00  0.00    +0.076 C 
BRANCH  23  25
ATOM     24  O   UNL     1      31.608 -10.024 -22.828  0.00  0.00    -0.245 OA
ATOM     25  C   UNL     1      31.603 -10.921 -21.975  0.00  0.00    +0.341 C 
BRANCH  25  26
ATOM     26  O   UNL     1      30.844 -10.891 -20.837  0.00  0.00    -0.445 OA
BRANCH  26  27
ATOM     27  C   UNL     1      30.715  -9.626 -20.179  0.00  0.00    +0.209 C 
ATOM     28  C   UNL     1      31.452  -9.681 -18.857  0.00  0.00    +0.051 C 
ENDBRANCH  26  27
ENDBRANCH  25  26
ENDBRANCH  23  25
ENDBRANCH  17  18
ENDBRANCH  16  17
ENDBRANCH  15  16
ENDBRANCH   1  15
TORSDOF 8
ENDMDL
MODEL 5
REMARK VINA RESULT:     -11.7      5.073     11.594
REMARK  Name = 130188
REMARK  8 active torsions:
REMARK  status: ('A' for Active; 'I' for Inactive)
REMARK    1  A    between atoms: C_1  and  C_5
REMARK    2  A    between atoms: C_1  and  C_15
REMARK    3  A    between atoms: C_15  and  C_16
REMARK    4  A    between atoms: C_16  and  O_17
REMARK    5  A    between atoms: O_17  and  C_18
REMARK    6  A    between atoms: C_23  and  C_25
REMARK    7  A    between atoms: C_25  and  O_26
REMARK    8  A    between atoms: O_26  and  C_27
REMARK                            x       y       z     vdW  Elec       q    Type
REMARK                         _______ _______ _______ _____ _____    ______ ____
ROOT
ATOM      1  C   UNL     1      33.856 -14.795 -21.563  0.00  0.00    +0.004 C 
ENDROOT
BRANCH   1   5
ATOM      2  N   UNL     1      32.129 -10.885 -22.092  0.00  0.00    -0.292 N 
ATOM      3  N   UNL     1      31.371  -9.055 -23.397  0.00  0.00    -0.133 NA
ATOM      4  N   UNL     1      30.958  -7.762 -23.489  0.00  0.00    -0.151 NA
ATOM      5  C   UNL     1      32.941 -13.663 -22.020  0.00  0.00    +0.004 C 
ATOM      6  C   UNL     1      33.725 -12.615 -22.817  0.00  0.00    +0.022 C 
ATOM      7  C   UNL     1      32.263 -12.990 -20.822  0.00  0.00    +0.022 C 
ATOM      8  C   UNL     1      32.828 -11.456 -23.250  0.00  0.00    +0.092 C 
ATOM      9  C   UNL     1      31.374 -11.825 -21.258  0.00  0.00    +0.092 C 
ATOM     10  C   UNL     1      31.703  -9.554 -22.187  0.00  0.00    +0.153 C 
ATOM     11  C   UNL     1      31.643  -8.810 -21.026  0.00  0.00    +0.037 C 
ATOM     12  C   UNL     1      31.223  -7.496 -21.120  0.00  0.00    +0.019 C 
ATOM     13  C   UNL     1      30.889  -7.011 -22.370  0.00  0.00    +0.081 C 
ATOM     14  C   UNL     1      30.431  -5.602 -22.525  0.00  0.00    +0.054 C 
ENDBRANCH   1   5
BRANCH   1  15
ATOM     15  C   UNL     1      34.595 -15.419 -22.740  0.00  0.00    +0.047 C 
BRANCH  15  16
ATOM     16  C   UNL     1      34.503 -16.938 -22.713  0.00  0.00    +0.205 C 
BRANCH  16  17
ATOM     17  O   UNL     1      35.501 -17.443 -21.835  0.00  0.00    -0.475 OA
BRANCH  17  18
ATOM     18  C   UNL     1      35.179 -18.560 -21.111  0.00  0.00    +0.139 C 
ATOM     19  C   UNL     1      36.168 -19.238 -20.397  0.00  0.00    +0.037 C 
ATOM     20  C   UNL     1      33.863 -19.021 -21.088  0.00  0.00    +0.037 C 
ATOM     21  C   UNL     1      35.842 -20.377 -19.661  0.00  0.00    +0.010 C 
ATOM     22  C   UNL     1      33.536 -20.161 -20.351  0.00  0.00    +0.010 C 
ATOM     23  C   UNL     1      34.525 -20.837 -19.638  0.00  0.00    +0.076 C 
BRANCH  23  25
ATOM     24  O   UNL     1      33.440 -22.928 -19.274  0.00  0.00    -0.245 OA
ATOM     25  C   UNL     1      34.185 -22.025 -18.871  0.00  0.00    +0.341 C 
BRANCH  25  26
ATOM     26  O   UNL     1      34.793 -22.025 -17.646  0.00  0.00    -0.445 OA
BRANCH  26  27
ATOM     27  C   UNL     1      34.023 -22.513 -16.542  0.00  0.00    +0.209 C 
ATOM     28  C   UNL     1      34.965 -22.973 -15.449  0.00  0.00    +0.051 C 
ENDBRANCH  26  27
ENDBRANCH  25  26
ENDBRANCH  23  25
ENDBRANCH  17  18
ENDBRANCH  16  17
ENDBRANCH  15  16
ENDBRANCH   1  15
TORSDOF 8
ENDMDL
MODEL 6
REMARK VINA RESULT:     -11.5      2.011      2.230
REMARK  Name = 130188
REMARK  8 active torsions:
REMARK  status: ('A' for Active; 'I' for Inactive)
REMARK    1  A    between atoms: C_1  and  C_5
REMARK    2  A    between atoms: C_1  and  C_15
REMARK    3  A    between atoms: C_15  and  C_16
REMARK    4  A    between atoms: C_16  and  O_17
REMARK    5  A    between atoms: O_17  and  C_18
REMARK    6  A    between atoms: C_23  and  C_25
REMARK    7  A    between atoms: C_25  and  O_26
REMARK    8  A    between atoms: O_26  and  C_27
REMARK                            x       y       z     vdW  Elec       q    Type
REMARK                         _______ _______ _______ _____ _____    ______ ____
ROOT
ATOM      1  C   UNL     1      35.349 -20.203 -20.112  0.00  0.00    +0.004 C 
ENDROOT
BRANCH   1   5
ATOM      2  N   UNL     1      33.063 -22.236 -17.080  0.00  0.00    -0.292 N 
ATOM      3  N   UNL     1      31.201 -23.480 -16.299  0.00  0.00    -0.133 NA
ATOM      4  N   UNL     1      30.460 -23.977 -15.272  0.00  0.00    -0.151 NA
ATOM      5  C   UNL     1      34.584 -21.282 -19.352  0.00  0.00    +0.004 C 
ATOM      6  C   UNL     1      33.128 -20.860 -19.122  0.00  0.00    +0.022 C 
ATOM      7  C   UNL     1      35.249 -21.575 -18.003  0.00  0.00    +0.022 C 
ATOM      8  C   UNL     1      32.359 -21.915 -18.329  0.00  0.00    +0.092 C 
ATOM      9  C   UNL     1      34.471 -22.625 -17.208  0.00  0.00    +0.092 C 
ATOM     10  C   UNL     1      32.301 -22.747 -16.023  0.00  0.00    +0.153 C 
ATOM     11  C   UNL     1      32.716 -22.474 -14.735  0.00  0.00    +0.037 C 
ATOM     12  C   UNL     1      31.963 -22.979 -13.691  0.00  0.00    +0.019 C 
ATOM     13  C   UNL     1      30.843 -23.725 -14.003  0.00  0.00    +0.081 C 
ATOM     14  C   UNL     1      29.998 -24.291 -12.914  0.00  0.00    +0.054 C 
ENDBRANCH   1   5
BRANCH   1  15
ATOM     15  C   UNL     1      34.400 -19.270 -20.854  0.00  0.00    +0.047 C 
BRANCH  15  16
ATOM     16  C   UNL     1      35.143 -18.090 -21.465  0.00  0.00    +0.205 C 
BRANCH  16  17
ATOM     17  O   UNL     1      34.992 -16.962 -20.613  0.00  0.00    -0.475 OA
BRANCH  17  18
ATOM     18  C   UNL     1      34.468 -15.828 -21.177  0.00  0.00    +0.139 C 
ATOM     19  C   UNL     1      34.528 -15.645 -22.559  0.00  0.00    +0.037 C 
ATOM     20  C   UNL     1      33.878 -14.856 -20.369  0.00  0.00    +0.037 C 
ATOM     21  C   UNL     1      33.998 -14.489 -23.132  0.00  0.00    +0.010 C 
ATOM     22  C   UNL     1      33.347 -13.700 -20.943  0.00  0.00    +0.010 C 
ATOM     23  C   UNL     1      33.407 -13.518 -22.325  0.00  0.00    +0.076 C 
BRANCH  23  25
ATOM     24  O   UNL     1      33.377 -11.695 -23.861  0.00  0.00    -0.245 OA
ATOM     25  C   UNL     1      32.855 -12.313 -22.924  0.00  0.00    +0.341 C 
BRANCH  25  26
ATOM     26  O   UNL     1      31.683 -11.944 -22.323  0.00  0.00    -0.445 OA
BRANCH  26  27
ATOM     27  C   UNL     1      31.506 -10.549 -22.052  0.00  0.00    +0.209 C 
ATOM     28  C   UNL     1      30.980 -10.384 -20.642  0.00  0.00    +0.051 C 
ENDBRANCH  26  27
ENDBRANCH  25  26
ENDBRANCH  23  25
ENDBRANCH  17  18
ENDBRANCH  16  17
ENDBRANCH  15  16
ENDBRANCH   1  15
TORSDOF 8
ENDMDL
MODEL 7
REMARK VINA RESULT:     -11.3      5.367     11.632
REMARK  Name = 130188
REMARK  8 active torsions:
REMARK  status: ('A' for Active; 'I' for Inactive)
REMARK    1  A    between atoms: C_1  and  C_5
REMARK    2  A    between atoms: C_1  and  C_15
REMARK    3  A    between atoms: C_15  and  C_16
REMARK    4  A    between atoms: C_16  and  O_17
REMARK    5  A    between atoms: O_17  and  C_18
REMARK    6  A    between atoms: C_23  and  C_25
REMARK    7  A    between atoms: C_25  and  O_26
REMARK    8  A    between atoms: O_26  and  C_27
REMARK                            x       y       z     vdW  Elec       q    Type
REMARK                         _______ _______ _______ _____ _____    ______ ____
ROOT
ATOM      1  C   UNL     1      33.417 -14.171 -21.957  0.00  0.00    +0.004 C 
ENDROOT
BRANCH   1   5
ATOM      2  N   UNL     1      31.823 -10.170 -22.008  0.00  0.00    -0.292 N 
ATOM      3  N   UNL     1      30.973  -8.234 -23.083  0.00  0.00    -0.133 NA
ATOM      4  N   UNL     1      30.614  -6.923 -23.042  0.00  0.00    -0.151 NA
ATOM      5  C   UNL     1      32.500 -12.978 -22.210  0.00  0.00    +0.004 C 
ATOM      6  C   UNL     1      33.210 -11.914 -23.057  0.00  0.00    +0.022 C 
ATOM      7  C   UNL     1      32.039 -12.353 -20.890  0.00  0.00    +0.022 C 
ATOM      8  C   UNL     1      32.316 -10.696 -23.287  0.00  0.00    +0.092 C 
ATOM      9  C   UNL     1      31.154 -11.129 -21.124  0.00  0.00    +0.092 C 
ATOM     10  C   UNL     1      31.453  -8.820 -21.966  0.00  0.00    +0.153 C 
ATOM     11  C   UNL     1      31.600  -8.147 -20.769  0.00  0.00    +0.037 C 
ATOM     12  C   UNL     1      31.235  -6.813 -20.728  0.00  0.00    +0.019 C 
ATOM     13  C   UNL     1      30.747  -6.240 -21.885  0.00  0.00    +0.081 C 
ATOM     14  C   UNL     1      30.340  -4.806 -21.893  0.00  0.00    +0.054 C 
ENDBRANCH   1   5
BRANCH   1  15
ATOM     15  C   UNL     1      34.152 -14.583 -23.227  0.00  0.00    +0.047 C 
BRANCH  15  16
ATOM     16  C   UNL     1      33.858 -16.030 -23.596  0.00  0.00    +0.205 C 
BRANCH  16  17
ATOM     17  O   UNL     1      35.045 -16.795 -23.433  0.00  0.00    -0.475 OA
BRANCH  17  18
ATOM     18  C   UNL     1      35.029 -17.760 -22.460  0.00  0.00    +0.139 C 
ATOM     19  C   UNL     1      33.907 -18.575 -22.304  0.00  0.00    +0.037 C 
ATOM     20  C   UNL     1      36.134 -17.927 -21.625  0.00  0.00    +0.037 C 
ATOM     21  C   UNL     1      33.890 -19.555 -21.313  0.00  0.00    +0.010 C 
ATOM     22  C   UNL     1      36.116 -18.908 -20.633  0.00  0.00    +0.010 C 
ATOM     23  C   UNL     1      34.995 -19.723 -20.478  0.00  0.00    +0.076 C 
BRANCH  23  25
ATOM     24  O   UNL     1      35.984 -21.181 -18.872  0.00  0.00    -0.245 OA
ATOM     25  C   UNL     1      34.976 -20.744 -19.443  0.00  0.00    +0.341 C 
BRANCH  25  26
ATOM     26  O   UNL     1      33.702 -21.164 -19.175  0.00  0.00    -0.445 OA
BRANCH  26  27
ATOM     27  C   UNL     1      33.562 -22.431 -18.521  0.00  0.00    +0.209 C 
ATOM     28  C   UNL     1      32.448 -22.340 -17.501  0.00  0.00    +0.051 C 
ENDBRANCH  26  27
ENDBRANCH  25  26
ENDBRANCH  23  25
ENDBRANCH  17  18
ENDBRANCH  16  17
ENDBRANCH  15  16
ENDBRANCH   1  15
TORSDOF 8
ENDMDL
MODEL 8
REMARK VINA RESULT:     -11.0      3.575      6.452
REMARK  Name = 130188
REMARK  8 active torsions:
REMARK  status: ('A' for Active; 'I' for Inactive)
REMARK    1  A    between atoms: C_1  and  C_5
REMARK    2  A    between atoms: C_1  and  C_15
REMARK    3  A    between atoms: C_15  and  C_16
REMARK    4  A    between atoms: C_16  and  O_17
REMARK    5  A    between atoms: O_17  and  C_18
REMARK    6  A    between atoms: C_23  and  C_25
REMARK    7  A    between atoms: C_25  and  O_26
REMARK    8  A    between atoms: O_26  and  C_27
REMARK                            x       y       z     vdW  Elec       q    Type
REMARK                         _______ _______ _______ _____ _____    ______ ____
ROOT
ATOM      1  C   UNL     1      31.393 -22.462 -14.802  0.00  0.00    +0.004 C 
ENDROOT
BRANCH   1   5
ATOM      2  N   UNL     1      35.415 -23.863 -14.155  0.00  0.00    -0.292 N 
ATOM      3  N   UNL     1      37.764 -23.579 -13.991  0.00  0.00    -0.133 NA
ATOM      4  N   UNL     1      39.015 -24.108 -13.922  0.00  0.00    -0.151 NA
ATOM      5  C   UNL     1      32.803 -22.616 -14.239  0.00  0.00    +0.004 C 
ATOM      6  C   UNL     1      33.855 -22.358 -15.325  0.00  0.00    +0.022 C 
ATOM      7  C   UNL     1      33.009 -24.016 -13.653  0.00  0.00    +0.022 C 
ATOM      8  C   UNL     1      35.273 -22.544 -14.785  0.00  0.00    +0.092 C 
ATOM      9  C   UNL     1      34.431 -24.202 -13.122  0.00  0.00    +0.092 C 
ATOM     10  C   UNL     1      36.703 -24.408 -14.084  0.00  0.00    +0.153 C 
ATOM     11  C   UNL     1      36.825 -25.783 -14.114  0.00  0.00    +0.037 C 
ATOM     12  C   UNL     1      38.097 -26.321 -14.044  0.00  0.00    +0.019 C 
ATOM     13  C   UNL     1      39.164 -25.450 -13.949  0.00  0.00    +0.081 C 
ATOM     14  C   UNL     1      40.555 -25.979 -13.871  0.00  0.00    +0.054 C 
ENDBRANCH   1   5
BRANCH   1  15
ATOM     15  C   UNL     1      31.281 -23.079 -16.190  0.00  0.00    +0.047 C 
BRANCH  15  16
ATOM     16  C   UNL     1      31.461 -22.032 -17.281  0.00  0.00    +0.205 C 
BRANCH  16  17
ATOM     17  O   UNL     1      32.355 -22.541 -18.262  0.00  0.00    -0.475 OA
BRANCH  17  18
ATOM     18  C   UNL     1      33.106 -21.622 -18.948  0.00  0.00    +0.139 C 
ATOM     19  C   UNL     1      34.497 -21.640 -18.842  0.00  0.00    +0.037 C 
ATOM     20  C   UNL     1      32.480 -20.669 -19.750  0.00  0.00    +0.037 C 
ATOM     21  C   UNL     1      35.262 -20.704 -19.537  0.00  0.00    +0.010 C 
ATOM     22  C   UNL     1      33.246 -19.732 -20.447  0.00  0.00    +0.010 C 
ATOM     23  C   UNL     1      34.636 -19.751 -20.341  0.00  0.00    +0.076 C 
BRANCH  23  25
ATOM     24  O   UNL     1      36.544 -18.366 -20.697  0.00  0.00    -0.245 OA
ATOM     25  C   UNL     1      35.434 -18.775 -21.065  0.00  0.00    +0.341 C 
BRANCH  25  26
ATOM     26  O   UNL     1      34.808 -18.363 -22.209  0.00  0.00    -0.445 OA
BRANCH  26  27
ATOM     27  C   UNL     1      34.843 -16.960 -22.497  0.00  0.00    +0.209 C 
ATOM     28  C   UNL     1      34.195 -16.717 -23.843  0.00  0.00    +0.051 C 
ENDBRANCH  26  27
ENDBRANCH  25  26
ENDBRANCH  23  25
ENDBRANCH  17  18
ENDBRANCH  16  17
ENDBRANCH  15  16
ENDBRANCH   1  15
TORSDOF 8
ENDMDL
MODEL 9
REMARK VINA RESULT:     -10.7      7.479     13.764
REMARK  Name = 130188
REMARK  8 active torsions:
REMARK  status: ('A' for Active; 'I' for Inactive)
REMARK    1  A    between atoms: C_1  and  C_5
REMARK    2  A    between atoms: C_1  and  C_15
REMARK    3  A    between atoms: C_15  and  C_16
REMARK    4  A    between atoms: C_16  and  O_17
REMARK    5  A    between atoms: O_17  and  C_18
REMARK    6  A    between atoms: C_23  and  C_25
REMARK    7  A    between atoms: C_25  and  O_26
REMARK    8  A    between atoms: O_26  and  C_27
REMARK                            x       y       z     vdW  Elec       q    Type
REMARK                         _______ _______ _______ _____ _____    ______ ____
ROOT
ATOM      1  C   UNL     1      31.248  -9.044 -20.581  0.00  0.00    +0.004 C 
ENDROOT
BRANCH   1   5
ATOM      2  N   UNL     1      32.261  -6.114 -23.570  0.00  0.00    -0.292 N 
ATOM      3  N   UNL     1      31.832  -4.824 -25.514  0.00  0.00    -0.133 NA
ATOM      4  N   UNL     1      32.269  -4.001 -26.504  0.00  0.00    -0.151 NA
ATOM      5  C   UNL     1      31.197  -7.815 -21.483  0.00  0.00    +0.004 C 
ATOM      6  C   UNL     1      31.147  -8.224 -22.960  0.00  0.00    +0.022 C 
ATOM      7  C   UNL     1      32.411  -6.912 -21.245  0.00  0.00    +0.022 C 
ATOM      8  C   UNL     1      31.133  -7.002 -23.878  0.00  0.00    +0.092 C 
ATOM      9  C   UNL     1      32.398  -5.695 -22.171  0.00  0.00    +0.092 C 
ATOM     10  C   UNL     1      32.711  -5.266 -24.589  0.00  0.00    +0.153 C 
ATOM     11  C   UNL     1      34.048  -4.920 -24.600  0.00  0.00    +0.037 C 
ATOM     12  C   UNL     1      34.492  -4.083 -25.607  0.00  0.00    +0.019 C 
ATOM     13  C   UNL     1      33.571  -3.646 -26.538  0.00  0.00    +0.081 C 
ATOM     14  C   UNL     1      33.999  -2.743 -27.644  0.00  0.00    +0.054 C 
ENDBRANCH   1   5
BRANCH   1  15
ATOM     15  C   UNL     1      30.672 -10.269 -21.280  0.00  0.00    +0.047 C 
BRANCH  15  16
ATOM     16  C   UNL     1      31.420 -11.536 -20.892  0.00  0.00    +0.205 C 
BRANCH  16  17
ATOM     17  O   UNL     1      32.393 -11.818 -21.889  0.00  0.00    -0.475 OA
BRANCH  17  18
ATOM     18  C   UNL     1      33.017 -13.036 -21.816  0.00  0.00    +0.139 C 
ATOM     19  C   UNL     1      33.566 -13.609 -22.964  0.00  0.00    +0.037 C 
ATOM     20  C   UNL     1      33.102 -13.704 -20.594  0.00  0.00    +0.037 C 
ATOM     21  C   UNL     1      34.199 -14.849 -22.890  0.00  0.00    +0.010 C 
ATOM     22  C   UNL     1      33.736 -14.945 -20.520  0.00  0.00    +0.010 C 
ATOM     23  C   UNL     1      34.285 -15.517 -21.668  0.00  0.00    +0.076 C 
BRANCH  23  25
ATOM     24  O   UNL     1      35.414 -17.297 -20.555  0.00  0.00    -0.245 OA
ATOM     25  C   UNL     1      34.944 -16.811 -21.592  0.00  0.00    +0.341 C 
BRANCH  25  26
ATOM     26  O   UNL     1      34.979 -17.430 -22.811  0.00  0.00    -0.445 OA
BRANCH  26  27
ATOM     27  C   UNL     1      34.125 -18.567 -22.984  0.00  0.00    +0.209 C 
ATOM     28  C   UNL     1      33.403 -18.444 -24.309  0.00  0.00    +0.051 C 
ENDBRANCH  26  27
ENDBRANCH  25  26
ENDBRANCH  23  25
ENDBRANCH  17  18
ENDBRANCH  16  17
ENDBRANCH  15  16
ENDBRANCH   1  15
TORSDOF 8
ENDMDL
