MODEL 1
REMARK VINA RESULT:     -13.6      0.000      0.000
REMARK  Name = 25174099
REMARK  5 active torsions:
REMARK  status: ('A' for Active; 'I' for Inactive)
REMARK    1  A    between atoms: C_5  and  C_33
REMARK    2  A    between atoms: C_14  and  C_18
REMARK    3  A    between atoms: N_17  and  C_20
REMARK    4  A    between atoms: C_20  and  C_24
REMARK    5  A    between atoms: C_33  and  C_36
REMARK                            x       y       z     vdW  Elec       q    Type
REMARK                         _______ _______ _______ _____ _____    ______ ____
ROOT
ATOM      1  S   UNL     1      33.962 -23.594 -14.385  0.00  0.00    -0.064 S 
ATOM      2  O   UNL     1      31.074 -22.028 -18.076  0.00  0.00    -0.274 OA
ATOM      3  N   UNL     1      34.896 -22.276 -16.520  0.00  0.00    -0.379 NA
ATOM      4  N   UNL     1      33.340 -21.594 -18.204  0.00  0.00    -0.255 N 
ATOM      5  C   UNL     1      30.091 -23.496 -15.485  0.00  0.00    +0.028 C 
ATOM      6  C   UNL     1      29.569 -24.628 -14.565  0.00  0.00    +0.005 C 
ATOM      7  C   UNL     1      31.592 -23.373 -15.380  0.00  0.00    -0.027 C 
ATOM      8  C   UNL     1      30.168 -24.557 -13.153  0.00  0.00    +0.006 C 
ATOM      9  C   UNL     1      31.697 -24.680 -13.175  0.00  0.00    +0.032 C 
ATOM     10  C   UNL     1      32.289 -23.890 -14.301  0.00  0.00    +0.002 C 
ATOM     11  C   UNL     1      32.486 -22.748 -16.311  0.00  0.00    +0.154 C 
ATOM     12  C   UNL     1      33.806 -22.788 -15.881  0.00  0.00    +0.152 C 
ATOM     13  C   UNL     1      32.198 -22.104 -17.590  0.00  0.00    +0.239 C 
ATOM     14  C   UNL     1      34.607 -21.704 -17.648  0.00  0.00    +0.240 C 
ATOM     15  H   UNL     1      33.245 -21.135 -19.069  0.00  0.00    +0.157 HD
ENDROOT
BRANCH  14  18
ATOM     16  O   UNL     1      36.849 -21.400 -18.163  0.00  0.00    -0.266 OA
ATOM     17  N   UNL     1      35.248 -20.262 -19.444  0.00  0.00    -0.294 N 
ATOM     18  C   UNL     1      35.697 -21.103 -18.449  0.00  0.00    +0.290 C 
ATOM     19  H   UNL     1      34.277 -20.130 -19.542  0.00  0.00    +0.150 HD
BRANCH  17  20
ATOM     20  C   UNL     1      36.133 -19.566 -20.350  0.00  0.00    +0.117 C 
BRANCH  20  24
ATOM     21  O   UNL     1      33.223 -16.737 -24.289  0.00  0.00    -0.464 OA
ATOM     22  O   UNL     1      33.801 -13.344 -23.187  0.00  0.00    -0.271 OA
ATOM     23  N   UNL     1      34.560 -15.303 -22.251  0.00  0.00    -0.279 N 
ATOM     24  C   UNL     1      35.376 -18.799 -21.395  0.00  0.00    -0.001 C 
ATOM     25  C   UNL     1      34.634 -16.698 -22.320  0.00  0.00    +0.085 C 
ATOM     26  C   UNL     1      35.334 -17.406 -21.342  0.00  0.00    +0.015 C 
ATOM     27  C   UNL     1      33.971 -17.377 -23.341  0.00  0.00    +0.153 C 
ATOM     28  C   UNL     1      34.709 -19.481 -22.413  0.00  0.00    +0.001 C 
ATOM     29  C   UNL     1      34.000 -18.771 -23.383  0.00  0.00    +0.038 C 
ATOM     30  C   UNL     1      33.550 -15.371 -24.460  0.00  0.00    +0.290 C 
ATOM     31  C   UNL     1      33.950 -14.563 -23.237  0.00  0.00    +0.271 C 
ATOM     32  H   UNL     1      34.955 -14.839 -21.478  0.00  0.00    +0.155 HD
ENDBRANCH  20  24
ENDBRANCH  17  20
ENDBRANCH  14  18
BRANCH   5  33
ATOM     33  C   UNL     1      29.401 -22.168 -15.153  0.00  0.00    +0.089 C 
BRANCH  33  36
ATOM     34  O   UNL     1      27.031 -21.655 -15.189  0.00  0.00    -0.275 OA
ATOM     35  N   UNL     1      28.023 -22.516 -17.077  0.00  0.00    -0.329 N 
ATOM     36  C   UNL     1      28.028 -22.074 -15.771  0.00  0.00    +0.220 C 
ATOM     37  H   UNL     1      27.186 -22.507 -17.596  0.00  0.00    +0.145 HD
ATOM     38  H   UNL     1      28.855 -22.840 -17.490  0.00  0.00    +0.145 HD
ENDBRANCH  33  36
ENDBRANCH   5  33
TORSDOF 5
ENDMDL
MODEL 2
REMARK VINA RESULT:     -13.5      2.428      3.550
REMARK  Name = 25174099
REMARK  5 active torsions:
REMARK  status: ('A' for Active; 'I' for Inactive)
REMARK    1  A    between atoms: C_5  and  C_33
REMARK    2  A    between atoms: C_14  and  C_18
REMARK    3  A    between atoms: N_17  and  C_20
REMARK    4  A    between atoms: C_20  and  C_24
REMARK    5  A    between atoms: C_33  and  C_36
REMARK                            x       y       z     vdW  Elec       q    Type
REMARK                         _______ _______ _______ _____ _____    ______ ____
ROOT
ATOM      1  S   UNL     1      36.827 -21.355 -16.836  0.00  0.00    -0.064 S 
ATOM      2  O   UNL     1      32.190 -22.836 -17.690  0.00  0.00    -0.274 OA
ATOM      3  N   UNL     1      35.392 -20.539 -18.944  0.00  0.00    -0.379 NA
ATOM      4  N   UNL     1      33.160 -21.363 -19.185  0.00  0.00    -0.255 N 
ATOM      5  C   UNL     1      33.939 -23.645 -15.216  0.00  0.00    +0.028 C 
ATOM      6  C   UNL     1      34.832 -24.504 -14.285  0.00  0.00    +0.005 C 
ATOM      7  C   UNL     1      34.785 -22.736 -16.075  0.00  0.00    -0.027 C 
ATOM      8  C   UNL     1      35.907 -23.670 -13.574  0.00  0.00    +0.006 C 
ATOM      9  C   UNL     1      36.849 -22.983 -14.572  0.00  0.00    +0.032 C 
ATOM     10  C   UNL     1      36.091 -22.427 -15.738  0.00  0.00    +0.002 C 
ATOM     11  C   UNL     1      34.408 -22.089 -17.299  0.00  0.00    +0.154 C 
ATOM     12  C   UNL     1      35.427 -21.295 -17.809  0.00  0.00    +0.152 C 
ATOM     13  C   UNL     1      33.149 -22.154 -18.037  0.00  0.00    +0.239 C 
ATOM     14  C   UNL     1      34.259 -20.611 -19.571  0.00  0.00    +0.240 C 
ATOM     15  H   UNL     1      32.351 -21.337 -19.746  0.00  0.00    +0.157 HD
ENDROOT
BRANCH  14  18
ATOM     16  O   UNL     1      32.961 -19.791 -21.312  0.00  0.00    -0.266 OA
ATOM     17  N   UNL     1      35.244 -19.256 -21.277  0.00  0.00    -0.294 N 
ATOM     18  C   UNL     1      34.081 -19.838 -20.822  0.00  0.00    +0.290 C 
ATOM     19  H   UNL     1      36.069 -19.392 -20.759  0.00  0.00    +0.150 HD
BRANCH  17  20
ATOM     20  C   UNL     1      35.308 -18.454 -22.478  0.00  0.00    +0.117 C 
BRANCH  20  24
ATOM     21  O   UNL     1      33.266 -13.253 -21.604  0.00  0.00    -0.464 OA
ATOM     22  O   UNL     1      32.564 -12.268 -25.010  0.00  0.00    -0.271 OA
ATOM     23  N   UNL     1      33.444 -14.252 -24.244  0.00  0.00    -0.279 N 
ATOM     24  C   UNL     1      34.752 -17.077 -22.263  0.00  0.00    -0.001 C 
ATOM     25  C   UNL     1      33.821 -15.034 -23.149  0.00  0.00    +0.085 C 
ATOM     26  C   UNL     1      34.344 -16.312 -23.356  0.00  0.00    +0.015 C 
ATOM     27  C   UNL     1      33.715 -14.518 -21.858  0.00  0.00    +0.153 C 
ATOM     28  C   UNL     1      34.650 -16.561 -20.971  0.00  0.00    +0.001 C 
ATOM     29  C   UNL     1      34.139 -15.278 -20.768  0.00  0.00    +0.038 C 
ATOM     30  C   UNL     1      32.483 -12.696 -22.643  0.00  0.00    +0.290 C 
ATOM     31  C   UNL     1      32.851 -13.021 -24.081  0.00  0.00    +0.271 C 
ATOM     32  H   UNL     1      33.606 -14.588 -25.155  0.00  0.00    +0.155 HD
ENDBRANCH  20  24
ENDBRANCH  17  20
ENDBRANCH  14  18
BRANCH   5  33
ATOM     33  C   UNL     1      32.919 -22.844 -14.399  0.00  0.00    +0.089 C 
BRANCH  33  36
ATOM     34  O   UNL     1      31.505 -24.252 -13.020  0.00  0.00    -0.275 OA
ATOM     35  N   UNL     1      30.786 -23.651 -15.120  0.00  0.00    -0.329 N 
ATOM     36  C   UNL     1      31.688 -23.656 -14.079  0.00  0.00    +0.220 C 
ATOM     37  H   UNL     1      29.938 -24.145 -15.039  0.00  0.00    +0.145 HD
ATOM     38  H   UNL     1      30.989 -23.154 -15.945  0.00  0.00    +0.145 HD
ENDBRANCH  33  36
ENDBRANCH   5  33
TORSDOF 5
ENDMDL
MODEL 3
REMARK VINA RESULT:     -13.3      3.357     10.393
REMARK  Name = 25174099
REMARK  5 active torsions:
REMARK  status: ('A' for Active; 'I' for Inactive)
REMARK    1  A    between atoms: C_5  and  C_33
REMARK    2  A    between atoms: C_14  and  C_18
REMARK    3  A    between atoms: N_17  and  C_20
REMARK    4  A    between atoms: C_20  and  C_24
REMARK    5  A    between atoms: C_33  and  C_36
REMARK                            x       y       z     vdW  Elec       q    Type
REMARK                         _______ _______ _______ _____ _____    ______ ____
ROOT
ATOM      1  S   UNL     1      33.968 -16.010 -24.791  0.00  0.00    -0.064 S 
ATOM      2  O   UNL     1      33.944 -14.212 -20.188  0.00  0.00    -0.274 OA
ATOM      3  N   UNL     1      34.779 -17.417 -22.663  0.00  0.00    -0.379 NA
ATOM      4  N   UNL     1      34.689 -16.376 -20.511  0.00  0.00    -0.255 N 
ATOM      5  C   UNL     1      32.936 -12.700 -22.744  0.00  0.00    +0.028 C 
ATOM      6  C   UNL     1      32.915 -11.703 -23.930  0.00  0.00    +0.005 C 
ATOM      7  C   UNL     1      33.424 -14.056 -23.197  0.00  0.00    -0.027 C 
ATOM      8  C   UNL     1      32.260 -12.299 -25.184  0.00  0.00    +0.006 C 
ATOM      9  C   UNL     1      33.002 -13.548 -25.676  0.00  0.00    +0.032 C 
ATOM     10  C   UNL     1      33.408 -14.424 -24.531  0.00  0.00    +0.002 C 
ATOM     11  C   UNL     1      33.949 -15.113 -22.382  0.00  0.00    +0.154 C 
ATOM     12  C   UNL     1      34.272 -16.240 -23.127  0.00  0.00    +0.152 C 
ATOM     13  C   UNL     1      34.175 -15.154 -20.940  0.00  0.00    +0.239 C 
ATOM     14  C   UNL     1      34.959 -17.425 -21.378  0.00  0.00    +0.240 C 
ATOM     15  H   UNL     1      34.868 -16.501 -19.551  0.00  0.00    +0.157 HD
ENDROOT
BRANCH  14  18
ATOM     16  O   UNL     1      36.640 -18.591 -20.281  0.00  0.00    -0.266 OA
ATOM     17  N   UNL     1      34.628 -19.705 -20.741  0.00  0.00    -0.294 N 
ATOM     18  C   UNL     1      35.505 -18.643 -20.736  0.00  0.00    +0.290 C 
ATOM     19  H   UNL     1      33.743 -19.580 -21.153  0.00  0.00    +0.150 HD
BRANCH  17  20
ATOM     20  C   UNL     1      34.945 -20.994 -20.169  0.00  0.00    +0.117 C 
BRANCH  20  24
ATOM     21  O   UNL     1      31.155 -22.534 -16.263  0.00  0.00    -0.464 OA
ATOM     22  O   UNL     1      33.321 -24.221 -13.912  0.00  0.00    -0.271 OA
ATOM     23  N   UNL     1      33.879 -23.207 -15.900  0.00  0.00    -0.279 N 
ATOM     24  C   UNL     1      33.954 -21.399 -19.117  0.00  0.00    -0.001 C 
ATOM     25  C   UNL     1      33.459 -22.471 -17.012  0.00  0.00    +0.085 C 
ATOM     26  C   UNL     1      34.383 -22.103 -17.991  0.00  0.00    +0.015 C 
ATOM     27  C   UNL     1      32.111 -22.148 -17.160  0.00  0.00    +0.153 C 
ATOM     28  C   UNL     1      32.606 -21.078 -19.269  0.00  0.00    +0.001 C 
ATOM     29  C   UNL     1      31.682 -21.458 -18.295  0.00  0.00    +0.038 C 
ATOM     30  C   UNL     1      31.660 -22.843 -14.978  0.00  0.00    +0.290 C 
ATOM     31  C   UNL     1      33.016 -23.520 -14.875  0.00  0.00    +0.271 C 
ATOM     32  H   UNL     1      34.814 -23.509 -15.849  0.00  0.00    +0.155 HD
ENDBRANCH  20  24
ENDBRANCH  17  20
ENDBRANCH  14  18
BRANCH   5  33
ATOM     33  C   UNL     1      31.551 -12.798 -22.095  0.00  0.00    +0.089 C 
BRANCH  33  36
ATOM     34  O   UNL     1      31.900 -11.596 -20.017  0.00  0.00    -0.275 OA
ATOM     35  N   UNL     1      30.365 -10.798 -21.533  0.00  0.00    -0.329 N 
ATOM     36  C   UNL     1      31.317 -11.693 -21.094  0.00  0.00    +0.220 C 
ATOM     37  H   UNL     1      30.118 -10.028 -20.972  0.00  0.00    +0.145 HD
ATOM     38  H   UNL     1      29.932 -10.930 -22.407  0.00  0.00    +0.145 HD
ENDBRANCH  33  36
ENDBRANCH   5  33
TORSDOF 5
ENDMDL
MODEL 4
REMARK VINA RESULT:     -13.2      2.413      3.996
REMARK  Name = 25174099
REMARK  5 active torsions:
REMARK  status: ('A' for Active; 'I' for Inactive)
REMARK    1  A    between atoms: C_5  and  C_33
REMARK    2  A    between atoms: C_14  and  C_18
REMARK    3  A    between atoms: N_17  and  C_20
REMARK    4  A    between atoms: C_20  and  C_24
REMARK    5  A    between atoms: C_33  and  C_36
REMARK                            x       y       z     vdW  Elec       q    Type
REMARK                         _______ _______ _______ _____ _____    ______ ____
ROOT
ATOM      1  S   UNL     1      36.719 -21.210 -17.373  0.00  0.00    -0.064 S 
ATOM      2  O   UNL     1      32.079 -21.960 -18.899  0.00  0.00    -0.274 OA
ATOM      3  N   UNL     1      35.680 -20.033 -19.542  0.00  0.00    -0.379 NA
ATOM      4  N   UNL     1      33.410 -20.518 -20.119  0.00  0.00    -0.255 N 
ATOM      5  C   UNL     1      33.381 -23.204 -16.331  0.00  0.00    +0.028 C 
ATOM      6  C   UNL     1      34.031 -24.251 -15.392  0.00  0.00    +0.005 C 
ATOM      7  C   UNL     1      34.438 -22.353 -16.993  0.00  0.00    -0.027 C 
ATOM      8  C   UNL     1      35.104 -23.636 -14.483  0.00  0.00    +0.006 C 
ATOM      9  C   UNL     1      36.245 -23.006 -15.293  0.00  0.00    +0.032 C 
ATOM     10  C   UNL     1      35.719 -22.256 -16.478  0.00  0.00    +0.002 C 
ATOM     11  C   UNL     1      34.305 -21.562 -18.182  0.00  0.00    +0.154 C 
ATOM     12  C   UNL     1      35.473 -20.877 -18.491  0.00  0.00    +0.152 C 
ATOM     13  C   UNL     1      33.154 -21.391 -19.064  0.00  0.00    +0.239 C 
ATOM     14  C   UNL     1      34.637 -19.895 -20.300  0.00  0.00    +0.240 C 
ATOM     15  H   UNL     1      32.690 -20.334 -20.764  0.00  0.00    +0.157 HD
ENDROOT
BRANCH  14  18
ATOM     16  O   UNL     1      34.602 -19.511 -22.589  0.00  0.00    -0.266 OA
ATOM     17  N   UNL     1      34.924 -17.682 -21.157  0.00  0.00    -0.294 N 
ATOM     18  C   UNL     1      34.719 -19.005 -21.481  0.00  0.00    +0.290 C 
ATOM     19  H   UNL     1      34.997 -17.439 -20.206  0.00  0.00    +0.150 HD
BRANCH  17  20
ATOM     20  C   UNL     1      35.036 -16.635 -22.146  0.00  0.00    +0.117 C 
BRANCH  20  24
ATOM     21  O   UNL     1      32.092 -12.049 -20.630  0.00  0.00    -0.464 OA
ATOM     22  O   UNL     1      32.224 -10.166 -23.711  0.00  0.00    -0.271 OA
ATOM     23  N   UNL     1      33.138 -12.226 -23.252  0.00  0.00    -0.279 N 
ATOM     24  C   UNL     1      34.246 -15.416 -21.764  0.00  0.00    -0.001 C 
ATOM     25  C   UNL     1      33.308 -13.268 -22.335  0.00  0.00    +0.085 C 
ATOM     26  C   UNL     1      34.049 -14.395 -22.694  0.00  0.00    +0.015 C 
ATOM     27  C   UNL     1      32.774 -13.155 -21.052  0.00  0.00    +0.153 C 
ATOM     28  C   UNL     1      33.716 -15.305 -20.478  0.00  0.00    +0.001 C 
ATOM     29  C   UNL     1      32.987 -14.171 -20.119  0.00  0.00    +0.038 C 
ATOM     30  C   UNL     1      31.554 -11.266 -21.678  0.00  0.00    +0.290 C 
ATOM     31  C   UNL     1      32.349 -11.136 -22.967  0.00  0.00    +0.271 C 
ATOM     32  H   UNL     1      33.593 -12.274 -24.123  0.00  0.00    +0.155 HD
ENDBRANCH  20  24
ENDBRANCH  17  20
ENDBRANCH  14  18
BRANCH   5  33
ATOM     33  C   UNL     1      32.375 -22.339 -15.563  0.00  0.00    +0.089 C 
BRANCH  33  36
ATOM     34  O   UNL     1      30.560 -23.847 -14.998  0.00  0.00    -0.275 OA
ATOM     35  N   UNL     1      30.202 -22.191 -16.553  0.00  0.00    -0.329 N 
ATOM     36  C   UNL     1      30.973 -22.891 -15.650  0.00  0.00    +0.220 C 
ATOM     37  H   UNL     1      29.265 -22.449 -16.706  0.00  0.00    +0.145 HD
ATOM     38  H   UNL     1      30.590 -21.432 -17.046  0.00  0.00    +0.145 HD
ENDBRANCH  33  36
ENDBRANCH   5  33
TORSDOF 5
ENDMDL
MODEL 5
REMARK VINA RESULT:     -13.0      3.099      4.620
REMARK  Name = 25174099
REMARK  5 active torsions:
REMARK  status: ('A' for Active; 'I' for Inactive)
REMARK    1  A    between atoms: C_5  and  C_33
REMARK    2  A    between atoms: C_14  and  C_18
REMARK    3  A    between atoms: N_17  and  C_20
REMARK    4  A    between atoms: C_20  and  C_24
REMARK    5  A    between atoms: C_33  and  C_36
REMARK                            x       y       z     vdW  Elec       q    Type
REMARK                         _______ _______ _______ _____ _____    ______ ____
ROOT
ATOM      1  S   UNL     1      32.539 -22.399 -17.650  0.00  0.00    -0.064 S 
ATOM      2  O   UNL     1      37.180 -21.150 -16.498  0.00  0.00    -0.274 OA
ATOM      3  N   UNL     1      34.141 -21.026 -19.299  0.00  0.00    -0.379 NA
ATOM      4  N   UNL     1      36.360 -20.519 -18.565  0.00  0.00    -0.255 N 
ATOM      5  C   UNL     1      35.240 -22.830 -14.696  0.00  0.00    +0.028 C 
ATOM      6  C   UNL     1      34.260 -23.181 -13.548  0.00  0.00    +0.005 C 
ATOM      7  C   UNL     1      34.483 -22.484 -15.956  0.00  0.00    -0.027 C 
ATOM      8  C   UNL     1      33.162 -24.157 -13.994  0.00  0.00    +0.006 C 
ATOM      9  C   UNL     1      32.313 -23.578 -15.133  0.00  0.00    +0.032 C 
ATOM     10  C   UNL     1      33.165 -22.868 -16.139  0.00  0.00    +0.002 C 
ATOM     11  C   UNL     1      34.963 -21.751 -17.091  0.00  0.00    +0.154 C 
ATOM     12  C   UNL     1      34.005 -21.645 -18.092  0.00  0.00    +0.152 C 
ATOM     13  C   UNL     1      36.267 -21.135 -17.318  0.00  0.00    +0.239 C 
ATOM     14  C   UNL     1      35.312 -20.497 -19.474  0.00  0.00    +0.240 C 
ATOM     15  H   UNL     1      37.206 -20.081 -18.812  0.00  0.00    +0.157 HD
ENDROOT
BRANCH  14  18
ATOM     16  O   UNL     1      36.739 -19.387 -20.930  0.00  0.00    -0.266 OA
ATOM     17  N   UNL     1      34.503 -19.685 -21.572  0.00  0.00    -0.294 N 
ATOM     18  C   UNL     1      35.599 -19.792 -20.744  0.00  0.00    +0.290 C 
ATOM     19  H   UNL     1      33.649 -20.069 -21.270  0.00  0.00    +0.150 HD
BRANCH  17  20
ATOM     20  C   UNL     1      34.549 -19.038 -22.863  0.00  0.00    +0.117 C 
BRANCH  20  24
ATOM     21  O   UNL     1      33.774 -13.453 -22.410  0.00  0.00    -0.464 OA
ATOM     22  O   UNL     1      32.567 -12.711 -25.734  0.00  0.00    -0.271 OA
ATOM     23  N   UNL     1      33.192 -14.744 -24.859  0.00  0.00    -0.279 N 
ATOM     24  C   UNL     1      34.325 -17.557 -22.756  0.00  0.00    -0.001 C 
ATOM     25  C   UNL     1      33.636 -15.468 -23.749  0.00  0.00    +0.085 C 
ATOM     26  C   UNL     1      33.848 -16.843 -23.856  0.00  0.00    +0.015 C 
ATOM     27  C   UNL     1      33.907 -14.806 -22.552  0.00  0.00    +0.153 C 
ATOM     28  C   UNL     1      34.601 -16.896 -21.559  0.00  0.00    +0.001 C 
ATOM     29  C   UNL     1      34.399 -15.519 -21.458  0.00  0.00    +0.038 C 
ATOM     30  C   UNL     1      32.910 -12.854 -23.357  0.00  0.00    +0.290 C 
ATOM     31  C   UNL     1      32.894 -13.403 -24.773  0.00  0.00    +0.271 C 
ATOM     32  H   UNL     1      33.090 -15.203 -25.723  0.00  0.00    +0.155 HD
ENDBRANCH  20  24
ENDBRANCH  17  20
ENDBRANCH  14  18
BRANCH   5  33
ATOM     33  C   UNL     1      36.223 -23.981 -14.939  0.00  0.00    +0.089 C 
BRANCH  33  36
ATOM     34  O   UNL     1      37.832 -23.484 -13.193  0.00  0.00    -0.275 OA
ATOM     35  N   UNL     1      38.553 -23.652 -15.371  0.00  0.00    -0.329 N 
ATOM     36  C   UNL     1      37.593 -23.680 -14.382  0.00  0.00    +0.220 C 
ATOM     37  H   UNL     1      39.492 -23.466 -15.141  0.00  0.00    +0.145 HD
ATOM     38  H   UNL     1      38.300 -23.817 -16.307  0.00  0.00    +0.145 HD
ENDBRANCH  33  36
ENDBRANCH   5  33
TORSDOF 5
ENDMDL
MODEL 6
REMARK VINA RESULT:     -12.4      4.354     11.395
REMARK  Name = 25174099
REMARK  5 active torsions:
REMARK  status: ('A' for Active; 'I' for Inactive)
REMARK    1  A    between atoms: C_5  and  C_33
REMARK    2  A    between atoms: C_14  and  C_18
REMARK    3  A    between atoms: N_17  and  C_20
REMARK    4  A    between atoms: C_20  and  C_24
REMARK    5  A    between atoms: C_33  and  C_36
REMARK                            x       y       z     vdW  Elec       q    Type
REMARK                         _______ _______ _______ _____ _____    ______ ____
ROOT
ATOM      1  S   UNL     1      32.254 -12.867 -20.281  0.00  0.00    -0.064 S 
ATOM      2  O   UNL     1      32.650 -11.570 -25.033  0.00  0.00    -0.274 OA
ATOM      3  N   UNL     1      33.203 -14.505 -22.174  0.00  0.00    -0.379 NA
ATOM      4  N   UNL     1      33.323 -13.695 -24.421  0.00  0.00    -0.255 N 
ATOM      5  C   UNL     1      31.644  -9.716 -22.711  0.00  0.00    +0.028 C 
ATOM      6  C   UNL     1      30.673  -8.920 -21.804  0.00  0.00    +0.005 C 
ATOM      7  C   UNL     1      31.970 -11.056 -22.096  0.00  0.00    -0.027 C 
ATOM      8  C   UNL     1      31.110  -8.926 -20.333  0.00  0.00    +0.006 C 
ATOM      9  C   UNL     1      31.174 -10.349 -19.762  0.00  0.00    +0.032 C 
ATOM     10  C   UNL     1      31.778 -11.301 -20.748  0.00  0.00    +0.002 C 
ATOM     11  C   UNL     1      32.492 -12.218 -22.756  0.00  0.00    +0.154 C 
ATOM     12  C   UNL     1      32.706 -13.271 -21.876  0.00  0.00    +0.152 C 
ATOM     13  C   UNL     1      32.815 -12.422 -24.166  0.00  0.00    +0.239 C 
ATOM     14  C   UNL     1      33.488 -14.652 -23.431  0.00  0.00    +0.240 C 
ATOM     15  H   UNL     1      33.576 -13.924 -25.344  0.00  0.00    +0.157 HD
ENDROOT
BRANCH  14  18
ATOM     16  O   UNL     1      34.257 -16.079 -25.093  0.00  0.00    -0.266 OA
ATOM     17  N   UNL     1      34.235 -16.855 -22.880  0.00  0.00    -0.294 N 
ATOM     18  C   UNL     1      34.038 -15.946 -23.896  0.00  0.00    +0.290 C 
ATOM     19  H   UNL     1      34.005 -16.588 -21.961  0.00  0.00    +0.150 HD
BRANCH  17  20
ATOM     20  C   UNL     1      34.764 -18.182 -23.098  0.00  0.00    +0.117 C 
BRANCH  20  24
ATOM     21  O   UNL     1      34.958 -21.167 -18.298  0.00  0.00    -0.464 OA
ATOM     22  O   UNL     1      31.460 -21.997 -17.928  0.00  0.00    -0.271 OA
ATOM     23  N   UNL     1      32.474 -20.774 -19.591  0.00  0.00    -0.279 N 
ATOM     24  C   UNL     1      34.799 -18.987 -21.832  0.00  0.00    -0.001 C 
ATOM     25  C   UNL     1      33.659 -20.271 -20.136  0.00  0.00    +0.085 C 
ATOM     26  C   UNL     1      33.619 -19.517 -21.310  0.00  0.00    +0.015 C 
ATOM     27  C   UNL     1      34.870 -20.487 -19.480  0.00  0.00    +0.153 C 
ATOM     28  C   UNL     1      36.012 -19.200 -21.175  0.00  0.00    +0.001 C 
ATOM     29  C   UNL     1      36.047 -19.943 -19.995  0.00  0.00    +0.038 C 
ATOM     30  C   UNL     1      33.864 -22.027 -18.041  0.00  0.00    +0.290 C 
ATOM     31  C   UNL     1      32.478 -21.587 -18.482  0.00  0.00    +0.271 C 
ATOM     32  H   UNL     1      31.615 -20.540 -20.011  0.00  0.00    +0.155 HD
ENDBRANCH  20  24
ENDBRANCH  17  20
ENDBRANCH  14  18
BRANCH   5  33
ATOM     33  C   UNL     1      32.917  -8.907 -22.984  0.00  0.00    +0.089 C 
BRANCH  33  36
ATOM     34  O   UNL     1      31.902  -7.118 -24.269  0.00  0.00    -0.275 OA
ATOM     35  N   UNL     1      33.222  -6.593 -22.460  0.00  0.00    -0.329 N 
ATOM     36  C   UNL     1      32.610  -7.470 -23.329  0.00  0.00    +0.220 C 
ATOM     37  H   UNL     1      33.102  -5.623 -22.575  0.00  0.00    +0.145 HD
ATOM     38  H   UNL     1      33.778  -6.937 -21.724  0.00  0.00    +0.145 HD
ENDBRANCH  33  36
ENDBRANCH   5  33
TORSDOF 5
ENDMDL
MODEL 7
REMARK VINA RESULT:     -12.1      3.747     10.332
REMARK  Name = 25174099
REMARK  5 active torsions:
REMARK  status: ('A' for Active; 'I' for Inactive)
REMARK    1  A    between atoms: C_5  and  C_33
REMARK    2  A    between atoms: C_14  and  C_18
REMARK    3  A    between atoms: N_17  and  C_20
REMARK    4  A    between atoms: C_20  and  C_24
REMARK    5  A    between atoms: C_33  and  C_36
REMARK                            x       y       z     vdW  Elec       q    Type
REMARK                         _______ _______ _______ _____ _____    ______ ____
ROOT
ATOM      1  S   UNL     1      33.832 -15.485 -24.750  0.00  0.00    -0.064 S 
ATOM      2  O   UNL     1      34.097 -14.740 -19.873  0.00  0.00    -0.274 OA
ATOM      3  N   UNL     1      34.620 -17.370 -23.020  0.00  0.00    -0.379 NA
ATOM      4  N   UNL     1      34.679 -16.822 -20.693  0.00  0.00    -0.255 N 
ATOM      5  C   UNL     1      33.105 -12.648 -21.988  0.00  0.00    +0.028 C 
ATOM      6  C   UNL     1      33.110 -11.416 -22.927  0.00  0.00    +0.005 C 
ATOM      7  C   UNL     1      33.481 -13.899 -22.746  0.00  0.00    -0.027 C 
ATOM      8  C   UNL     1      32.371 -11.683 -24.246  0.00  0.00    +0.006 C 
ATOM      9  C   UNL     1      33.007 -12.836 -25.033  0.00  0.00    +0.032 C 
ATOM     10  C   UNL     1      33.393 -13.964 -24.126  0.00  0.00    +0.002 C 
ATOM     11  C   UNL     1      33.961 -15.138 -22.207  0.00  0.00    +0.154 C 
ATOM     12  C   UNL     1      34.178 -16.091 -23.193  0.00  0.00    +0.152 C 
ATOM     13  C   UNL     1      34.235 -15.507 -20.821  0.00  0.00    +0.239 C 
ATOM     14  C   UNL     1      34.845 -17.670 -21.778  0.00  0.00    +0.240 C 
ATOM     15  H   UNL     1      34.883 -17.164 -19.793  0.00  0.00    +0.157 HD
ENDROOT
BRANCH  14  18
ATOM     16  O   UNL     1      36.526 -19.254 -21.553  0.00  0.00    -0.266 OA
ATOM     17  N   UNL     1      34.325 -19.883 -21.039  0.00  0.00    -0.294 N 
ATOM     18  C   UNL     1      35.328 -19.029 -21.443  0.00  0.00    +0.290 C 
ATOM     19  H   UNL     1      33.404 -19.540 -21.005  0.00  0.00    +0.150 HD
BRANCH  17  20
ATOM     20  C   UNL     1      34.564 -21.258 -20.662  0.00  0.00    +0.117 C 
BRANCH  20  24
ATOM     21  O   UNL     1      35.717 -21.695 -15.141  0.00  0.00    -0.464 OA
ATOM     22  O   UNL     1      32.737 -23.394 -14.006  0.00  0.00    -0.271 OA
ATOM     23  N   UNL     1      33.280 -22.726 -16.139  0.00  0.00    -0.279 N 
ATOM     24  C   UNL     1      34.860 -21.393 -19.196  0.00  0.00    -0.001 C 
ATOM     25  C   UNL     1      34.219 -22.140 -16.993  0.00  0.00    +0.085 C 
ATOM     26  C   UNL     1      33.935 -22.011 -18.353  0.00  0.00    +0.015 C 
ATOM     27  C   UNL     1      35.415 -21.647 -16.473  0.00  0.00    +0.153 C 
ATOM     28  C   UNL     1      36.056 -20.896 -18.678  0.00  0.00    +0.001 C 
ATOM     29  C   UNL     1      36.331 -21.016 -17.315  0.00  0.00    +0.038 C 
ATOM     30  C   UNL     1      34.996 -22.674 -14.419  0.00  0.00    +0.290 C 
ATOM     31  C   UNL     1      33.553 -22.946 -14.808  0.00  0.00    +0.271 C 
ATOM     32  H   UNL     1      32.402 -22.989 -16.498  0.00  0.00    +0.155 HD
ENDBRANCH  20  24
ENDBRANCH  17  20
ENDBRANCH  14  18
BRANCH   5  33
ATOM     33  C   UNL     1      31.741 -12.804 -21.306  0.00  0.00    +0.089 C 
BRANCH  33  36
ATOM     34  O   UNL     1      31.736 -11.030 -19.652  0.00  0.00    -0.275 OA
ATOM     35  N   UNL     1      30.251 -10.934 -21.405  0.00  0.00    -0.329 N 
ATOM     36  C   UNL     1      31.271 -11.513 -20.681  0.00  0.00    +0.220 C 
ATOM     37  H   UNL     1      29.854 -10.085 -21.104  0.00  0.00    +0.145 HD
ATOM     38  H   UNL     1      29.920 -11.370 -22.223  0.00  0.00    +0.145 HD
ENDBRANCH  33  36
ENDBRANCH   5  33
TORSDOF 5
ENDMDL
MODEL 8
REMARK VINA RESULT:     -11.5      2.823      5.023
REMARK  Name = 25174099
REMARK  5 active torsions:
REMARK  status: ('A' for Active; 'I' for Inactive)
REMARK    1  A    between atoms: C_5  and  C_33
REMARK    2  A    between atoms: C_14  and  C_18
REMARK    3  A    between atoms: N_17  and  C_20
REMARK    4  A    between atoms: C_20  and  C_24
REMARK    5  A    between atoms: C_33  and  C_36
REMARK                            x       y       z     vdW  Elec       q    Type
REMARK                         _______ _______ _______ _____ _____    ______ ____
ROOT
ATOM      1  S   UNL     1      32.914 -23.026 -14.823  0.00  0.00    -0.064 S 
ATOM      2  O   UNL     1      37.478 -22.000 -16.416  0.00  0.00    -0.274 OA
ATOM      3  N   UNL     1      33.435 -22.092 -17.277  0.00  0.00    -0.379 NA
ATOM      4  N   UNL     1      35.711 -21.659 -17.867  0.00  0.00    -0.255 N 
ATOM      5  C   UNL     1      36.748 -23.182 -13.604  0.00  0.00    +0.028 C 
ATOM      6  C   UNL     1      36.494 -23.251 -12.078  0.00  0.00    +0.005 C 
ATOM      7  C   UNL     1      35.450 -22.990 -14.352  0.00  0.00    -0.027 C 
ATOM      8  C   UNL     1      35.334 -24.191 -11.719  0.00  0.00    +0.006 C 
ATOM      9  C   UNL     1      34.016 -23.742 -12.362  0.00  0.00    +0.032 C 
ATOM     10  C   UNL     1      34.228 -23.286 -13.773  0.00  0.00    +0.002 C 
ATOM     11  C   UNL     1      35.276 -22.502 -15.690  0.00  0.00    +0.154 C 
ATOM     12  C   UNL     1      33.941 -22.485 -16.073  0.00  0.00    +0.152 C 
ATOM     13  C   UNL     1      36.274 -22.046 -16.652  0.00  0.00    +0.239 C 
ATOM     14  C   UNL     1      34.347 -21.701 -18.112  0.00  0.00    +0.240 C 
ATOM     15  H   UNL     1      36.308 -21.342 -18.583  0.00  0.00    +0.157 HD
ENDROOT
BRANCH  14  18
ATOM     16  O   UNL     1      32.756 -20.988 -19.644  0.00  0.00    -0.266 OA
ATOM     17  N   UNL     1      34.983 -21.175 -20.356  0.00  0.00    -0.294 N 
ATOM     18  C   UNL     1      33.938 -21.247 -19.461  0.00  0.00    +0.290 C 
ATOM     19  H   UNL     1      35.884 -21.421 -20.044  0.00  0.00    +0.150 HD
BRANCH  17  20
ATOM     20  C   UNL     1      34.820 -20.755 -21.729  0.00  0.00    +0.117 C 
BRANCH  20  24
ATOM     21  O   UNL     1      34.496 -15.123 -22.136  0.00  0.00    -0.464 OA
ATOM     22  O   UNL     1      33.330 -14.801 -25.541  0.00  0.00    -0.271 OA
ATOM     23  N   UNL     1      33.797 -16.721 -24.363  0.00  0.00    -0.279 N 
ATOM     24  C   UNL     1      34.716 -19.262 -21.850  0.00  0.00    -0.001 C 
ATOM     25  C   UNL     1      34.189 -17.300 -23.153  0.00  0.00    +0.085 C 
ATOM     26  C   UNL     1      34.290 -18.689 -23.048  0.00  0.00    +0.015 C 
ATOM     27  C   UNL     1      34.520 -16.488 -22.069  0.00  0.00    +0.153 C 
ATOM     28  C   UNL     1      35.051 -18.451 -20.766  0.00  0.00    +0.001 C 
ATOM     29  C   UNL     1      34.961 -17.063 -20.877  0.00  0.00    +0.038 C 
ATOM     30  C   UNL     1      33.676 -14.608 -23.167  0.00  0.00    +0.290 C 
ATOM     31  C   UNL     1      33.607 -15.363 -24.484  0.00  0.00    +0.271 C 
ATOM     32  H   UNL     1      33.653 -17.297 -25.147  0.00  0.00    +0.155 HD
ENDBRANCH  20  24
ENDBRANCH  17  20
ENDBRANCH  14  18
BRANCH   5  33
ATOM     33  C   UNL     1      37.485 -24.437 -14.087  0.00  0.00    +0.089 C 
BRANCH  33  36
ATOM     34  O   UNL     1      39.577 -23.891 -12.987  0.00  0.00    -0.275 OA
ATOM     35  N   UNL     1      39.613 -24.644 -15.160  0.00  0.00    -0.329 N 
ATOM     36  C   UNL     1      38.983 -24.285 -13.988  0.00  0.00    +0.220 C 
ATOM     37  H   UNL     1      40.594 -24.592 -15.228  0.00  0.00    +0.145 HD
ATOM     38  H   UNL     1      39.083 -24.953 -15.929  0.00  0.00    +0.145 HD
ENDBRANCH  33  36
ENDBRANCH   5  33
TORSDOF 5
ENDMDL
MODEL 9
REMARK VINA RESULT:     -11.5      2.731      4.185
REMARK  Name = 25174099
REMARK  5 active torsions:
REMARK  status: ('A' for Active; 'I' for Inactive)
REMARK    1  A    between atoms: C_5  and  C_33
REMARK    2  A    between atoms: C_14  and  C_18
REMARK    3  A    between atoms: N_17  and  C_20
REMARK    4  A    between atoms: C_20  and  C_24
REMARK    5  A    between atoms: C_33  and  C_36
REMARK                            x       y       z     vdW  Elec       q    Type
REMARK                         _______ _______ _______ _____ _____    ______ ____
ROOT
ATOM      1  S   UNL     1      31.552 -22.048 -17.534  0.00  0.00    -0.064 S 
ATOM      2  O   UNL     1      36.437 -21.844 -16.815  0.00  0.00    -0.274 OA
ATOM      3  N   UNL     1      33.243 -20.907 -19.268  0.00  0.00    -0.379 NA
ATOM      4  N   UNL     1      35.577 -20.911 -18.747  0.00  0.00    -0.255 N 
ATOM      5  C   UNL     1      34.367 -23.230 -14.910  0.00  0.00    +0.028 C 
ATOM      6  C   UNL     1      33.447 -23.461 -13.685  0.00  0.00    +0.005 C 
ATOM      7  C   UNL     1      33.584 -22.647 -16.062  0.00  0.00    -0.027 C 
ATOM      8  C   UNL     1      32.133 -24.161 -14.064  0.00  0.00    +0.006 C 
ATOM      9  C   UNL     1      31.321 -23.340 -15.074  0.00  0.00    +0.032 C 
ATOM     10  C   UNL     1      32.205 -22.744 -16.125  0.00  0.00    +0.002 C 
ATOM     11  C   UNL     1      34.098 -21.943 -17.201  0.00  0.00    +0.154 C 
ATOM     12  C   UNL     1      33.095 -21.574 -18.088  0.00  0.00    +0.152 C 
ATOM     13  C   UNL     1      35.475 -21.586 -17.532  0.00  0.00    +0.239 C 
ATOM     14  C   UNL     1      34.477 -20.612 -19.538  0.00  0.00    +0.240 C 
ATOM     15  H   UNL     1      36.469 -20.635 -19.059  0.00  0.00    +0.157 HD
ENDROOT
BRANCH  14  18
ATOM     16  O   UNL     1      34.083 -20.110 -21.769  0.00  0.00    -0.266 OA
ATOM     17  N   UNL     1      35.858 -19.030 -20.681  0.00  0.00    -0.294 N 
ATOM     18  C   UNL     1      34.785 -19.888 -20.792  0.00  0.00    +0.290 C 
ATOM     19  H   UNL     1      36.319 -18.967 -19.813  0.00  0.00    +0.150 HD
BRANCH  17  20
ATOM     20  C   UNL     1      36.337 -18.219 -21.776  0.00  0.00    +0.117 C 
BRANCH  20  24
ATOM     21  O   UNL     1      32.629 -14.192 -23.202  0.00  0.00    -0.464 OA
ATOM     22  O   UNL     1      32.179 -12.584 -19.997  0.00  0.00    -0.271 OA
ATOM     23  N   UNL     1      33.513 -14.383 -20.522  0.00  0.00    -0.279 N 
ATOM     24  C   UNL     1      35.363 -17.136 -22.140  0.00  0.00    -0.001 C 
ATOM     25  C   UNL     1      34.003 -15.246 -21.506  0.00  0.00    +0.085 C 
ATOM     26  C   UNL     1      34.904 -16.254 -21.161  0.00  0.00    +0.015 C 
ATOM     27  C   UNL     1      33.554 -15.123 -22.821  0.00  0.00    +0.153 C 
ATOM     28  C   UNL     1      34.912 -17.017 -23.455  0.00  0.00    +0.001 C 
ATOM     29  C   UNL     1      34.002 -16.016 -23.795  0.00  0.00    +0.038 C 
ATOM     30  C   UNL     1      32.526 -13.087 -22.325  0.00  0.00    +0.290 C 
ATOM     31  C   UNL     1      32.688 -13.327 -20.833  0.00  0.00    +0.271 C 
ATOM     32  H   UNL     1      33.765 -14.533 -19.582  0.00  0.00    +0.155 HD
ENDBRANCH  20  24
ENDBRANCH  17  20
ENDBRANCH  14  18
BRANCH   5  33
ATOM     33  C   UNL     1      35.064 -24.533 -15.317  0.00  0.00    +0.089 C 
BRANCH  33  36
ATOM     34  O   UNL     1      36.580 -25.615 -13.763  0.00  0.00    -0.275 OA
ATOM     35  N   UNL     1      37.307 -23.786 -14.953  0.00  0.00    -0.329 N 
ATOM     36  C   UNL     1      36.370 -24.727 -14.586  0.00  0.00    +0.220 C 
ATOM     37  H   UNL     1      38.205 -23.801 -14.549  0.00  0.00    +0.145 HD
ATOM     38  H   UNL     1      37.079 -23.099 -15.619  0.00  0.00    +0.145 HD
ENDBRANCH  33  36
ENDBRANCH   5  33
TORSDOF 5
ENDMDL
