MODEL 1
REMARK VINA RESULT:     -11.8      0.000      0.000
REMARK  Name = 6918508
REMARK  2 active torsions:
REMARK  status: ('A' for Active; 'I' for Inactive)
REMARK    1  A    between atoms: N_1  and  C_24
REMARK    2  A    between atoms: N_4  and  C_17
REMARK                            x       y       z     vdW  Elec       q    Type
REMARK                         _______ _______ _______ _____ _____    ______ ____
ROOT
ATOM      1  N   UNL     1      34.243 -24.716 -13.500  0.00  0.00    -0.270 N 
ATOM      2  N   UNL     1      32.911 -23.629 -15.094  0.00  0.00    -0.334 NA
ATOM      3  N   UNL     1      32.014 -24.241 -12.954  0.00  0.00    -0.191 NA
ATOM      4  N   UNL     1      32.565 -22.478 -17.584  0.00  0.00    -0.296 N 
ATOM      5  N   UNL     1      29.417 -22.599 -14.914  0.00  0.00    -0.244 NA
ATOM      6  N   UNL     1      30.313 -21.986 -17.055  0.00  0.00    -0.227 NA
ATOM      7  C   UNL     1      33.020 -24.180 -13.858  0.00  0.00    +0.141 C 
ATOM      8  C   UNL     1      31.715 -23.109 -15.432  0.00  0.00    +0.190 C 
ATOM      9  C   UNL     1      30.613 -23.118 -14.577  0.00  0.00    +0.115 C 
ATOM     10  C   UNL     1      30.841 -23.705 -13.347  0.00  0.00    +0.186 C 
ATOM     11  C   UNL     1      31.487 -22.522 -16.661  0.00  0.00    +0.162 C 
ATOM     12  C   UNL     1      29.333 -22.058 -16.143  0.00  0.00    +0.252 C 
ATOM     13  H   UNL     1      34.333 -25.116 -12.605  0.00  0.00    +0.159 HD
ATOM     14  H   UNL     1      33.197 -23.227 -17.492  0.00  0.00    +0.154 HD
ENDROOT
BRANCH   4  17
ATOM     15 CL   UNL     1      36.235 -20.053 -20.219  0.00  0.00    -0.080 Cl
ATOM     16  F   UNL     1      33.882 -18.907 -21.611  0.00  0.00    -0.203 F 
ATOM     17  C   UNL     1      32.902 -21.574 -18.602  0.00  0.00    +0.050 C 
ATOM     18  C   UNL     1      34.244 -21.291 -18.878  0.00  0.00    +0.028 C 
ATOM     19  C   UNL     1      31.900 -20.949 -19.351  0.00  0.00    +0.017 C 
ATOM     20  C   UNL     1      34.579 -20.393 -19.891  0.00  0.00    +0.086 C 
ATOM     21  C   UNL     1      32.235 -20.051 -20.364  0.00  0.00    +0.032 C 
ATOM     22  C   UNL     1      33.576 -19.773 -20.634  0.00  0.00    +0.151 C 
ENDBRANCH   4  17
BRANCH   1  24
ATOM     23  N   UNL     1      37.727 -23.830 -12.803  0.00  0.00    +0.386 N 
ATOM     24  C   UNL     1      35.404 -24.720 -14.371  0.00  0.00    +0.075 C 
ATOM     25  C   UNL     1      35.984 -23.308 -14.482  0.00  0.00    -0.003 C 
ATOM     26  C   UNL     1      36.460 -25.688 -13.838  0.00  0.00    -0.003 C 
ATOM     27  C   UNL     1      36.692 -22.865 -13.199  0.00  0.00    -0.076 C 
ATOM     28  C   UNL     1      37.150 -25.162 -12.575  0.00  0.00    -0.076 C 
ATOM     29  C   UNL     1      38.429 -23.365 -11.606  0.00  0.00    -0.101 C 
ATOM     30  H   UNL     1      38.397 -23.903 -13.568  0.00  0.00    -0.080 HD
ENDBRANCH   1  24
TORSDOF 2
ENDMDL
MODEL 2
REMARK VINA RESULT:      -9.6      3.534      7.684
REMARK  Name = 6918508
REMARK  2 active torsions:
REMARK  status: ('A' for Active; 'I' for Inactive)
REMARK    1  A    between atoms: N_1  and  C_24
REMARK    2  A    between atoms: N_4  and  C_17
REMARK                            x       y       z     vdW  Elec       q    Type
REMARK                         _______ _______ _______ _____ _____    ______ ____
ROOT
ATOM      1  N   UNL     1      30.421 -22.353 -17.225  0.00  0.00    -0.270 N 
ATOM      2  N   UNL     1      32.736 -22.465 -16.867  0.00  0.00    -0.334 NA
ATOM      3  N   UNL     1      31.835 -21.212 -18.704  0.00  0.00    -0.191 NA
ATOM      4  N   UNL     1      34.925 -23.353 -15.430  0.00  0.00    -0.296 N 
ATOM      5  N   UNL     1      35.471 -20.952 -18.746  0.00  0.00    -0.244 NA
ATOM      6  N   UNL     1      36.372 -22.206 -16.908  0.00  0.00    -0.227 NA
ATOM      7  C   UNL     1      31.700 -21.999 -17.611  0.00  0.00    +0.141 C 
ATOM      8  C   UNL     1      33.977 -22.112 -17.251  0.00  0.00    +0.190 C 
ATOM      9  C   UNL     1      34.229 -21.306 -18.360  0.00  0.00    +0.115 C 
ATOM     10  C   UNL     1      33.101 -20.891 -19.041  0.00  0.00    +0.186 C 
ATOM     11  C   UNL     1      35.105 -22.526 -16.570  0.00  0.00    +0.162 C 
ATOM     12  C   UNL     1      36.480 -21.425 -17.994  0.00  0.00    +0.252 C 
ATOM     13  H   UNL     1      29.664 -22.018 -17.757  0.00  0.00    +0.159 HD
ATOM     14  H   UNL     1      34.125 -23.925 -15.478  0.00  0.00    +0.154 HD
ENDROOT
BRANCH   4  17
ATOM     15 CL   UNL     1      39.046 -25.330 -13.105  0.00  0.00    -0.080 Cl
ATOM     16  F   UNL     1      37.845 -23.968 -10.762  0.00  0.00    -0.203 F 
ATOM     17  C   UNL     1      35.666 -23.511 -14.250  0.00  0.00    +0.050 C 
ATOM     18  C   UNL     1      36.852 -24.255 -14.256  0.00  0.00    +0.028 C 
ATOM     19  C   UNL     1      35.228 -22.926 -13.058  0.00  0.00    +0.017 C 
ATOM     20  C   UNL     1      37.589 -24.411 -13.083  0.00  0.00    +0.086 C 
ATOM     21  C   UNL     1      35.966 -23.083 -11.885  0.00  0.00    +0.032 C 
ATOM     22  C   UNL     1      37.147 -23.826 -11.897  0.00  0.00    +0.151 C 
ENDBRANCH   4  17
BRANCH   1  24
ATOM     23  N   UNL     1      27.409 -22.577 -15.155  0.00  0.00    +0.386 N 
ATOM     24  C   UNL     1      30.133 -23.192 -16.076  0.00  0.00    +0.075 C 
ATOM     25  C   UNL     1      29.853 -22.325 -14.847  0.00  0.00    -0.003 C 
ATOM     26  C   UNL     1      28.937 -24.098 -16.372  0.00  0.00    -0.003 C 
ATOM     27  C   UNL     1      28.497 -21.616 -14.929  0.00  0.00    -0.076 C 
ATOM     28  C   UNL     1      27.613 -23.327 -16.402  0.00  0.00    -0.076 C 
ATOM     29  C   UNL     1      26.117 -21.890 -15.177  0.00  0.00    -0.101 C 
ATOM     30  H   UNL     1      27.412 -23.243 -14.383  0.00  0.00    -0.080 HD
ENDBRANCH   1  24
TORSDOF 2
ENDMDL
MODEL 3
REMARK VINA RESULT:      -9.5     12.971     17.037
REMARK  Name = 6918508
REMARK  2 active torsions:
REMARK  status: ('A' for Active; 'I' for Inactive)
REMARK    1  A    between atoms: N_1  and  C_24
REMARK    2  A    between atoms: N_4  and  C_17
REMARK                            x       y       z     vdW  Elec       q    Type
REMARK                         _______ _______ _______ _____ _____    ______ ____
ROOT
ATOM      1  N   UNL     1      32.360  -5.854 -24.515  0.00  0.00    -0.270 N 
ATOM      2  N   UNL     1      32.341  -7.915 -23.396  0.00  0.00    -0.334 NA
ATOM      3  N   UNL     1      31.227  -6.002 -22.469  0.00  0.00    -0.191 NA
ATOM      4  N   UNL     1      33.046 -10.582 -23.220  0.00  0.00    -0.296 N 
ATOM      5  N   UNL     1      30.793  -8.844 -20.227  0.00  0.00    -0.244 NA
ATOM      6  N   UNL     1      31.907 -10.757 -21.155  0.00  0.00    -0.227 NA
ATOM      7  C   UNL     1      31.964  -6.611 -23.428  0.00  0.00    +0.141 C 
ATOM      8  C   UNL     1      31.947  -8.643 -22.334  0.00  0.00    +0.190 C 
ATOM      9  C   UNL     1      31.187  -8.116 -21.291  0.00  0.00    +0.115 C 
ATOM     10  C   UNL     1      30.862  -6.780 -21.430  0.00  0.00    +0.186 C 
ATOM     11  C   UNL     1      32.271  -9.979 -22.195  0.00  0.00    +0.162 C 
ATOM     12  C   UNL     1      31.177 -10.132 -20.218  0.00  0.00    +0.252 C 
ATOM     13  H   UNL     1      32.090  -4.908 -24.548  0.00  0.00    +0.159 HD
ATOM     14  H   UNL     1      33.659  -9.959 -23.673  0.00  0.00    +0.154 HD
ENDROOT
BRANCH   4  17
ATOM     15 CL   UNL     1      34.376 -15.471 -22.427  0.00  0.00    -0.080 Cl
ATOM     16  F   UNL     1      33.283 -15.764 -25.167  0.00  0.00    -0.203 F 
ATOM     17  C   UNL     1      33.108 -11.894 -23.709  0.00  0.00    +0.050 C 
ATOM     18  C   UNL     1      33.648 -12.917 -22.921  0.00  0.00    +0.028 C 
ATOM     19  C   UNL     1      32.631 -12.194 -24.990  0.00  0.00    +0.017 C 
ATOM     20  C   UNL     1      33.709 -14.222 -23.408  0.00  0.00    +0.086 C 
ATOM     21  C   UNL     1      32.692 -13.499 -25.476  0.00  0.00    +0.032 C 
ATOM     22  C   UNL     1      33.231 -14.514 -24.685  0.00  0.00    +0.151 C 
ENDBRANCH   4  17
BRANCH   1  24
ATOM     23  N   UNL     1      34.346  -4.104 -27.045  0.00  0.00    +0.386 N 
ATOM     24  C   UNL     1      33.153  -6.378 -25.611  0.00  0.00    +0.075 C 
ATOM     25  C   UNL     1      32.609  -5.866 -26.947  0.00  0.00    -0.003 C 
ATOM     26  C   UNL     1      34.618  -5.973 -25.444  0.00  0.00    -0.003 C 
ATOM     27  C   UNL     1      32.909  -4.380 -27.168  0.00  0.00    -0.076 C 
ATOM     28  C   UNL     1      34.847  -4.482 -25.716  0.00  0.00    -0.076 C 
ATOM     29  C   UNL     1      34.621  -2.692 -27.312  0.00  0.00    -0.101 C 
ATOM     30  H   UNL     1      34.835  -4.670 -27.738  0.00  0.00    -0.080 HD
ENDBRANCH   1  24
TORSDOF 2
ENDMDL
MODEL 4
REMARK VINA RESULT:      -9.0     15.588     19.588
REMARK  Name = 6918508
REMARK  2 active torsions:
REMARK  status: ('A' for Active; 'I' for Inactive)
REMARK    1  A    between atoms: N_1  and  C_24
REMARK    2  A    between atoms: N_4  and  C_17
REMARK                            x       y       z     vdW  Elec       q    Type
REMARK                         _______ _______ _______ _____ _____    ______ ____
ROOT
ATOM      1  N   UNL     1      32.679  -4.278 -26.872  0.00  0.00    -0.270 N 
ATOM      2  N   UNL     1      32.039  -5.138 -24.786  0.00  0.00    -0.334 NA
ATOM      3  N   UNL     1      31.332  -2.954 -25.485  0.00  0.00    -0.191 NA
ATOM      4  N   UNL     1      32.052  -7.147 -22.887  0.00  0.00    -0.296 N 
ATOM      5  N   UNL     1      29.983  -3.645 -22.170  0.00  0.00    -0.244 NA
ATOM      6  N   UNL     1      30.690  -5.830 -21.471  0.00  0.00    -0.227 NA
ATOM      7  C   UNL     1      31.997  -4.117 -25.681  0.00  0.00    +0.141 C 
ATOM      8  C   UNL     1      31.370  -4.971 -23.630  0.00  0.00    +0.190 C 
ATOM      9  C   UNL     1      30.653  -3.814 -23.327  0.00  0.00    +0.115 C 
ATOM     10  C   UNL     1      30.680  -2.843 -24.310  0.00  0.00    +0.186 C 
ATOM     11  C   UNL     1      31.342  -5.941 -22.647  0.00  0.00    +0.162 C 
ATOM     12  C   UNL     1      30.039  -4.670 -21.301  0.00  0.00    +0.252 C 
ATOM     13  H   UNL     1      32.652  -3.544 -27.527  0.00  0.00    +0.159 HD
ATOM     14  H   UNL     1      32.843  -7.034 -23.462  0.00  0.00    +0.154 HD
ENDROOT
BRANCH   4  17
ATOM     15 CL   UNL     1      32.908 -12.149 -23.624  0.00  0.00    -0.080 Cl
ATOM     16  F   UNL     1      31.229 -12.356 -21.190  0.00  0.00    -0.203 F 
ATOM     17  C   UNL     1      31.845  -8.466 -22.461  0.00  0.00    +0.050 C 
ATOM     18  C   UNL     1      32.411  -9.533 -23.168  0.00  0.00    +0.028 C 
ATOM     19  C   UNL     1      31.073  -8.729 -21.325  0.00  0.00    +0.017 C 
ATOM     20  C   UNL     1      32.206 -10.846 -22.743  0.00  0.00    +0.086 C 
ATOM     21  C   UNL     1      30.868 -10.041 -20.900  0.00  0.00    +0.032 C 
ATOM     22  C   UNL     1      31.435 -11.100 -21.610  0.00  0.00    +0.151 C 
ENDBRANCH   4  17
BRANCH   1  24
ATOM     23  N   UNL     1      35.673  -4.676 -28.942  0.00  0.00    +0.386 N 
ATOM     24  C   UNL     1      33.433  -5.471 -27.210  0.00  0.00    +0.075 C 
ATOM     25  C   UNL     1      33.424  -5.689 -28.725  0.00  0.00    -0.003 C 
ATOM     26  C   UNL     1      34.869  -5.349 -26.699  0.00  0.00    -0.003 C 
ATOM     27  C   UNL     1      34.301  -4.674 -29.465  0.00  0.00    -0.076 C 
ATOM     28  C   UNL     1      35.695  -4.345 -27.510  0.00  0.00    -0.076 C 
ATOM     29  C   UNL     1      36.509  -3.741 -29.695  0.00  0.00    -0.101 C 
ATOM     30  H   UNL     1      36.050  -5.616 -29.054  0.00  0.00    -0.080 HD
ENDBRANCH   1  24
TORSDOF 2
ENDMDL
MODEL 5
REMARK VINA RESULT:      -8.8     15.910     19.894
REMARK  Name = 6918508
REMARK  2 active torsions:
REMARK  status: ('A' for Active; 'I' for Inactive)
REMARK    1  A    between atoms: N_1  and  C_24
REMARK    2  A    between atoms: N_4  and  C_17
REMARK                            x       y       z     vdW  Elec       q    Type
REMARK                         _______ _______ _______ _____ _____    ______ ____
ROOT
ATOM      1  N   UNL     1      32.616  -4.156 -26.971  0.00  0.00    -0.270 N 
ATOM      2  N   UNL     1      31.969  -4.866 -24.832  0.00  0.00    -0.334 NA
ATOM      3  N   UNL     1      31.266  -2.736 -25.685  0.00  0.00    -0.191 NA
ATOM      4  N   UNL     1      31.974  -6.736 -22.796  0.00  0.00    -0.296 N 
ATOM      5  N   UNL     1      29.906  -3.191 -22.334  0.00  0.00    -0.244 NA
ATOM      6  N   UNL     1      30.609  -5.322 -21.480  0.00  0.00    -0.227 NA
ATOM      7  C   UNL     1      31.930  -3.911 -25.796  0.00  0.00    +0.141 C 
ATOM      8  C   UNL     1      31.296  -4.617 -23.692  0.00  0.00    +0.190 C 
ATOM      9  C   UNL     1      30.579  -3.441 -23.474  0.00  0.00    +0.115 C 
ATOM     10  C   UNL     1      30.610  -2.542 -24.522  0.00  0.00    +0.186 C 
ATOM     11  C   UNL     1      31.264  -5.516 -22.644  0.00  0.00    +0.162 C 
ATOM     12  C   UNL     1      29.959  -4.152 -21.394  0.00  0.00    +0.252 C 
ATOM     13  H   UNL     1      32.591  -3.469 -27.677  0.00  0.00    +0.159 HD
ATOM     14  H   UNL     1      32.767  -6.665 -23.376  0.00  0.00    +0.154 HD
ENDROOT
BRANCH   4  17
ATOM     15 CL   UNL     1      31.120  -9.700 -18.699  0.00  0.00    -0.080 Cl
ATOM     16  F   UNL     1      31.144 -11.825 -20.766  0.00  0.00    -0.203 F 
ATOM     17  C   UNL     1      31.764  -8.023 -22.279  0.00  0.00    +0.050 C 
ATOM     18  C   UNL     1      31.569  -8.208 -20.905  0.00  0.00    +0.028 C 
ATOM     19  C   UNL     1      31.748  -9.132 -23.130  0.00  0.00    +0.017 C 
ATOM     20  C   UNL     1      31.359  -9.487 -20.391  0.00  0.00    +0.086 C 
ATOM     21  C   UNL     1      31.539 -10.411 -22.616  0.00  0.00    +0.032 C 
ATOM     22  C   UNL     1      31.344 -10.589 -21.246  0.00  0.00    +0.151 C 
ENDBRANCH   4  17
BRANCH   1  24
ATOM     23  N   UNL     1      35.557  -4.720 -29.077  0.00  0.00    +0.386 N 
ATOM     24  C   UNL     1      33.370  -5.369 -27.222  0.00  0.00    +0.075 C 
ATOM     25  C   UNL     1      33.322  -5.721 -28.711  0.00  0.00    -0.003 C 
ATOM     26  C   UNL     1      34.818  -5.196 -26.763  0.00  0.00    -0.003 C 
ATOM     27  C   UNL     1      34.171  -4.772 -29.562  0.00  0.00    -0.076 C 
ATOM     28  C   UNL     1      35.614  -4.264 -27.682  0.00  0.00    -0.076 C 
ATOM     29  C   UNL     1      36.366  -3.852 -29.933  0.00  0.00    -0.101 C 
ATOM     30  H   UNL     1      35.938  -5.665 -29.115  0.00  0.00    -0.080 HD
ENDBRANCH   1  24
TORSDOF 2
ENDMDL
