MODEL 1
REMARK VINA RESULT:     -12.5      0.000      0.000
REMARK  Name = 443388
REMARK  13 active torsions:
REMARK  status: ('A' for Active; 'I' for Inactive)
REMARK    1  A    between atoms: C_1  and  N_22
REMARK    2  A    between atoms: C_2  and  C_9
REMARK    3  A    between atoms: N_8  and  CA_11
REMARK    4  A    between atoms: CA_11  and  C_13
REMARK    5  A    between atoms: CA_11  and  CB_16
REMARK    6  A    between atoms: C_13  and  O_14
REMARK    7  A    between atoms: CB_16  and  CG_17
REMARK    8  A    between atoms: CG_17  and  CD_19
REMARK    9  A    between atoms: CD_19  and  OE1_20
REMARK   10  A    between atoms: N_22  and  C_23
REMARK   11  A    between atoms: N_22  and  C_39
REMARK   12  A    between atoms: C_23  and  C_28
REMARK   13  A    between atoms: C_39  and  C_40
REMARK                            x       y       z     vdW  Elec       q    Type
REMARK                         _______ _______ _______ _____ _____    ______ ____
ROOT
ATOM      1  C   UNL     1      35.289 -21.193 -18.272  0.00  0.00    +0.049 C 
ATOM      2  C   UNL     1      35.408 -22.380 -15.751  0.00  0.00    +0.053 C 
ATOM      3  C   UNL     1      36.418 -21.017 -17.471  0.00  0.00    +0.015 C 
ATOM      4  C   UNL     1      34.221 -21.963 -17.813  0.00  0.00    +0.015 C 
ATOM      5  C   UNL     1      36.477 -21.610 -16.210  0.00  0.00    +0.006 C 
ATOM      6  C   UNL     1      34.281 -22.556 -16.552  0.00  0.00    +0.006 C 
ENDROOT
BRANCH   2   9
ATOM      7  O   UNL     1      34.427 -23.241 -13.803  0.00  0.00    -0.270 OA
ATOM      8  N   UNL     1      36.741 -23.317 -13.943  0.00  0.00    -0.293 N 
ATOM      9  C   ACE A   0      35.471 -22.997 -14.435  0.00  0.00    +0.246 C 
ATOM     10  H   UNL     1      37.524 -23.096 -14.496  0.00  0.00    +0.150 HD
BRANCH   8  11
ATOM     11  CA  UNL     1      36.965 -23.954 -12.665  0.00  0.00    +0.172 C 
BRANCH  11  13
ATOM     12  OXT UNL     1      36.440 -22.964 -10.503  0.00  0.00    -0.248 OA
ATOM     13  C   UNL     1      36.961 -22.871 -11.606  0.00  0.00    +0.332 C 
BRANCH  13  14
ATOM     14  O   UNL     1      37.648 -21.768 -12.006  0.00  0.00    -0.479 OA
ATOM     15  H   UNL     1      37.879 -21.108 -11.382  0.00  0.00    +0.295 HD
ENDBRANCH  13  14
ENDBRANCH  11  13
BRANCH  11  16
ATOM     16  CB  UNL     1      38.226 -24.828 -12.652  0.00  0.00    +0.043 C 
BRANCH  16  17
ATOM     17  CG  UNL     1      38.572 -25.521 -13.976  0.00  0.00    +0.112 C 
BRANCH  17  19
ATOM     18  OE2 UNL     1      40.506 -24.060 -14.219  0.00  0.00    -0.250 OA
ATOM     19  CD  UNL     1      39.831 -24.994 -14.629  0.00  0.00    +0.314 C 
BRANCH  19  20
ATOM     20  OE1 UNL     1      40.117 -25.663 -15.777  0.00  0.00    -0.480 OA
ATOM     21  HE1 UNL     1      40.977 -25.614 -16.146  0.00  0.00    +0.295 HD
ENDBRANCH  19  20
ENDBRANCH  17  19
ENDBRANCH  16  17
ENDBRANCH  11  16
ENDBRANCH   8  11
ENDBRANCH   2   9
BRANCH   1  22
ATOM     22  N   UNL     1      35.229 -20.597 -19.538  0.00  0.00    -0.292 N 
BRANCH  22  23
ATOM     23  C   UNL     1      36.157 -19.558 -19.926  0.00  0.00    +0.118 C 
BRANCH  23  28
ATOM     24  O   UNL     1      34.214 -14.804 -20.336  0.00  0.00    -0.209 OA
ATOM     25  N   UNL     1      33.977 -16.299 -24.045  0.00  0.00    -0.275 N 
ATOM     26  N   UNL     1      33.612 -14.502 -22.526  0.00  0.00    -0.302 NA
ATOM     27  N   UNL     1      33.051 -14.340 -24.796  0.00  0.00    -0.320 N 
ATOM     28  C   UNL     1      35.584 -18.707 -21.010  0.00  0.00    -0.002 C 
ATOM     29  C   UNL     1      35.146 -17.416 -20.722  0.00  0.00    +0.011 C 
ATOM     30  C   UNL     1      34.612 -16.627 -21.745  0.00  0.00    +0.108 C 
ATOM     31  C   UNL     1      34.516 -17.121 -23.052  0.00  0.00    +0.063 C 
ATOM     32  C   UNL     1      35.492 -19.207 -22.309  0.00  0.00    -0.001 C 
ATOM     33  C   UNL     1      34.959 -18.416 -23.329  0.00  0.00    +0.015 C 
ATOM     34  C   UNL     1      34.132 -15.242 -21.479  0.00  0.00    +0.208 C 
ATOM     35  C   UNL     1      33.554 -15.031 -23.721  0.00  0.00    +0.248 C 
ATOM     36  H   UNL     1      33.900 -16.627 -24.970  0.00  0.00    +0.156 HD
ATOM     37  H   UNL     1      33.020 -14.765 -25.683  0.00  0.00    +0.146 HD
ATOM     38  H   UNL     1      32.720 -13.420 -24.679  0.00  0.00    +0.146 HD
ENDBRANCH  23  28
ENDBRANCH  22  23
BRANCH  22  39
ATOM     39  C   UNL     1      34.204 -21.010 -20.497  0.00  0.00    +0.170 C 
BRANCH  39  40
ATOM     40  C   UNL     1      32.900 -20.454 -20.132  0.00  0.00    -0.056 C 
ATOM     41  C   UNL     1      31.828 -20.000 -19.835  0.00  0.00    -0.012 C 
ENDBRANCH  39  40
ENDBRANCH  22  39
ENDBRANCH   1  22
TORSDOF 13
ENDMDL
MODEL 2
REMARK VINA RESULT:     -12.3      4.244      5.754
REMARK  Name = 443388
REMARK  13 active torsions:
REMARK  status: ('A' for Active; 'I' for Inactive)
REMARK    1  A    between atoms: C_1  and  N_22
REMARK    2  A    between atoms: C_2  and  C_9
REMARK    3  A    between atoms: N_8  and  CA_11
REMARK    4  A    between atoms: CA_11  and  C_13
REMARK    5  A    between atoms: CA_11  and  CB_16
REMARK    6  A    between atoms: C_13  and  O_14
REMARK    7  A    between atoms: CB_16  and  CG_17
REMARK    8  A    between atoms: CG_17  and  CD_19
REMARK    9  A    between atoms: CD_19  and  OE1_20
REMARK   10  A    between atoms: N_22  and  C_23
REMARK   11  A    between atoms: N_22  and  C_39
REMARK   12  A    between atoms: C_23  and  C_28
REMARK   13  A    between atoms: C_39  and  C_40
REMARK                            x       y       z     vdW  Elec       q    Type
REMARK                         _______ _______ _______ _____ _____    ______ ____
ROOT
ATOM      1  C   UNL     1      33.819 -19.541 -20.899  0.00  0.00    +0.049 C 
ATOM      2  C   UNL     1      33.071 -21.346 -18.909  0.00  0.00    +0.053 C 
ATOM      3  C   UNL     1      34.794 -20.264 -20.211  0.00  0.00    +0.015 C 
ATOM      4  C   UNL     1      32.471 -19.721 -20.592  0.00  0.00    +0.015 C 
ATOM      5  C   UNL     1      34.420 -21.166 -19.216  0.00  0.00    +0.006 C 
ATOM      6  C   UNL     1      32.097 -20.624 -19.598  0.00  0.00    +0.006 C 
ENDROOT
BRANCH   2   9
ATOM      7  O   UNL     1      33.447 -23.211 -17.538  0.00  0.00    -0.270 OA
ATOM      8  N   UNL     1      31.437 -22.086 -17.264  0.00  0.00    -0.293 N 
ATOM      9  C   ACE A   0      32.682 -22.288 -17.871  0.00  0.00    +0.246 C 
ATOM     10  H   UNL     1      30.882 -21.336 -17.577  0.00  0.00    +0.150 HD
BRANCH   8  11
ATOM     11  CA  UNL     1      30.921 -22.922 -16.203  0.00  0.00    +0.172 C 
BRANCH  11  13
ATOM     12  OXT UNL     1      28.726 -21.969 -16.654  0.00  0.00    -0.248 OA
ATOM     13  C   UNL     1      29.411 -22.925 -16.316  0.00  0.00    +0.332 C 
BRANCH  13  14
ATOM     14  O   UNL     1      28.884 -24.145 -16.031  0.00  0.00    -0.479 OA
ATOM     15  H   UNL     1      29.420 -24.912 -16.086  0.00  0.00    +0.295 HD
ENDBRANCH  13  14
ENDBRANCH  11  13
BRANCH  11  16
ATOM     16  CB  UNL     1      31.437 -22.508 -14.819  0.00  0.00    +0.043 C 
BRANCH  16  17
ATOM     17  CG  UNL     1      30.529 -22.860 -13.634  0.00  0.00    +0.112 C 
BRANCH  17  19
ATOM     18  OE2 UNL     1      31.744 -24.768 -12.730  0.00  0.00    -0.250 OA
ATOM     19  CD  UNL     1      30.699 -24.279 -13.136  0.00  0.00    +0.314 C 
BRANCH  19  20
ATOM     20  OE1 UNL     1      29.542 -24.985 -13.228  0.00  0.00    -0.480 OA
ATOM     21  HE1 UNL     1      28.955 -25.019 -12.499  0.00  0.00    +0.295 HD
ENDBRANCH  19  20
ENDBRANCH  17  19
ENDBRANCH  16  17
ENDBRANCH  11  16
ENDBRANCH   8  11
ENDBRANCH   2   9
BRANCH   1  22
ATOM     22  N   UNL     1      34.195 -18.633 -21.898  0.00  0.00    -0.292 N 
BRANCH  22  23
ATOM     23  C   UNL     1      35.184 -17.608 -21.650  0.00  0.00    +0.118 C 
BRANCH  23  28
ATOM     24  O   UNL     1      33.591 -14.476 -25.418  0.00  0.00    -0.209 OA
ATOM     25  N   UNL     1      32.875 -12.427 -22.050  0.00  0.00    -0.275 N 
ATOM     26  N   UNL     1      32.804 -12.566 -24.426  0.00  0.00    -0.302 NA
ATOM     27  N   UNL     1      32.032 -10.678 -23.271  0.00  0.00    -0.320 N 
ATOM     28  C   UNL     1      34.579 -16.247 -21.749  0.00  0.00    -0.002 C 
ATOM     29  C   UNL     1      34.273 -15.713 -23.000  0.00  0.00    +0.011 C 
ATOM     30  C   UNL     1      33.705 -14.438 -23.082  0.00  0.00    +0.108 C 
ATOM     31  C   UNL     1      33.443 -13.697 -21.924  0.00  0.00    +0.063 C 
ATOM     32  C   UNL     1      34.321 -15.516 -20.590  0.00  0.00    -0.001 C 
ATOM     33  C   UNL     1      33.753 -14.243 -20.677  0.00  0.00    +0.015 C 
ATOM     34  C   UNL     1      33.363 -13.831 -24.399  0.00  0.00    +0.208 C 
ATOM     35  C   UNL     1      32.587 -11.934 -23.302  0.00  0.00    +0.248 C 
ATOM     36  H   UNL     1      32.683 -11.889 -21.249  0.00  0.00    +0.156 HD
ATOM     37  H   UNL     1      31.881 -10.228 -22.409  0.00  0.00    +0.146 HD
ATOM     38  H   UNL     1      31.784 -10.229 -24.112  0.00  0.00    +0.146 HD
ENDBRANCH  23  28
ENDBRANCH  22  23
BRANCH  22  39
ATOM     39  C   UNL     1      33.575 -18.699 -23.221  0.00  0.00    +0.170 C 
BRANCH  39  40
ATOM     40  C   UNL     1      34.283 -19.653 -24.077  0.00  0.00    -0.056 C 
ATOM     41  C   UNL     1      34.862 -20.439 -24.777  0.00  0.00    -0.012 C 
ENDBRANCH  39  40
ENDBRANCH  22  39
ENDBRANCH   1  22
TORSDOF 13
ENDMDL
MODEL 3
REMARK VINA RESULT:     -12.3      2.485      4.052
REMARK  Name = 443388
REMARK  13 active torsions:
REMARK  status: ('A' for Active; 'I' for Inactive)
REMARK    1  A    between atoms: C_1  and  N_22
REMARK    2  A    between atoms: C_2  and  C_9
REMARK    3  A    between atoms: N_8  and  CA_11
REMARK    4  A    between atoms: CA_11  and  C_13
REMARK    5  A    between atoms: CA_11  and  CB_16
REMARK    6  A    between atoms: C_13  and  O_14
REMARK    7  A    between atoms: CB_16  and  CG_17
REMARK    8  A    between atoms: CG_17  and  CD_19
REMARK    9  A    between atoms: CD_19  and  OE1_20
REMARK   10  A    between atoms: N_22  and  C_23
REMARK   11  A    between atoms: N_22  and  C_39
REMARK   12  A    between atoms: C_23  and  C_28
REMARK   13  A    between atoms: C_39  and  C_40
REMARK                            x       y       z     vdW  Elec       q    Type
REMARK                         _______ _______ _______ _____ _____    ______ ____
ROOT
ATOM      1  C   UNL     1      34.114 -19.650 -20.745  0.00  0.00    +0.049 C 
ATOM      2  C   UNL     1      33.713 -21.631 -18.822  0.00  0.00    +0.053 C 
ATOM      3  C   UNL     1      35.210 -20.287 -20.161  0.00  0.00    +0.015 C 
ATOM      4  C   UNL     1      32.819 -20.003 -20.367  0.00  0.00    +0.015 C 
ATOM      5  C   UNL     1      35.008 -21.277 -19.200  0.00  0.00    +0.006 C 
ATOM      6  C   UNL     1      32.619 -20.994 -19.406  0.00  0.00    +0.006 C 
ENDROOT
BRANCH   2   9
ATOM      7  O   UNL     1      33.080 -23.786 -18.148  0.00  0.00    -0.270 OA
ATOM      8  N   UNL     1      33.825 -22.339 -16.496  0.00  0.00    -0.293 N 
ATOM      9  C   ACE A   0      33.505 -22.663 -17.819  0.00  0.00    +0.246 C 
ATOM     10  H   UNL     1      34.156 -21.431 -16.307  0.00  0.00    +0.150 HD
BRANCH   8  11
ATOM     11  CA  UNL     1      33.695 -23.263 -15.393  0.00  0.00    +0.172 C 
BRANCH  11  13
ATOM     12  OXT UNL     1      31.265 -23.319 -15.255  0.00  0.00    -0.248 OA
ATOM     13  C   UNL     1      32.342 -23.027 -14.754  0.00  0.00    +0.332 C 
BRANCH  13  14
ATOM     14  O   UNL     1      32.455 -22.475 -13.517  0.00  0.00    -0.479 OA
ATOM     15  H   UNL     1      32.902 -21.660 -13.406  0.00  0.00    +0.295 HD
ENDBRANCH  13  14
ENDBRANCH  11  13
BRANCH  11  16
ATOM     16  CB  UNL     1      34.868 -23.179 -14.408  0.00  0.00    +0.043 C 
BRANCH  16  17
ATOM     17  CG  UNL     1      36.223 -23.663 -14.940  0.00  0.00    +0.112 C 
BRANCH  17  19
ATOM     18  OE2 UNL     1      36.722 -21.427 -15.767  0.00  0.00    -0.250 OA
ATOM     19  CD  UNL     1      37.101 -22.551 -15.474  0.00  0.00    +0.314 C 
BRANCH  19  20
ATOM     20  OE1 UNL     1      38.386 -22.963 -15.635  0.00  0.00    -0.480 OA
ATOM     21  HE1 UNL     1      38.894 -22.641 -16.354  0.00  0.00    +0.295 HD
ENDBRANCH  19  20
ENDBRANCH  17  19
ENDBRANCH  16  17
ENDBRANCH  11  16
ENDBRANCH   8  11
ENDBRANCH   2   9
BRANCH   1  22
ATOM     22  N   UNL     1      34.315 -18.654 -21.709  0.00  0.00    -0.292 N 
BRANCH  22  23
ATOM     23  C   UNL     1      35.271 -17.589 -21.504  0.00  0.00    +0.118 C 
BRANCH  23  28
ATOM     24  O   UNL     1      33.671 -14.515 -25.315  0.00  0.00    -0.209 OA
ATOM     25  N   UNL     1      32.770 -12.504 -21.970  0.00  0.00    -0.275 N 
ATOM     26  N   UNL     1      32.779 -12.640 -24.347  0.00  0.00    -0.302 NA
ATOM     27  N   UNL     1      31.896 -10.787 -23.215  0.00  0.00    -0.320 N 
ATOM     28  C   UNL     1      34.616 -16.253 -21.620  0.00  0.00    -0.002 C 
ATOM     29  C   UNL     1      34.327 -15.729 -22.879  0.00  0.00    +0.011 C 
ATOM     30  C   UNL     1      33.712 -14.478 -22.978  0.00  0.00    +0.108 C 
ATOM     31  C   UNL     1      33.385 -13.750 -21.827  0.00  0.00    +0.063 C 
ATOM     32  C   UNL     1      34.293 -15.535 -20.469  0.00  0.00    -0.001 C 
ATOM     33  C   UNL     1      33.678 -14.286 -20.571  0.00  0.00    +0.015 C 
ATOM     34  C   UNL     1      33.387 -13.882 -24.303  0.00  0.00    +0.208 C 
ATOM     35  C   UNL     1      32.502 -12.019 -23.230  0.00  0.00    +0.248 C 
ATOM     36  H   UNL     1      32.532 -11.975 -21.174  0.00  0.00    +0.156 HD
ATOM     37  H   UNL     1      31.701 -10.345 -22.357  0.00  0.00    +0.146 HD
ATOM     38  H   UNL     1      31.657 -10.346 -24.062  0.00  0.00    +0.146 HD
ENDBRANCH  23  28
ENDBRANCH  22  23
BRANCH  22  39
ATOM     39  C   UNL     1      33.542 -18.667 -22.951  0.00  0.00    +0.170 C 
BRANCH  39  40
ATOM     40  C   UNL     1      34.177 -19.534 -23.946  0.00  0.00    -0.056 C 
ATOM     41  C   UNL     1      34.694 -20.247 -24.763  0.00  0.00    -0.012 C 
ENDBRANCH  39  40
ENDBRANCH  22  39
ENDBRANCH   1  22
TORSDOF 13
ENDMDL
MODEL 4
REMARK VINA RESULT:     -12.0      3.079     10.504
REMARK  Name = 443388
REMARK  13 active torsions:
REMARK  status: ('A' for Active; 'I' for Inactive)
REMARK    1  A    between atoms: C_1  and  N_22
REMARK    2  A    between atoms: C_2  and  C_9
REMARK    3  A    between atoms: N_8  and  CA_11
REMARK    4  A    between atoms: CA_11  and  C_13
REMARK    5  A    between atoms: CA_11  and  CB_16
REMARK    6  A    between atoms: C_13  and  O_14
REMARK    7  A    between atoms: CB_16  and  CG_17
REMARK    8  A    between atoms: CG_17  and  CD_19
REMARK    9  A    between atoms: CD_19  and  OE1_20
REMARK   10  A    between atoms: N_22  and  C_23
REMARK   11  A    between atoms: N_22  and  C_39
REMARK   12  A    between atoms: C_23  and  C_28
REMARK   13  A    between atoms: C_39  and  C_40
REMARK                            x       y       z     vdW  Elec       q    Type
REMARK                         _______ _______ _______ _____ _____    ______ ____
ROOT
ATOM      1  C   UNL     1      33.275 -22.729 -16.166  0.00  0.00    +0.049 C 
ATOM      2  C   UNL     1      34.464 -21.524 -18.382  0.00  0.00    +0.053 C 
ATOM      3  C   UNL     1      32.524 -22.492 -17.317  0.00  0.00    +0.015 C 
ATOM      4  C   UNL     1      34.621 -22.364 -16.123  0.00  0.00    +0.015 C 
ATOM      5  C   UNL     1      33.118 -21.889 -18.425  0.00  0.00    +0.006 C 
ATOM      6  C   UNL     1      35.215 -21.762 -17.232  0.00  0.00    +0.006 C 
ENDROOT
BRANCH   2   9
ATOM      7  O   UNL     1      36.223 -21.231 -19.905  0.00  0.00    -0.270 OA
ATOM      8  N   UNL     1      34.330 -19.928 -20.215  0.00  0.00    -0.293 N 
ATOM      9  C   ACE A   0      35.082 -20.894 -19.539  0.00  0.00    +0.246 C 
ATOM     10  H   UNL     1      33.434 -19.710 -19.870  0.00  0.00    +0.150 HD
BRANCH   8  11
ATOM     11  CA  UNL     1      34.797 -19.231 -21.392  0.00  0.00    +0.172 C 
BRANCH  11  13
ATOM     12  OXT UNL     1      35.145 -16.946 -20.629  0.00  0.00    -0.248 OA
ATOM     13  C   UNL     1      35.606 -18.038 -20.928  0.00  0.00    +0.332 C 
BRANCH  13  14
ATOM     14  O   UNL     1      36.932 -18.328 -20.841  0.00  0.00    -0.479 OA
ATOM     15  H   UNL     1      37.231 -19.203 -20.992  0.00  0.00    +0.295 HD
ENDBRANCH  13  14
ENDBRANCH  11  13
BRANCH  11  16
ATOM     16  CB  UNL     1      33.660 -18.871 -22.357  0.00  0.00    +0.043 C 
BRANCH  16  17
ATOM     17  CG  UNL     1      34.077 -18.593 -23.807  0.00  0.00    +0.112 C 
BRANCH  17  19
ATOM     18  OE2 UNL     1      32.988 -16.827 -25.083  0.00  0.00    -0.250 OA
ATOM     19  CD  UNL     1      33.819 -17.170 -24.254  0.00  0.00    +0.314 C 
BRANCH  19  20
ATOM     20  OE1 UNL     1      34.663 -16.294 -23.648  0.00  0.00    -0.480 OA
ATOM     21  HE1 UNL     1      34.428 -15.390 -23.579  0.00  0.00    +0.295 HD
ENDBRANCH  19  20
ENDBRANCH  17  19
ENDBRANCH  16  17
ENDBRANCH  11  16
ENDBRANCH   8  11
ENDBRANCH   2   9
BRANCH   1  22
ATOM     22  N   UNL     1      32.679 -23.334 -15.052  0.00  0.00    -0.292 N 
BRANCH  22  23
ATOM     23  C   UNL     1      33.158 -23.080 -13.711  0.00  0.00    +0.118 C 
BRANCH  23  28
ATOM     24  O   UNL     1      36.164 -26.827 -15.573  0.00  0.00    -0.209 OA
ATOM     25  N   UNL     1      38.574 -24.725 -13.161  0.00  0.00    -0.275 N 
ATOM     26  N   UNL     1      38.246 -26.545 -14.661  0.00  0.00    -0.302 NA
ATOM     27  N   UNL     1      40.321 -26.126 -13.653  0.00  0.00    -0.320 N 
ATOM     28  C   UNL     1      34.580 -23.508 -13.562  0.00  0.00    -0.002 C 
ATOM     29  C   UNL     1      35.047 -24.622 -14.259  0.00  0.00    +0.011 C 
ATOM     30  C   UNL     1      36.381 -25.014 -14.113  0.00  0.00    +0.108 C 
ATOM     31  C   UNL     1      37.248 -24.300 -13.278  0.00  0.00    +0.063 C 
ATOM     32  C   UNL     1      35.437 -22.791 -12.727  0.00  0.00    -0.001 C 
ATOM     33  C   UNL     1      36.769 -23.185 -12.586  0.00  0.00    +0.015 C 
ATOM     34  C   UNL     1      36.919 -26.197 -14.840  0.00  0.00    +0.208 C 
ATOM     35  C   UNL     1      38.997 -25.829 -13.864  0.00  0.00    +0.248 C 
ATOM     36  H   UNL     1      39.200 -24.237 -12.578  0.00  0.00    +0.156 HD
ATOM     37  H   UNL     1      40.859 -25.569 -13.047  0.00  0.00    +0.146 HD
ATOM     38  H   UNL     1      40.730 -26.897 -14.109  0.00  0.00    +0.146 HD
ENDBRANCH  23  28
ENDBRANCH  22  23
BRANCH  22  39
ATOM     39  C   UNL     1      31.556 -24.255 -15.228  0.00  0.00    +0.170 C 
BRANCH  39  40
ATOM     40  C   UNL     1      30.797 -24.389 -13.984  0.00  0.00    -0.056 C 
ATOM     41  C   UNL     1      30.175 -24.496 -12.962  0.00  0.00    -0.012 C 
ENDBRANCH  39  40
ENDBRANCH  22  39
ENDBRANCH   1  22
TORSDOF 13
ENDMDL
MODEL 5
REMARK VINA RESULT:     -11.9      2.814     10.363
REMARK  Name = 443388
REMARK  13 active torsions:
REMARK  status: ('A' for Active; 'I' for Inactive)
REMARK    1  A    between atoms: C_1  and  N_22
REMARK    2  A    between atoms: C_2  and  C_9
REMARK    3  A    between atoms: N_8  and  CA_11
REMARK    4  A    between atoms: CA_11  and  C_13
REMARK    5  A    between atoms: CA_11  and  CB_16
REMARK    6  A    between atoms: C_13  and  O_14
REMARK    7  A    between atoms: CB_16  and  CG_17
REMARK    8  A    between atoms: CG_17  and  CD_19
REMARK    9  A    between atoms: CD_19  and  OE1_20
REMARK   10  A    between atoms: N_22  and  C_23
REMARK   11  A    between atoms: N_22  and  C_39
REMARK   12  A    between atoms: C_23  and  C_28
REMARK   13  A    between atoms: C_39  and  C_40
REMARK                            x       y       z     vdW  Elec       q    Type
REMARK                         _______ _______ _______ _____ _____    ______ ____
ROOT
ATOM      1  C   UNL     1      33.107 -22.658 -16.402  0.00  0.00    +0.049 C 
ATOM      2  C   UNL     1      34.375 -21.432 -18.562  0.00  0.00    +0.053 C 
ATOM      3  C   UNL     1      32.378 -22.335 -17.547  0.00  0.00    +0.015 C 
ATOM      4  C   UNL     1      34.470 -22.369 -16.338  0.00  0.00    +0.015 C 
ATOM      5  C   UNL     1      33.012 -21.722 -18.627  0.00  0.00    +0.006 C 
ATOM      6  C   UNL     1      35.104 -21.756 -17.418  0.00  0.00    +0.006 C 
ENDROOT
BRANCH   2   9
ATOM      7  O   UNL     1      36.188 -21.126 -20.018  0.00  0.00    -0.270 OA
ATOM      8  N   UNL     1      34.308 -19.819 -20.383  0.00  0.00    -0.293 N 
ATOM      9  C   ACE A   0      35.035 -20.792 -19.689  0.00  0.00    +0.246 C 
ATOM     10  H   UNL     1      33.400 -19.603 -20.069  0.00  0.00    +0.150 HD
BRANCH   8  11
ATOM     11  CA  UNL     1      34.817 -19.111 -21.536  0.00  0.00    +0.172 C 
BRANCH  11  13
ATOM     12  OXT UNL     1      35.127 -16.853 -20.680  0.00  0.00    -0.248 OA
ATOM     13  C   UNL     1      35.608 -17.922 -21.032  0.00  0.00    +0.332 C 
BRANCH  13  14
ATOM     14  O   UNL     1      36.940 -18.186 -20.973  0.00  0.00    -0.479 OA
ATOM     15  H   UNL     1      37.554 -17.483 -20.902  0.00  0.00    +0.295 HD
ENDBRANCH  13  14
ENDBRANCH  11  13
BRANCH  11  16
ATOM     16  CB  UNL     1      33.717 -18.743 -22.539  0.00  0.00    +0.043 C 
BRANCH  16  17
ATOM     17  CG  UNL     1      34.198 -18.309 -23.930  0.00  0.00    +0.112 C 
BRANCH  17  19
ATOM     18  OE2 UNL     1      32.977 -16.527 -25.055  0.00  0.00    -0.250 OA
ATOM     19  CD  UNL     1      33.852 -16.877 -24.276  0.00  0.00    +0.314 C 
BRANCH  19  20
ATOM     20  OE1 UNL     1      34.669 -15.997 -23.640  0.00  0.00    -0.480 OA
ATOM     21  HE1 UNL     1      35.517 -15.808 -23.991  0.00  0.00    +0.295 HD
ENDBRANCH  19  20
ENDBRANCH  17  19
ENDBRANCH  16  17
ENDBRANCH  11  16
ENDBRANCH   8  11
ENDBRANCH   2   9
BRANCH   1  22
ATOM     22  N   UNL     1      32.471 -23.274 -15.316  0.00  0.00    -0.292 N 
BRANCH  22  23
ATOM     23  C   UNL     1      33.096 -23.336 -14.014  0.00  0.00    +0.118 C 
BRANCH  23  28
ATOM     24  O   UNL     1      37.830 -22.594 -12.120  0.00  0.00    -0.209 OA
ATOM     25  N   UNL     1      38.138 -25.953 -14.281  0.00  0.00    -0.275 N 
ATOM     26  N   UNL     1      39.144 -24.309 -12.883  0.00  0.00    -0.302 NA
ATOM     27  N   UNL     1      40.359 -26.123 -13.736  0.00  0.00    -0.320 N 
ATOM     28  C   UNL     1      34.417 -24.026 -14.089  0.00  0.00    -0.002 C 
ATOM     29  C   UNL     1      35.516 -23.500 -13.410  0.00  0.00    +0.011 C 
ATOM     30  C   UNL     1      36.748 -24.154 -13.486  0.00  0.00    +0.108 C 
ATOM     31  C   UNL     1      36.888 -25.330 -14.233  0.00  0.00    +0.063 C 
ATOM     32  C   UNL     1      34.548 -25.197 -14.835  0.00  0.00    -0.001 C 
ATOM     33  C   UNL     1      35.781 -25.849 -14.907  0.00  0.00    +0.015 C 
ATOM     34  C   UNL     1      37.946 -23.624 -12.776  0.00  0.00    +0.208 C 
ATOM     35  C   UNL     1      39.198 -25.402 -13.599  0.00  0.00    +0.248 C 
ATOM     36  H   UNL     1      38.258 -26.781 -14.801  0.00  0.00    +0.156 HD
ATOM     37  H   UNL     1      40.368 -26.941 -14.282  0.00  0.00    +0.146 HD
ATOM     38  H   UNL     1      41.182 -25.820 -13.288  0.00  0.00    +0.146 HD
ENDBRANCH  23  28
ENDBRANCH  22  23
BRANCH  22  39
ATOM     39  C   UNL     1      31.152 -23.883 -15.486  0.00  0.00    +0.170 C 
BRANCH  39  40
ATOM     40  C   UNL     1      30.101 -22.983 -15.006  0.00  0.00    -0.056 C 
ATOM     41  C   UNL     1      29.241 -22.245 -14.608  0.00  0.00    -0.012 C 
ENDBRANCH  39  40
ENDBRANCH  22  39
ENDBRANCH   1  22
TORSDOF 13
ENDMDL
MODEL 6
REMARK VINA RESULT:     -11.7      1.184      2.836
REMARK  Name = 443388
REMARK  13 active torsions:
REMARK  status: ('A' for Active; 'I' for Inactive)
REMARK    1  A    between atoms: C_1  and  N_22
REMARK    2  A    between atoms: C_2  and  C_9
REMARK    3  A    between atoms: N_8  and  CA_11
REMARK    4  A    between atoms: CA_11  and  C_13
REMARK    5  A    between atoms: CA_11  and  CB_16
REMARK    6  A    between atoms: C_13  and  O_14
REMARK    7  A    between atoms: CB_16  and  CG_17
REMARK    8  A    between atoms: CG_17  and  CD_19
REMARK    9  A    between atoms: CD_19  and  OE1_20
REMARK   10  A    between atoms: N_22  and  C_23
REMARK   11  A    between atoms: N_22  and  C_39
REMARK   12  A    between atoms: C_23  and  C_28
REMARK   13  A    between atoms: C_39  and  C_40
REMARK                            x       y       z     vdW  Elec       q    Type
REMARK                         _______ _______ _______ _____ _____    ______ ____
ROOT
ATOM      1  C   UNL     1      35.562 -20.830 -18.649  0.00  0.00    +0.049 C 
ATOM      2  C   UNL     1      35.983 -22.125 -16.214  0.00  0.00    +0.053 C 
ATOM      3  C   UNL     1      34.676 -21.821 -18.223  0.00  0.00    +0.015 C 
ATOM      4  C   UNL     1      36.658 -20.487 -17.856  0.00  0.00    +0.015 C 
ATOM      5  C   UNL     1      34.887 -22.468 -17.006  0.00  0.00    +0.006 C 
ATOM      6  C   UNL     1      36.868 -21.135 -16.639  0.00  0.00    +0.006 C 
ENDROOT
BRANCH   2   9
ATOM      7  O   UNL     1      35.677 -22.371 -13.902  0.00  0.00    -0.270 OA
ATOM      8  N   UNL     1      36.998 -23.952 -14.967  0.00  0.00    -0.293 N 
ATOM      9  C   ACE A   0      36.202 -22.802 -14.945  0.00  0.00    +0.246 C 
ATOM     10  H   UNL     1      37.382 -24.237 -15.828  0.00  0.00    +0.150 HD
BRANCH   8  11
ATOM     11  CA  UNL     1      37.288 -24.746 -13.794  0.00  0.00    +0.172 C 
BRANCH  11  13
ATOM     12  OXT UNL     1      37.117 -26.990 -14.723  0.00  0.00    -0.248 OA
ATOM     13  C   UNL     1      37.807 -26.088 -14.266  0.00  0.00    +0.332 C 
BRANCH  13  14
ATOM     14  O   UNL     1      39.159 -26.176 -14.159  0.00  0.00    -0.479 OA
ATOM     15  H   UNL     1      39.665 -25.409 -13.976  0.00  0.00    +0.295 HD
ENDBRANCH  13  14
ENDBRANCH  11  13
BRANCH  11  16
ATOM     16  CB  UNL     1      36.095 -24.845 -12.836  0.00  0.00    +0.043 C 
BRANCH  16  17
ATOM     17  CG  UNL     1      36.411 -24.629 -11.350  0.00  0.00    +0.112 C 
BRANCH  17  19
ATOM     18  OE2 UNL     1      35.005 -24.206  -9.406  0.00  0.00    -0.250 OA
ATOM     19  CD  UNL     1      35.284 -23.980 -10.575  0.00  0.00    +0.314 C 
BRANCH  19  20
ATOM     20  OE1 UNL     1      34.570 -23.124 -11.352  0.00  0.00    -0.480 OA
ATOM     21  HE1 UNL     1      34.846 -22.233 -11.444  0.00  0.00    +0.295 HD
ENDBRANCH  19  20
ENDBRANCH  17  19
ENDBRANCH  16  17
ENDBRANCH  11  16
ENDBRANCH   8  11
ENDBRANCH   2   9
BRANCH   1  22
ATOM     22  N   UNL     1      35.352 -20.180 -19.871  0.00  0.00    -0.292 N 
BRANCH  22  23
ATOM     23  C   UNL     1      36.207 -19.098 -20.305  0.00  0.00    +0.118 C 
BRANCH  23  28
ATOM     24  O   UNL     1      34.161 -14.376 -20.554  0.00  0.00    -0.209 OA
ATOM     25  N   UNL     1      33.621 -15.889 -24.223  0.00  0.00    -0.275 N 
ATOM     26  N   UNL     1      33.363 -14.092 -22.682  0.00  0.00    -0.302 NA
ATOM     27  N   UNL     1      32.601 -13.948 -24.894  0.00  0.00    -0.320 N 
ATOM     28  C   UNL     1      35.528 -18.260 -21.337  0.00  0.00    -0.002 C 
ATOM     29  C   UNL     1      35.096 -16.975 -21.014  0.00  0.00    +0.011 C 
ATOM     30  C   UNL     1      34.462 -16.198 -21.988  0.00  0.00    +0.108 C 
ATOM     31  C   UNL     1      34.258 -16.698 -23.280  0.00  0.00    +0.063 C 
ATOM     32  C   UNL     1      35.329 -18.767 -22.621  0.00  0.00    -0.001 C 
ATOM     33  C   UNL     1      34.696 -17.987 -23.592  0.00  0.00    +0.015 C 
ATOM     34  C   UNL     1      33.985 -14.820 -21.684  0.00  0.00    +0.208 C 
ATOM     35  C   UNL     1      33.208 -14.626 -23.866  0.00  0.00    +0.248 C 
ATOM     36  H   UNL     1      33.467 -16.222 -25.137  0.00  0.00    +0.156 HD
ATOM     37  H   UNL     1      32.499 -14.377 -25.774  0.00  0.00    +0.146 HD
ATOM     38  H   UNL     1      32.268 -13.032 -24.750  0.00  0.00    +0.146 HD
ENDBRANCH  23  28
ENDBRANCH  22  23
BRANCH  22  39
ATOM     39  C   UNL     1      34.242 -20.581 -20.736  0.00  0.00    +0.170 C 
BRANCH  39  40
ATOM     40  C   UNL     1      32.959 -20.364 -20.063  0.00  0.00    -0.056 C 
ATOM     41  C   UNL     1      31.909 -20.183 -19.510  0.00  0.00    -0.012 C 
ENDBRANCH  39  40
ENDBRANCH  22  39
ENDBRANCH   1  22
TORSDOF 13
ENDMDL
MODEL 7
REMARK VINA RESULT:     -11.4      2.686      4.749
REMARK  Name = 443388
REMARK  13 active torsions:
REMARK  status: ('A' for Active; 'I' for Inactive)
REMARK    1  A    between atoms: C_1  and  N_22
REMARK    2  A    between atoms: C_2  and  C_9
REMARK    3  A    between atoms: N_8  and  CA_11
REMARK    4  A    between atoms: CA_11  and  C_13
REMARK    5  A    between atoms: CA_11  and  CB_16
REMARK    6  A    between atoms: C_13  and  O_14
REMARK    7  A    between atoms: CB_16  and  CG_17
REMARK    8  A    between atoms: CG_17  and  CD_19
REMARK    9  A    between atoms: CD_19  and  OE1_20
REMARK   10  A    between atoms: N_22  and  C_23
REMARK   11  A    between atoms: N_22  and  C_39
REMARK   12  A    between atoms: C_23  and  C_28
REMARK   13  A    between atoms: C_39  and  C_40
REMARK                            x       y       z     vdW  Elec       q    Type
REMARK                         _______ _______ _______ _____ _____    ______ ____
ROOT
ATOM      1  C   UNL     1      34.310 -19.410 -20.985  0.00  0.00    +0.049 C 
ATOM      2  C   UNL     1      34.108 -21.259 -18.907  0.00  0.00    +0.053 C 
ATOM      3  C   UNL     1      35.465 -19.901 -20.374  0.00  0.00    +0.015 C 
ATOM      4  C   UNL     1      33.056 -19.843 -20.557  0.00  0.00    +0.015 C 
ATOM      5  C   UNL     1      35.363 -20.825 -19.335  0.00  0.00    +0.006 C 
ATOM      6  C   UNL     1      32.955 -20.768 -19.518  0.00  0.00    +0.006 C 
ENDROOT
BRANCH   2   9
ATOM      7  O   UNL     1      33.501 -23.344 -18.021  0.00  0.00    -0.270 OA
ATOM      8  N   UNL     1      34.511 -21.836 -16.577  0.00  0.00    -0.293 N 
ATOM      9  C   ACE A   0      34.004 -22.223 -17.822  0.00  0.00    +0.246 C 
ATOM     10  H   UNL     1      34.895 -20.933 -16.490  0.00  0.00    +0.150 HD
BRANCH   8  11
ATOM     11  CA  UNL     1      34.501 -22.689 -15.410  0.00  0.00    +0.172 C 
BRANCH  11  13
ATOM     12  OXT UNL     1      36.921 -22.962 -15.408  0.00  0.00    -0.248 OA
ATOM     13  C   UNL     1      35.804 -23.462 -15.396  0.00  0.00    +0.332 C 
BRANCH  13  14
ATOM     14  O   UNL     1      35.596 -24.803 -15.329  0.00  0.00    -0.479 OA
ATOM     15  H   UNL     1      35.425 -25.210 -14.503  0.00  0.00    +0.295 HD
ENDBRANCH  13  14
ENDBRANCH  11  13
BRANCH  11  16
ATOM     16  CB  UNL     1      33.254 -23.577 -15.336  0.00  0.00    +0.043 C 
BRANCH  16  17
ATOM     17  CG  UNL     1      32.031 -22.956 -14.649  0.00  0.00    +0.112 C 
BRANCH  17  19
ATOM     18  OE2 UNL     1      31.245 -22.724 -12.355  0.00  0.00    -0.250 OA
ATOM     19  CD  UNL     1      31.888 -23.341 -13.192  0.00  0.00    +0.314 C 
BRANCH  19  20
ATOM     20  OE1 UNL     1      32.605 -24.457 -12.898  0.00  0.00    -0.480 OA
ATOM     21  HE1 UNL     1      33.532 -24.400 -12.774  0.00  0.00    +0.295 HD
ENDBRANCH  19  20
ENDBRANCH  17  19
ENDBRANCH  16  17
ENDBRANCH  11  16
ENDBRANCH   8  11
ENDBRANCH   2   9
BRANCH   1  22
ATOM     22  N   UNL     1      34.411 -18.481 -22.029  0.00  0.00    -0.292 N 
BRANCH  22  23
ATOM     23  C   UNL     1      35.314 -17.354 -21.948  0.00  0.00    +0.118 C 
BRANCH  23  28
ATOM     24  O   UNL     1      33.316 -13.729 -25.016  0.00  0.00    -0.209 OA
ATOM     25  N   UNL     1      32.439 -12.490 -21.310  0.00  0.00    -0.275 N 
ATOM     26  N   UNL     1      32.341 -12.157 -23.665  0.00  0.00    -0.302 NA
ATOM     27  N   UNL     1      31.385 -10.638 -22.158  0.00  0.00    -0.320 N 
ATOM     28  C   UNL     1      34.561 -16.078 -21.775  0.00  0.00    -0.002 C 
ATOM     29  C   UNL     1      34.174 -15.341 -22.894  0.00  0.00    +0.011 C 
ATOM     30  C   UNL     1      33.468 -14.148 -22.721  0.00  0.00    +0.108 C 
ATOM     31  C   UNL     1      33.146 -13.688 -21.438  0.00  0.00    +0.063 C 
ATOM     32  C   UNL     1      34.244 -15.627 -20.493  0.00  0.00    -0.001 C 
ATOM     33  C   UNL     1      33.537 -14.434 -20.325  0.00  0.00    +0.015 C 
ATOM     34  C   UNL     1      33.037 -13.332 -23.890  0.00  0.00    +0.208 C 
ATOM     35  C   UNL     1      32.076 -11.791 -22.438  0.00  0.00    +0.248 C 
ATOM     36  H   UNL     1      32.202 -12.149 -20.417  0.00  0.00    +0.156 HD
ATOM     37  H   UNL     1      31.201 -10.389 -21.224  0.00  0.00    +0.146 HD
ATOM     38  H   UNL     1      31.074 -10.060 -22.892  0.00  0.00    +0.146 HD
ENDBRANCH  23  28
ENDBRANCH  22  23
BRANCH  22  39
ATOM     39  C   UNL     1      33.585 -18.628 -23.227  0.00  0.00    +0.170 C 
BRANCH  39  40
ATOM     40  C   UNL     1      34.189 -19.586 -24.157  0.00  0.00    -0.056 C 
ATOM     41  C   UNL     1      34.687 -20.368 -24.920  0.00  0.00    -0.012 C 
ENDBRANCH  39  40
ENDBRANCH  22  39
ENDBRANCH   1  22
TORSDOF 13
ENDMDL
MODEL 8
REMARK VINA RESULT:     -11.2      6.720     11.207
REMARK  Name = 443388
REMARK  13 active torsions:
REMARK  status: ('A' for Active; 'I' for Inactive)
REMARK    1  A    between atoms: C_1  and  N_22
REMARK    2  A    between atoms: C_2  and  C_9
REMARK    3  A    between atoms: N_8  and  CA_11
REMARK    4  A    between atoms: CA_11  and  C_13
REMARK    5  A    between atoms: CA_11  and  CB_16
REMARK    6  A    between atoms: C_13  and  O_14
REMARK    7  A    between atoms: CB_16  and  CG_17
REMARK    8  A    between atoms: CG_17  and  CD_19
REMARK    9  A    between atoms: CD_19  and  OE1_20
REMARK   10  A    between atoms: N_22  and  C_23
REMARK   11  A    between atoms: N_22  and  C_39
REMARK   12  A    between atoms: C_23  and  C_28
REMARK   13  A    between atoms: C_39  and  C_40
REMARK                            x       y       z     vdW  Elec       q    Type
REMARK                         _______ _______ _______ _____ _____    ______ ____
ROOT
ATOM      1  C   UNL     1      32.564 -12.184 -21.951  0.00  0.00    +0.049 C 
ATOM      2  C   UNL     1      33.679 -14.683 -21.411  0.00  0.00    +0.053 C 
ATOM      3  C   UNL     1      33.397 -12.794 -22.890  0.00  0.00    +0.015 C 
ATOM      4  C   UNL     1      32.289 -12.824 -20.742  0.00  0.00    +0.015 C 
ATOM      5  C   UNL     1      33.954 -14.043 -22.619  0.00  0.00    +0.006 C 
ATOM      6  C   UNL     1      32.847 -14.074 -20.473  0.00  0.00    +0.006 C 
ENDROOT
BRANCH   2   9
ATOM      7  O   UNL     1      34.604 -16.287 -19.972  0.00  0.00    -0.270 OA
ATOM      8  N   UNL     1      34.390 -16.871 -22.206  0.00  0.00    -0.293 N 
ATOM      9  C   ACE A   0      34.262 -15.986 -21.130  0.00  0.00    +0.246 C 
ATOM     10  H   UNL     1      34.099 -16.566 -23.096  0.00  0.00    +0.150 HD
BRANCH   8  11
ATOM     11  CA  UNL     1      34.928 -18.207 -22.083  0.00  0.00    +0.172 C 
BRANCH  11  13
ATOM     12  OXT UNL     1      37.306 -17.828 -22.446  0.00  0.00    -0.248 OA
ATOM     13  C   UNL     1      36.383 -18.080 -21.683  0.00  0.00    +0.332 C 
BRANCH  13  14
ATOM     14  O   UNL     1      36.557 -18.242 -20.344  0.00  0.00    -0.479 OA
ATOM     15  H   UNL     1      36.403 -19.077 -19.950  0.00  0.00    +0.295 HD
ENDBRANCH  13  14
ENDBRANCH  11  13
BRANCH  11  16
ATOM     16  CB  UNL     1      34.704 -19.054 -23.342  0.00  0.00    +0.043 C 
BRANCH  16  17
ATOM     17  CG  UNL     1      33.274 -19.059 -23.898  0.00  0.00    +0.112 C 
BRANCH  17  19
ATOM     18  OE2 UNL     1      33.703 -16.928 -24.997  0.00  0.00    -0.250 OA
ATOM     19  CD  UNL     1      32.966 -17.883 -24.799  0.00  0.00    +0.314 C 
BRANCH  19  20
ATOM     20  OE1 UNL     1      31.727 -17.986 -25.350  0.00  0.00    -0.480 OA
ATOM     21  HE1 UNL     1      31.550 -17.589 -26.180  0.00  0.00    +0.295 HD
ENDBRANCH  19  20
ENDBRANCH  17  19
ENDBRANCH  16  17
ENDBRANCH  11  16
ENDBRANCH   8  11
ENDBRANCH   2   9
BRANCH   1  22
ATOM     22  N   UNL     1      32.005 -10.928 -22.221  0.00  0.00    -0.292 N 
BRANCH  22  23
ATOM     23  C   UNL     1      32.651  -9.993 -23.114  0.00  0.00    +0.118 C 
BRANCH  23  28
ATOM     24  O   UNL     1      32.535  -6.125 -19.714  0.00  0.00    -0.209 OA
ATOM     25  N   UNL     1      30.257  -4.848 -22.751  0.00  0.00    -0.275 N 
ATOM     26  N   UNL     1      31.221  -4.473 -20.607  0.00  0.00    -0.302 NA
ATOM     27  N   UNL     1      29.860  -2.876 -21.650  0.00  0.00    -0.320 N 
ATOM     28  C   UNL     1      32.019  -8.644 -23.024  0.00  0.00    -0.002 C 
ATOM     29  C   UNL     1      32.229  -7.853 -21.895  0.00  0.00    +0.011 C 
ATOM     30  C   UNL     1      31.634  -6.590 -21.821  0.00  0.00    +0.108 C 
ATOM     31  C   UNL     1      30.832  -6.115 -22.866  0.00  0.00    +0.063 C 
ATOM     32  C   UNL     1      31.222  -8.179 -24.070  0.00  0.00    -0.001 C 
ATOM     33  C   UNL     1      30.630  -6.917 -23.992  0.00  0.00    +0.015 C 
ATOM     34  C   UNL     1      31.833  -5.714 -20.633  0.00  0.00    +0.208 C 
ATOM     35  C   UNL     1      30.487  -4.097 -21.621  0.00  0.00    +0.248 C 
ATOM     36  H   UNL     1      29.689  -4.495 -23.475  0.00  0.00    +0.156 HD
ATOM     37  H   UNL     1      29.314  -2.622 -22.428  0.00  0.00    +0.146 HD
ATOM     38  H   UNL     1      29.958  -2.255 -20.892  0.00  0.00    +0.146 HD
ENDBRANCH  23  28
ENDBRANCH  22  23
BRANCH  22  39
ATOM     39  C   UNL     1      30.748 -10.532 -21.586  0.00  0.00    +0.170 C 
BRANCH  39  40
ATOM     40  C   UNL     1      30.978 -10.118 -20.200  0.00  0.00    -0.056 C 
ATOM     41  C   UNL     1      31.162  -9.780 -19.062  0.00  0.00    -0.012 C 
ENDBRANCH  39  40
ENDBRANCH  22  39
ENDBRANCH   1  22
TORSDOF 13
ENDMDL
MODEL 9
REMARK VINA RESULT:     -11.1      3.337      5.088
REMARK  Name = 443388
REMARK  13 active torsions:
REMARK  status: ('A' for Active; 'I' for Inactive)
REMARK    1  A    between atoms: C_1  and  N_22
REMARK    2  A    between atoms: C_2  and  C_9
REMARK    3  A    between atoms: N_8  and  CA_11
REMARK    4  A    between atoms: CA_11  and  C_13
REMARK    5  A    between atoms: CA_11  and  CB_16
REMARK    6  A    between atoms: C_13  and  O_14
REMARK    7  A    between atoms: CB_16  and  CG_17
REMARK    8  A    between atoms: CG_17  and  CD_19
REMARK    9  A    between atoms: CD_19  and  OE1_20
REMARK   10  A    between atoms: N_22  and  C_23
REMARK   11  A    between atoms: N_22  and  C_39
REMARK   12  A    between atoms: C_23  and  C_28
REMARK   13  A    between atoms: C_39  and  C_40
REMARK                            x       y       z     vdW  Elec       q    Type
REMARK                         _______ _______ _______ _____ _____    ______ ____
ROOT
ATOM      1  C   UNL     1      34.149 -19.948 -20.229  0.00  0.00    +0.049 C 
ATOM      2  C   UNL     1      33.014 -21.711 -18.390  0.00  0.00    +0.053 C 
ATOM      3  C   UNL     1      34.967 -20.782 -19.466  0.00  0.00    +0.015 C 
ATOM      4  C   UNL     1      32.764 -19.995 -20.072  0.00  0.00    +0.015 C 
ATOM      5  C   UNL     1      34.399 -21.663 -18.547  0.00  0.00    +0.006 C 
ATOM      6  C   UNL     1      32.197 -20.878 -19.153  0.00  0.00    +0.006 C 
ENDROOT
BRANCH   2   9
ATOM      7  O   UNL     1      33.026 -23.667 -17.096  0.00  0.00    -0.270 OA
ATOM      8  N   UNL     1      31.177 -22.281 -16.898  0.00  0.00    -0.293 N 
ATOM      9  C   ACE A   0      32.423 -22.631 -17.430  0.00  0.00    +0.246 C 
ATOM     10  H   UNL     1      30.756 -21.447 -17.208  0.00  0.00    +0.150 HD
BRANCH   8  11
ATOM     11  CA  UNL     1      30.474 -23.079 -15.919  0.00  0.00    +0.172 C 
BRANCH  11  13
ATOM     12  OXT UNL     1      28.496 -21.977 -16.815  0.00  0.00    -0.248 OA
ATOM     13  C   UNL     1      28.990 -22.867 -16.136  0.00  0.00    +0.332 C 
BRANCH  13  14
ATOM     14  O   UNL     1      28.246 -23.817 -15.511  0.00  0.00    -0.479 OA
ATOM     15  H   UNL     1      27.755 -23.598 -14.743  0.00  0.00    +0.295 HD
ENDBRANCH  13  14
ENDBRANCH  11  13
BRANCH  11  16
ATOM     16  CB  UNL     1      30.936 -22.798 -14.484  0.00  0.00    +0.043 C 
BRANCH  16  17
ATOM     17  CG  UNL     1      31.688 -23.940 -13.789  0.00  0.00    +0.112 C 
BRANCH  17  19
ATOM     18  OE2 UNL     1      33.629 -23.971 -12.317  0.00  0.00    -0.250 OA
ATOM     19  CD  UNL     1      33.081 -23.564 -13.332  0.00  0.00    +0.314 C 
BRANCH  19  20
ATOM     20  OE1 UNL     1      33.659 -22.668 -14.174  0.00  0.00    -0.480 OA
ATOM     21  HE1 UNL     1      34.536 -22.375 -14.017  0.00  0.00    +0.295 HD
ENDBRANCH  19  20
ENDBRANCH  17  19
ENDBRANCH  16  17
ENDBRANCH  11  16
ENDBRANCH   8  11
ENDBRANCH   2   9
BRANCH   1  22
ATOM     22  N   UNL     1      34.719 -19.061 -21.152  0.00  0.00    -0.292 N 
BRANCH  22  23
ATOM     23  C   UNL     1      34.281 -19.025 -22.529  0.00  0.00    +0.118 C 
BRANCH  23  28
ATOM     24  O   UNL     1      34.164 -14.359 -20.347  0.00  0.00    -0.209 OA
ATOM     25  N   UNL     1      33.360 -13.671 -24.211  0.00  0.00    -0.275 N 
ATOM     26  N   UNL     1      33.682 -12.848 -22.000  0.00  0.00    -0.302 NA
ATOM     27  N   UNL     1      33.188 -11.423 -23.794  0.00  0.00    -0.320 N 
ATOM     28  C   UNL     1      34.037 -17.622 -22.976  0.00  0.00    -0.002 C 
ATOM     29  C   UNL     1      34.094 -16.579 -22.052  0.00  0.00    +0.011 C 
ATOM     30  C   UNL     1      33.865 -15.269 -22.481  0.00  0.00    +0.108 C 
ATOM     31  C   UNL     1      33.582 -14.995 -23.825  0.00  0.00    +0.063 C 
ATOM     32  C   UNL     1      33.755 -17.359 -24.316  0.00  0.00    -0.001 C 
ATOM     33  C   UNL     1      33.529 -16.048 -24.741  0.00  0.00    +0.015 C 
ATOM     34  C   UNL     1      33.916 -14.127 -21.526  0.00  0.00    +0.208 C 
ATOM     35  C   UNL     1      33.424 -12.669 -23.269  0.00  0.00    +0.248 C 
ATOM     36  H   UNL     1      33.159 -13.457 -25.150  0.00  0.00    +0.156 HD
ATOM     37  H   UNL     1      32.996 -11.321 -24.754  0.00  0.00    +0.146 HD
ATOM     38  H   UNL     1      33.210 -10.631 -23.209  0.00  0.00    +0.146 HD
ENDBRANCH  23  28
ENDBRANCH  22  23
BRANCH  22  39
ATOM     39  C   UNL     1      35.789 -18.154 -20.736  0.00  0.00    +0.170 C 
BRANCH  39  40
ATOM     40  C   UNL     1      36.931 -18.250 -21.648  0.00  0.00    -0.056 C 
ATOM     41  C   UNL     1      37.870 -18.330 -22.392  0.00  0.00    -0.012 C 
ENDBRANCH  39  40
ENDBRANCH  22  39
ENDBRANCH   1  22
TORSDOF 13
ENDMDL
