MODEL 1
REMARK VINA RESULT:     -12.2      0.000      0.000
REMARK  Name = 1633
REMARK  3 active torsions:
REMARK  status: ('A' for Active; 'I' for Inactive)
REMARK    1  A    between atoms: C_1  and  N_8
REMARK    2  A    between atoms: C_2  and  C_15
REMARK    3  A    between atoms: C_15  and  C_18
REMARK                            x       y       z     vdW  Elec       q    Type
REMARK                         _______ _______ _______ _____ _____    ______ ____
ROOT
ATOM      1  C   UNL     1      34.008 -19.750 -20.626  0.00  0.00    +0.048 C 
ATOM      2  C   UNL     1      33.861 -21.807 -18.771  0.00  0.00    -0.021 C 
ATOM      3  C   UNL     1      35.175 -20.367 -20.174  0.00  0.00    +0.014 C 
ATOM      4  C   UNL     1      32.767 -20.167 -20.143  0.00  0.00    +0.014 C 
ATOM      5  C   UNL     1      35.101 -21.401 -19.242  0.00  0.00    -0.003 C 
ATOM      6  C   UNL     1      32.694 -21.201 -19.210  0.00  0.00    -0.003 C 
ENDROOT
BRANCH   1   8
ATOM      7  O   UNL     1      33.746 -15.496 -25.500  0.00  0.00    -0.265 OA
ATOM      8  N   UNL     1      34.081 -18.716 -21.557  0.00  0.00    -0.304 N 
ATOM      9  N   UNL     1      34.234 -16.582 -23.484  0.00  0.00    -0.269 N 
ATOM     10  C   UNL     1      33.984 -18.994 -22.995  0.00  0.00    +0.112 C 
ATOM     11  C   UNL     1      34.259 -17.326 -21.126  0.00  0.00    +0.112 C 
ATOM     12  C   UNL     1      33.444 -17.778 -23.745  0.00  0.00    +0.115 C 
ATOM     13  C   UNL     1      34.944 -16.504 -22.216  0.00  0.00    +0.115 C 
ATOM     14  C   UNL     1      34.300 -15.551 -24.408  0.00  0.00    +0.303 C 
ENDBRANCH   1   8
BRANCH   2  15
ATOM     15  C   UNL     1      33.782 -22.925 -17.764  0.00  0.00    +0.040 C 
BRANCH  15  18
ATOM     16  O   UNL     1      31.608 -23.161 -15.637  0.00  0.00    -0.274 OA
ATOM     17  N   UNL     1      33.520 -23.715 -14.388  0.00  0.00    -0.284 N 
ATOM     18  C   UNL     1      33.846 -22.409 -16.337  0.00  0.00    +0.105 C 
ATOM     19  C   UNL     1      35.140 -22.723 -15.643  0.00  0.00    -0.000 C 
ATOM     20  C   UNL     1      32.814 -23.126 -15.444  0.00  0.00    +0.230 C 
ATOM     21  C   UNL     1      34.885 -23.481 -14.503  0.00  0.00    +0.047 C 
ATOM     22  C   UNL     1      36.435 -22.362 -15.967  0.00  0.00    -0.003 C 
ATOM     23  C   UNL     1      35.885 -23.912 -13.654  0.00  0.00    +0.014 C 
ATOM     24  C   UNL     1      37.468 -22.786 -15.124  0.00  0.00    -0.000 C 
ATOM     25  C   UNL     1      37.195 -23.554 -13.978  0.00  0.00    +0.001 C 
ATOM     26  H   UNL     1      33.102 -24.227 -13.659  0.00  0.00    +0.155 HD
ENDBRANCH  15  18
ENDBRANCH   2  15
TORSDOF 3
ENDMDL
MODEL 2
REMARK VINA RESULT:     -12.1      2.163      9.089
REMARK  Name = 1633
REMARK  3 active torsions:
REMARK  status: ('A' for Active; 'I' for Inactive)
REMARK    1  A    between atoms: C_1  and  N_8
REMARK    2  A    between atoms: C_2  and  C_15
REMARK    3  A    between atoms: C_15  and  C_18
REMARK                            x       y       z     vdW  Elec       q    Type
REMARK                         _______ _______ _______ _____ _____    ______ ____
ROOT
ATOM      1  C   UNL     1      34.945 -21.453 -18.008  0.00  0.00    +0.048 C 
ATOM      2  C   UNL     1      33.948 -20.228 -20.287  0.00  0.00    -0.021 C 
ATOM      3  C   UNL     1      35.806 -20.768 -18.866  0.00  0.00    +0.014 C 
ATOM      4  C   UNL     1      33.582 -21.522 -18.297  0.00  0.00    +0.014 C 
ATOM      5  C   UNL     1      35.305 -20.152 -20.011  0.00  0.00    -0.003 C 
ATOM      6  C   UNL     1      33.081 -20.906 -19.444  0.00  0.00    -0.003 C 
ENDROOT
BRANCH   1   8
ATOM      7  O   UNL     1      37.932 -23.594 -12.677  0.00  0.00    -0.265 OA
ATOM      8  N   UNL     1      35.446 -22.069 -16.862  0.00  0.00    -0.304 N 
ATOM      9  N   UNL     1      36.481 -23.343 -14.497  0.00  0.00    -0.269 N 
ATOM     10  C   UNL     1      36.876 -22.009 -16.542  0.00  0.00    +0.112 C 
ATOM     11  C   UNL     1      34.556 -22.794 -15.950  0.00  0.00    +0.112 C 
ATOM     12  C   UNL     1      37.099 -22.139 -15.037  0.00  0.00    +0.115 C 
ATOM     13  C   UNL     1      35.322 -23.879 -15.195  0.00  0.00    +0.115 C 
ATOM     14  C   UNL     1      36.974 -23.950 -13.353  0.00  0.00    +0.303 C 
ENDBRANCH   1   8
BRANCH   2  15
ATOM     15  C   UNL     1      33.406 -19.561 -21.526  0.00  0.00    +0.040 C 
BRANCH  15  18
ATOM     16  O   UNL     1      34.381 -20.055 -24.373  0.00  0.00    -0.274 OA
ATOM     17  N   UNL     1      34.201 -17.713 -24.361  0.00  0.00    -0.284 N 
ATOM     18  C   UNL     1      34.479 -18.784 -22.267  0.00  0.00    +0.105 C 
ATOM     19  C   UNL     1      34.346 -17.294 -22.127  0.00  0.00    -0.000 C 
ATOM     20  C   UNL     1      34.351 -18.982 -23.790  0.00  0.00    +0.230 C 
ATOM     21  C   UNL     1      34.196 -16.721 -23.388  0.00  0.00    +0.047 C 
ATOM     22  C   UNL     1      34.372 -16.500 -20.996  0.00  0.00    -0.003 C 
ATOM     23  C   UNL     1      34.060 -15.360 -23.576  0.00  0.00    +0.014 C 
ATOM     24  C   UNL     1      34.236 -15.117 -21.158  0.00  0.00    -0.000 C 
ATOM     25  C   UNL     1      34.082 -14.552 -22.437  0.00  0.00    +0.001 C 
ATOM     26  H   UNL     1      34.110 -17.545 -25.326  0.00  0.00    +0.155 HD
ENDBRANCH  15  18
ENDBRANCH   2  15
TORSDOF 3
ENDMDL
MODEL 3
REMARK VINA RESULT:     -11.4      1.347      1.826
REMARK  Name = 1633
REMARK  3 active torsions:
REMARK  status: ('A' for Active; 'I' for Inactive)
REMARK    1  A    between atoms: C_1  and  N_8
REMARK    2  A    between atoms: C_2  and  C_15
REMARK    3  A    between atoms: C_15  and  C_18
REMARK                            x       y       z     vdW  Elec       q    Type
REMARK                         _______ _______ _______ _____ _____    ______ ____
ROOT
ATOM      1  C   UNL     1      34.533 -18.363 -21.636  0.00  0.00    +0.048 C 
ATOM      2  C   UNL     1      35.051 -20.517 -19.967  0.00  0.00    -0.021 C 
ATOM      3  C   UNL     1      35.827 -18.585 -21.164  0.00  0.00    +0.014 C 
ATOM      4  C   UNL     1      33.499 -19.225 -21.268  0.00  0.00    +0.014 C 
ATOM      5  C   UNL     1      36.087 -19.668 -20.325  0.00  0.00    -0.003 C 
ATOM      6  C   UNL     1      33.760 -20.308 -20.427  0.00  0.00    -0.003 C 
ENDROOT
BRANCH   1   8
ATOM      7  O   UNL     1      32.801 -13.975 -26.071  0.00  0.00    -0.265 OA
ATOM      8  N   UNL     1      34.272 -17.282 -22.476  0.00  0.00    -0.304 N 
ATOM      9  N   UNL     1      33.734 -15.048 -24.211  0.00  0.00    -0.269 N 
ATOM     10  C   UNL     1      34.085 -17.479 -23.917  0.00  0.00    +0.112 C 
ATOM     11  C   UNL     1      34.179 -15.920 -21.940  0.00  0.00    +0.112 C 
ATOM     12  C   UNL     1      33.209 -16.375 -24.505  0.00  0.00    +0.115 C 
ATOM     13  C   UNL     1      34.540 -14.891 -23.009  0.00  0.00    +0.115 C 
ATOM     14  C   UNL     1      33.467 -13.972 -25.041  0.00  0.00    +0.303 C 
ENDBRANCH   1   8
BRANCH   2  15
ATOM     15  C   UNL     1      35.333 -21.687 -19.060  0.00  0.00    +0.040 C 
BRANCH  15  18
ATOM     16  O   UNL     1      32.410 -22.144 -18.319  0.00  0.00    -0.274 OA
ATOM     17  N   UNL     1      33.498 -23.165 -16.504  0.00  0.00    -0.284 N 
ATOM     18  C   UNL     1      34.704 -21.507 -17.690  0.00  0.00    +0.105 C 
ATOM     19  C   UNL     1      35.513 -22.106 -16.575  0.00  0.00    -0.000 C 
ATOM     20  C   UNL     1      33.378 -22.285 -17.585  0.00  0.00    +0.230 C 
ATOM     21  C   UNL     1      34.750 -23.063 -15.909  0.00  0.00    +0.047 C 
ATOM     22  C   UNL     1      36.802 -21.828 -16.160  0.00  0.00    -0.003 C 
ATOM     23  C   UNL     1      35.228 -23.777 -14.829  0.00  0.00    +0.014 C 
ATOM     24  C   UNL     1      37.311 -22.537 -15.067  0.00  0.00    -0.000 C 
ATOM     25  C   UNL     1      36.530 -23.504 -14.407  0.00  0.00    +0.001 C 
ATOM     26  H   UNL     1      32.788 -23.776 -16.204  0.00  0.00    +0.155 HD
ENDBRANCH  15  18
ENDBRANCH   2  15
TORSDOF 3
ENDMDL
MODEL 4
REMARK VINA RESULT:     -10.7      7.302     13.371
REMARK  Name = 1633
REMARK  3 active torsions:
REMARK  status: ('A' for Active; 'I' for Inactive)
REMARK    1  A    between atoms: C_1  and  N_8
REMARK    2  A    between atoms: C_2  and  C_15
REMARK    3  A    between atoms: C_15  and  C_18
REMARK                            x       y       z     vdW  Elec       q    Type
REMARK                         _______ _______ _______ _____ _____    ______ ____
ROOT
ATOM      1  C   UNL     1      32.737 -12.726 -22.205  0.00  0.00    +0.048 C 
ATOM      2  C   UNL     1      31.375 -10.325 -22.479  0.00  0.00    -0.021 C 
ATOM      3  C   UNL     1      31.738 -12.382 -21.294  0.00  0.00    +0.014 C 
ATOM      4  C   UNL     1      33.052 -11.861 -23.253  0.00  0.00    +0.014 C 
ATOM      5  C   UNL     1      31.053 -11.176 -21.433  0.00  0.00    -0.003 C 
ATOM      6  C   UNL     1      32.367 -10.653 -23.391  0.00  0.00    -0.003 C 
ENDROOT
BRANCH   1   8
ATOM      7  O   UNL     1      35.579 -18.332 -20.650  0.00  0.00    -0.265 OA
ATOM      8  N   UNL     1      33.422 -13.932 -22.068  0.00  0.00    -0.304 N 
ATOM      9  N   UNL     1      34.839 -16.422 -21.784  0.00  0.00    -0.269 N 
ATOM     10  C   UNL     1      33.992 -14.328 -20.776  0.00  0.00    +0.112 C 
ATOM     11  C   UNL     1      33.591 -14.834 -23.211  0.00  0.00    +0.112 C 
ATOM     12  C   UNL     1      34.093 -15.849 -20.672  0.00  0.00    +0.115 C 
ATOM     13  C   UNL     1      34.843 -15.692 -23.043  0.00  0.00    +0.115 C 
ATOM     14  C   UNL     1      35.513 -17.625 -21.649  0.00  0.00    +0.303 C 
ENDBRANCH   1   8
BRANCH   2  15
ATOM     15  C   UNL     1      30.635  -9.021 -22.629  0.00  0.00    +0.040 C 
BRANCH  15  18
ATOM     16  O   UNL     1      30.620  -7.254 -25.115  0.00  0.00    -0.274 OA
ATOM     17  N   UNL     1      30.910  -5.648 -23.424  0.00  0.00    -0.284 N 
ATOM     18  C   UNL     1      31.574  -7.867 -22.929  0.00  0.00    +0.105 C 
ATOM     19  C   UNL     1      31.779  -6.941 -21.764  0.00  0.00    -0.000 C 
ATOM     20  C   UNL     1      30.972  -6.927 -23.991  0.00  0.00    +0.230 C 
ATOM     21  C   UNL     1      31.382  -5.654 -22.117  0.00  0.00    +0.047 C 
ATOM     22  C   UNL     1      32.288  -7.194 -20.503  0.00  0.00    -0.003 C 
ATOM     23  C   UNL     1      31.464  -4.583 -21.249  0.00  0.00    +0.014 C 
ATOM     24  C   UNL     1      32.382  -6.128 -19.603  0.00  0.00    -0.000 C 
ATOM     25  C   UNL     1      31.973  -4.833 -19.973  0.00  0.00    +0.001 C 
ATOM     26  H   UNL     1      30.575  -4.849 -23.892  0.00  0.00    +0.155 HD
ENDBRANCH  15  18
ENDBRANCH   2  15
TORSDOF 3
ENDMDL
MODEL 5
REMARK VINA RESULT:     -10.4      7.252     13.884
REMARK  Name = 1633
REMARK  3 active torsions:
REMARK  status: ('A' for Active; 'I' for Inactive)
REMARK    1  A    between atoms: C_1  and  N_8
REMARK    2  A    between atoms: C_2  and  C_15
REMARK    3  A    between atoms: C_15  and  C_18
REMARK                            x       y       z     vdW  Elec       q    Type
REMARK                         _______ _______ _______ _____ _____    ______ ____
ROOT
ATOM      1  C   UNL     1      32.313 -11.656 -22.207  0.00  0.00    +0.048 C 
ATOM      2  C   UNL     1      30.993  -9.231 -22.483  0.00  0.00    -0.021 C 
ATOM      3  C   UNL     1      31.355 -11.272 -21.268  0.00  0.00    +0.014 C 
ATOM      4  C   UNL     1      32.608 -10.819 -23.285  0.00  0.00    +0.014 C 
ATOM      5  C   UNL     1      30.692 -10.053 -21.407  0.00  0.00    -0.003 C 
ATOM      6  C   UNL     1      31.944  -9.600 -23.423  0.00  0.00    -0.003 C 
ENDROOT
BRANCH   1   8
ATOM      7  O   UNL     1      35.192 -17.232 -20.614  0.00  0.00    -0.265 OA
ATOM      8  N   UNL     1      32.976 -12.873 -22.070  0.00  0.00    -0.304 N 
ATOM      9  N   UNL     1      34.350 -15.388 -21.785  0.00  0.00    -0.269 N 
ATOM     10  C   UNL     1      33.716 -13.190 -20.843  0.00  0.00    +0.112 C 
ATOM     11  C   UNL     1      32.954 -13.867 -23.148  0.00  0.00    +0.112 C 
ATOM     12  C   UNL     1      33.788 -14.701 -20.630  0.00  0.00    +0.115 C 
ATOM     13  C   UNL     1      34.193 -14.758 -23.089  0.00  0.00    +0.115 C 
ATOM     14  C   UNL     1      35.003 -16.602 -21.649  0.00  0.00    +0.303 C 
ENDBRANCH   1   8
BRANCH   2  15
ATOM     15  C   UNL     1      30.275  -7.914 -22.633  0.00  0.00    +0.040 C 
BRANCH  15  18
ATOM     16  O   UNL     1      32.371  -7.403 -20.477  0.00  0.00    -0.274 OA
ATOM     17  N   UNL     1      33.590  -6.887 -22.418  0.00  0.00    -0.284 N 
ATOM     18  C   UNL     1      31.230  -6.736 -22.554  0.00  0.00    +0.105 C 
ATOM     19  C   UNL     1      31.894  -6.414 -23.862  0.00  0.00    -0.000 C 
ATOM     20  C   UNL     1      32.434  -7.061 -21.648  0.00  0.00    +0.230 C 
ATOM     21  C   UNL     1      33.276  -6.508 -23.718  0.00  0.00    +0.047 C 
ATOM     22  C   UNL     1      31.341  -6.048 -25.076  0.00  0.00    -0.003 C 
ATOM     23  C   UNL     1      34.153  -6.257 -24.754  0.00  0.00    +0.014 C 
ATOM     24  C   UNL     1      32.207  -5.788 -26.143  0.00  0.00    -0.000 C 
ATOM     25  C   UNL     1      33.601  -5.892 -25.983  0.00  0.00    +0.001 C 
ATOM     26  H   UNL     1      34.505  -7.016 -22.082  0.00  0.00    +0.155 HD
ENDBRANCH  15  18
ENDBRANCH   2  15
TORSDOF 3
ENDMDL
MODEL 6
REMARK VINA RESULT:     -10.3      1.948      9.011
REMARK  Name = 1633
REMARK  3 active torsions:
REMARK  status: ('A' for Active; 'I' for Inactive)
REMARK    1  A    between atoms: C_1  and  N_8
REMARK    2  A    between atoms: C_2  and  C_15
REMARK    3  A    between atoms: C_15  and  C_18
REMARK                            x       y       z     vdW  Elec       q    Type
REMARK                         _______ _______ _______ _____ _____    ______ ____
ROOT
ATOM      1  C   UNL     1      34.511 -20.565 -19.487  0.00  0.00    +0.048 C 
ATOM      2  C   UNL     1      33.944 -19.094 -21.769  0.00  0.00    -0.021 C 
ATOM      3  C   UNL     1      35.551 -20.037 -20.253  0.00  0.00    +0.014 C 
ATOM      4  C   UNL     1      33.186 -20.354 -19.869  0.00  0.00    +0.014 C 
ATOM      5  C   UNL     1      35.265 -19.297 -21.400  0.00  0.00    -0.003 C 
ATOM      6  C   UNL     1      32.901 -19.614 -21.017  0.00  0.00    -0.003 C 
ENDROOT
BRANCH   1   8
ATOM      7  O   UNL     1      35.060 -24.547 -14.411  0.00  0.00    -0.265 OA
ATOM      8  N   UNL     1      34.795 -21.304 -18.340  0.00  0.00    -0.304 N 
ATOM      9  N   UNL     1      35.380 -22.829 -15.969  0.00  0.00    -0.269 N 
ATOM     10  C   UNL     1      33.721 -21.955 -17.582  0.00  0.00    +0.112 C 
ATOM     11  C   UNL     1      36.174 -21.447 -17.860  0.00  0.00    +0.112 C 
ATOM     12  C   UNL     1      34.253 -23.171 -16.826  0.00  0.00    +0.115 C 
ATOM     13  C   UNL     1      36.200 -21.689 -16.352  0.00  0.00    +0.115 C 
ATOM     14  C   UNL     1      35.667 -23.569 -14.833  0.00  0.00    +0.303 C 
ENDBRANCH   1   8
BRANCH   2  15
ATOM     15  C   UNL     1      33.636 -18.294 -23.008  0.00  0.00    +0.040 C 
BRANCH  15  18
ATOM     16  O   UNL     1      34.389 -16.831 -25.576  0.00  0.00    -0.274 OA
ATOM     17  N   UNL     1      33.918 -15.023 -24.152  0.00  0.00    -0.284 N 
ATOM     18  C   UNL     1      34.527 -17.071 -23.130  0.00  0.00    +0.105 C 
ATOM     19  C   UNL     1      34.221 -16.003 -22.119  0.00  0.00    -0.000 C 
ATOM     20  C   UNL     1      34.281 -16.339 -24.463  0.00  0.00    +0.230 C 
ATOM     21  C   UNL     1      33.882 -14.823 -22.777  0.00  0.00    +0.047 C 
ATOM     22  C   UNL     1      34.255 -16.048 -20.737  0.00  0.00    -0.003 C 
ATOM     23  C   UNL     1      33.558 -13.661 -22.105  0.00  0.00    +0.014 C 
ATOM     24  C   UNL     1      33.932 -14.884 -20.032  0.00  0.00    -0.000 C 
ATOM     25  C   UNL     1      33.586 -13.701 -20.710  0.00  0.00    +0.001 C 
ATOM     26  H   UNL     1      33.716 -14.330 -24.820  0.00  0.00    +0.155 HD
ENDBRANCH  15  18
ENDBRANCH   2  15
TORSDOF 3
ENDMDL
MODEL 7
REMARK VINA RESULT:     -10.3      7.384     11.576
REMARK  Name = 1633
REMARK  3 active torsions:
REMARK  status: ('A' for Active; 'I' for Inactive)
REMARK    1  A    between atoms: C_1  and  N_8
REMARK    2  A    between atoms: C_2  and  C_15
REMARK    3  A    between atoms: C_15  and  C_18
REMARK                            x       y       z     vdW  Elec       q    Type
REMARK                         _______ _______ _______ _____ _____    ______ ____
ROOT
ATOM      1  C   UNL     1      31.603  -8.834 -22.440  0.00  0.00    +0.048 C 
ATOM      2  C   UNL     1      31.879 -11.592 -22.527  0.00  0.00    -0.021 C 
ATOM      3  C   UNL     1      30.811  -9.641 -21.623  0.00  0.00    +0.014 C 
ATOM      4  C   UNL     1      32.534  -9.414 -23.302  0.00  0.00    +0.014 C 
ATOM      5  C   UNL     1      30.950 -11.027 -21.667  0.00  0.00    -0.003 C 
ATOM      6  C   UNL     1      32.673 -10.802 -23.346  0.00  0.00    -0.003 C 
ENDROOT
BRANCH   1   8
ATOM      7  O   UNL     1      29.998  -2.563 -22.287  0.00  0.00    -0.265 OA
ATOM      8  N   UNL     1      31.465  -7.448 -22.397  0.00  0.00    -0.304 N 
ATOM      9  N   UNL     1      31.180  -4.584 -22.311  0.00  0.00    -0.269 N 
ATOM     10  C   UNL     1      30.350  -6.783 -23.081  0.00  0.00    +0.112 C 
ATOM     11  C   UNL     1      32.431  -6.619 -21.670  0.00  0.00    +0.112 C 
ATOM     12  C   UNL     1      30.016  -5.455 -22.406  0.00  0.00    +0.115 C 
ATOM     13  C   UNL     1      32.492  -5.212 -22.262  0.00  0.00    +0.115 C 
ATOM     14  C   UNL     1      31.042  -3.206 -22.261  0.00  0.00    +0.303 C 
ENDBRANCH   1   8
BRANCH   2  15
ATOM     15  C   UNL     1      32.030 -13.091 -22.574  0.00  0.00    +0.040 C 
BRANCH  15  18
ATOM     16  O   UNL     1      33.689 -12.849 -20.026  0.00  0.00    -0.274 OA
ATOM     17  N   UNL     1      34.255 -15.020 -20.725  0.00  0.00    -0.284 N 
ATOM     18  C   UNL     1      33.474 -13.522 -22.385  0.00  0.00    +0.105 C 
ATOM     19  C   UNL     1      33.773 -14.882 -22.946  0.00  0.00    -0.000 C 
ATOM     20  C   UNL     1      33.804 -13.705 -20.891  0.00  0.00    +0.230 C 
ATOM     21  C   UNL     1      34.237 -15.713 -21.930  0.00  0.00    +0.047 C 
ATOM     22  C   UNL     1      33.668 -15.354 -24.242  0.00  0.00    -0.003 C 
ATOM     23  C   UNL     1      34.602 -17.027 -22.148  0.00  0.00    +0.014 C 
ATOM     24  C   UNL     1      34.032 -16.682 -24.492  0.00  0.00    -0.000 C 
ATOM     25  C   UNL     1      34.495 -17.511 -23.453  0.00  0.00    +0.001 C 
ATOM     26  H   UNL     1      34.546 -15.403 -19.867  0.00  0.00    +0.155 HD
ENDBRANCH  15  18
ENDBRANCH   2  15
TORSDOF 3
ENDMDL
MODEL 8
REMARK VINA RESULT:     -10.1      5.624      9.354
REMARK  Name = 1633
REMARK  3 active torsions:
REMARK  status: ('A' for Active; 'I' for Inactive)
REMARK    1  A    between atoms: C_1  and  N_8
REMARK    2  A    between atoms: C_2  and  C_15
REMARK    3  A    between atoms: C_15  and  C_18
REMARK                            x       y       z     vdW  Elec       q    Type
REMARK                         _______ _______ _______ _____ _____    ______ ____
ROOT
ATOM      1  C   UNL     1      32.762 -11.643 -23.114  0.00  0.00    +0.048 C 
ATOM      2  C   UNL     1      33.695 -14.148 -23.855  0.00  0.00    -0.021 C 
ATOM      3  C   UNL     1      32.618 -12.080 -24.431  0.00  0.00    +0.014 C 
ATOM      4  C   UNL     1      33.376 -12.466 -22.169  0.00  0.00    +0.014 C 
ATOM      5  C   UNL     1      33.087 -13.340 -24.803  0.00  0.00    -0.003 C 
ATOM      6  C   UNL     1      33.846 -13.726 -22.542  0.00  0.00    -0.003 C 
ENDROOT
BRANCH   1   8
ATOM      7  O   UNL     1      30.877  -5.507 -22.268  0.00  0.00    -0.265 OA
ATOM      8  N   UNL     1      32.294 -10.385 -22.741  0.00  0.00    -0.304 N 
ATOM      9  N   UNL     1      31.329  -7.784 -21.968  0.00  0.00    -0.269 N 
ATOM     10  C   UNL     1      32.929  -9.166 -23.253  0.00  0.00    +0.112 C 
ATOM     11  C   UNL     1      31.157 -10.248 -21.825  0.00  0.00    +0.112 C 
ATOM     12  C   UNL     1      31.935  -8.006 -23.274  0.00  0.00    +0.115 C 
ATOM     13  C   UNL     1      31.229  -8.923 -21.067  0.00  0.00    +0.115 C 
ATOM     14  C   UNL     1      30.857  -6.535 -21.601  0.00  0.00    +0.303 C 
ENDBRANCH   1   8
BRANCH   2  15
ATOM     15  C   UNL     1      34.201 -15.510 -24.257  0.00  0.00    +0.040 C 
BRANCH  15  18
ATOM     16  O   UNL     1      32.285 -17.552 -25.467  0.00  0.00    -0.274 OA
ATOM     17  N   UNL     1      33.581 -18.925 -24.070  0.00  0.00    -0.284 N 
ATOM     18  C   UNL     1      33.477 -16.624 -23.522  0.00  0.00    +0.105 C 
ATOM     19  C   UNL     1      34.357 -17.391 -22.578  0.00  0.00    -0.000 C 
ATOM     20  C   UNL     1      33.014 -17.721 -24.501  0.00  0.00    +0.230 C 
ATOM     21  C   UNL     1      34.371 -18.735 -22.942  0.00  0.00    +0.047 C 
ATOM     22  C   UNL     1      35.074 -16.957 -21.477  0.00  0.00    -0.003 C 
ATOM     23  C   UNL     1      35.089 -19.688 -22.248  0.00  0.00    +0.014 C 
ATOM     24  C   UNL     1      35.811 -17.903 -20.756  0.00  0.00    -0.000 C 
ATOM     25  C   UNL     1      35.818 -19.257 -21.139  0.00  0.00    +0.001 C 
ATOM     26  H   UNL     1      33.439 -19.794 -24.509  0.00  0.00    +0.155 HD
ENDBRANCH  15  18
ENDBRANCH   2  15
TORSDOF 3
ENDMDL
MODEL 9
REMARK VINA RESULT:      -9.9      2.136      9.316
REMARK  Name = 1633
REMARK  3 active torsions:
REMARK  status: ('A' for Active; 'I' for Inactive)
REMARK    1  A    between atoms: C_1  and  N_8
REMARK    2  A    between atoms: C_2  and  C_15
REMARK    3  A    between atoms: C_15  and  C_18
REMARK                            x       y       z     vdW  Elec       q    Type
REMARK                         _______ _______ _______ _____ _____    ______ ____
ROOT
ATOM      1  C   UNL     1      34.816 -21.881 -17.438  0.00  0.00    +0.048 C 
ATOM      2  C   UNL     1      34.903 -20.771 -19.979  0.00  0.00    -0.021 C 
ATOM      3  C   UNL     1      36.032 -21.449 -17.970  0.00  0.00    +0.014 C 
ATOM      4  C   UNL     1      33.644 -21.755 -18.185  0.00  0.00    +0.014 C 
ATOM      5  C   UNL     1      36.075 -20.891 -19.248  0.00  0.00    -0.003 C 
ATOM      6  C   UNL     1      33.688 -21.197 -19.463  0.00  0.00    -0.003 C 
ENDROOT
BRANCH   1   8
ATOM      7  O   UNL     1      35.398 -23.922 -11.321  0.00  0.00    -0.265 OA
ATOM      8  N   UNL     1      34.772 -22.438 -16.162  0.00  0.00    -0.304 N 
ATOM      9  N   UNL     1      34.681 -23.592 -13.525  0.00  0.00    -0.269 N 
ATOM     10  C   UNL     1      36.004 -22.658 -15.396  0.00  0.00    +0.112 C 
ATOM     11  C   UNL     1      33.494 -22.821 -15.554  0.00  0.00    +0.112 C 
ATOM     12  C   UNL     1      35.718 -22.638 -13.896  0.00  0.00    +0.115 C 
ATOM     13  C   UNL     1      33.693 -23.942 -14.535  0.00  0.00    +0.115 C 
ATOM     14  C   UNL     1      34.633 -24.140 -12.254  0.00  0.00    +0.303 C 
ENDBRANCH   1   8
BRANCH   2  15
ATOM     15  C   UNL     1      34.950 -20.167 -21.359  0.00  0.00    +0.040 C 
BRANCH  15  18
ATOM     16  O   UNL     1      36.077 -17.642 -20.073  0.00  0.00    -0.274 OA
ATOM     17  N   UNL     1      35.413 -16.819 -22.171  0.00  0.00    -0.284 N 
ATOM     18  C   UNL     1      34.336 -18.779 -21.392  0.00  0.00    +0.105 C 
ATOM     19  C   UNL     1      33.851 -18.369 -22.753  0.00  0.00    -0.000 C 
ATOM     20  C   UNL     1      35.394 -17.701 -21.084  0.00  0.00    +0.230 C 
ATOM     21  C   UNL     1      34.509 -17.209 -23.152  0.00  0.00    +0.047 C 
ATOM     22  C   UNL     1      32.898 -18.949 -23.570  0.00  0.00    -0.003 C 
ATOM     23  C   UNL     1      34.262 -16.590 -24.361  0.00  0.00    +0.014 C 
ATOM     24  C   UNL     1      32.627 -18.342 -24.801  0.00  0.00    -0.000 C 
ATOM     25  C   UNL     1      33.304 -17.172 -25.193  0.00  0.00    +0.001 C 
ATOM     26  H   UNL     1      35.992 -16.025 -22.232  0.00  0.00    +0.155 HD
ENDBRANCH  15  18
ENDBRANCH   2  15
TORSDOF 3
ENDMDL
