MODEL 1
REMARK VINA RESULT:     -11.1      0.000      0.000
REMARK  Name = 24180717
REMARK  5 active torsions:
REMARK  status: ('A' for Active; 'I' for Inactive)
REMARK    1  A    between atoms: C_14  and  C_18
REMARK    2  A    between atoms: C_15  and  C_30
REMARK    3  A    between atoms: C_21  and  C_22
REMARK    4  A    between atoms: C_23  and  C_24
REMARK    5  A    between atoms: C_30  and  N_31
REMARK                            x       y       z     vdW  Elec       q    Type
REMARK                         _______ _______ _______ _____ _____    ______ ____
ROOT
ATOM      1  O   UNL     1      36.997 -19.052 -20.535  0.00  0.00    -0.475 OA
ATOM      2  O   UNL     1      32.242 -16.942 -25.406  0.00  0.00    -0.267 OA
ATOM      3  N   UNL     1      34.037 -16.874 -23.943  0.00  0.00    -0.274 N 
ATOM      4  C   UNL     1      34.975 -18.679 -21.849  0.00  0.00    +0.065 C 
ATOM      5  C   UNL     1      34.450 -17.260 -21.533  0.00  0.00    +0.029 C 
ATOM      6  C   UNL     1      34.363 -19.186 -23.165  0.00  0.00    +0.029 C 
ATOM      7  C   UNL     1      36.523 -18.735 -21.866  0.00  0.00    +0.209 C 
ATOM      8  C   UNL     1      34.755 -19.587 -20.681  0.00  0.00    +0.014 C 
ATOM      9  C   UNL     1      34.598 -16.295 -22.714  0.00  0.00    +0.094 C 
ATOM     10  C   UNL     1      34.571 -18.189 -24.302  0.00  0.00    +0.094 C 
ATOM     11  C   UNL     1      35.943 -19.728 -19.975  0.00  0.00    +0.135 C 
ATOM     12  C   UNL     1      33.598 -20.203 -20.232  0.00  0.00    -0.008 C 
ATOM     13  C   UNL     1      36.024 -20.465 -18.808  0.00  0.00    +0.036 C 
ATOM     14  C   UNL     1      33.047 -16.280 -24.749  0.00  0.00    +0.284 C 
ATOM     15  C   UNL     1      33.659 -20.965 -19.063  0.00  0.00    -0.044 C 
ATOM     16  C   UNL     1      34.865 -21.093 -18.355  0.00  0.00    -0.003 C 
ENDROOT
BRANCH  14  18
ATOM     17  O   UNL     1      32.643 -14.170 -23.645  0.00  0.00    -0.441 OA
ATOM     18  C   UNL     1      32.995 -14.822 -24.784  0.00  0.00    +0.199 C 
ATOM     19  C   UNL     1      33.245 -13.925 -25.796  0.00  0.00    +0.046 C 
ATOM     20  C   UNL     1      33.034 -12.639 -25.243  0.00  0.00    +0.049 C 
ATOM     21  C   UNL     1      32.669 -12.842 -23.934  0.00  0.00    +0.187 C 
BRANCH  21  22
ATOM     22  C   UNL     1      32.336 -11.946 -22.893  0.00  0.00    -0.023 C 
ATOM     23  C   UNL     1      32.052 -11.184 -22.008  0.00  0.00    -0.057 C 
BRANCH  23  24
ATOM     24  C   UNL     1      31.714 -10.276 -20.956  0.00  0.00    +0.042 C 
ATOM     25  C   UNL     1      31.588 -10.742 -19.647  0.00  0.00    +0.008 C 
ATOM     26  C   UNL     1      31.513  -8.925 -21.237  0.00  0.00    +0.008 C 
ATOM     27  C   UNL     1      31.259  -9.858 -18.620  0.00  0.00    +0.001 C 
ATOM     28  C   UNL     1      31.184  -8.040 -20.211  0.00  0.00    +0.001 C 
ATOM     29  C   UNL     1      31.057  -8.506 -18.903  0.00  0.00    +0.000 C 
ENDBRANCH  23  24
ENDBRANCH  21  22
ENDBRANCH  14  18
BRANCH  15  30
ATOM     30  C   UNL     1      32.430 -21.642 -18.556  0.00  0.00    -0.059 C 
BRANCH  30  31
ATOM     31  N   UNL     1      32.739 -22.777 -17.684  0.00  0.00    +0.383 N 
ATOM     32  H   UNL     1      31.870 -23.209 -17.368  0.00  0.00    -0.089 HD
ATOM     33  H   UNL     1      33.269 -22.450 -16.877  0.00  0.00    -0.089 HD
ATOM     34  H   UNL     1      33.291 -23.462 -18.200  0.00  0.00    -0.089 HD
ENDBRANCH  30  31
ENDBRANCH  15  30
TORSDOF 5
ENDMDL
MODEL 2
REMARK VINA RESULT:     -10.4      3.795     10.837
REMARK  Name = 24180717
REMARK  5 active torsions:
REMARK  status: ('A' for Active; 'I' for Inactive)
REMARK    1  A    between atoms: C_14  and  C_18
REMARK    2  A    between atoms: C_15  and  C_30
REMARK    3  A    between atoms: C_21  and  C_22
REMARK    4  A    between atoms: C_23  and  C_24
REMARK    5  A    between atoms: C_30  and  N_31
REMARK                            x       y       z     vdW  Elec       q    Type
REMARK                         _______ _______ _______ _____ _____    ______ ____
ROOT
ATOM      1  O   UNL     1      33.529 -17.700 -24.831  0.00  0.00    -0.475 OA
ATOM      2  O   UNL     1      36.971 -19.429 -18.836  0.00  0.00    -0.267 OA
ATOM      3  N   UNL     1      35.511 -19.577 -20.628  0.00  0.00    -0.274 N 
ATOM      4  C   UNL     1      34.650 -17.671 -22.665  0.00  0.00    +0.065 C 
ATOM      5  C   UNL     1      33.675 -18.238 -21.610  0.00  0.00    +0.029 C 
ATOM      6  C   UNL     1      36.091 -17.713 -22.127  0.00  0.00    +0.029 C 
ATOM      7  C   UNL     1      34.516 -18.392 -24.029  0.00  0.00    +0.209 C 
ATOM      8  C   UNL     1      34.203 -16.315 -23.111  0.00  0.00    +0.014 C 
ATOM      9  C   UNL     1      34.110 -19.605 -21.072  0.00  0.00    +0.094 C 
ATOM     10  C   UNL     1      36.465 -19.109 -21.635  0.00  0.00    +0.094 C 
ATOM     11  C   UNL     1      33.556 -16.421 -24.336  0.00  0.00    +0.135 C 
ATOM     12  C   UNL     1      34.303 -15.087 -22.478  0.00  0.00    -0.008 C 
ATOM     13  C   UNL     1      32.982 -15.332 -24.963  0.00  0.00    +0.036 C 
ATOM     14  C   UNL     1      35.970 -19.935 -19.346  0.00  0.00    +0.284 C 
ATOM     15  C   UNL     1      33.741 -13.968 -23.100  0.00  0.00    -0.044 C 
ATOM     16  C   UNL     1      33.084 -14.091 -24.334  0.00  0.00    -0.003 C 
ENDROOT
BRANCH  14  18
ATOM     17  O   UNL     1      35.685 -21.355 -17.414  0.00  0.00    -0.441 OA
ATOM     18  C   UNL     1      35.209 -20.945 -18.618  0.00  0.00    +0.199 C 
ATOM     19  C   UNL     1      34.041 -21.603 -18.924  0.00  0.00    +0.046 C 
ATOM     20  C   UNL     1      33.782 -22.472 -17.838  0.00  0.00    +0.049 C 
ATOM     21  C   UNL     1      34.810 -22.284 -16.945  0.00  0.00    +0.187 C 
BRANCH  21  22
ATOM     22  C   UNL     1      35.093 -22.865 -15.689  0.00  0.00    -0.023 C 
ATOM     23  C   UNL     1      35.333 -23.358 -14.620  0.00  0.00    -0.057 C 
BRANCH  23  24
ATOM     24  C   UNL     1      35.619 -23.945 -13.347  0.00  0.00    +0.042 C 
ATOM     25  C   UNL     1      36.533 -24.994 -13.253  0.00  0.00    +0.008 C 
ATOM     26  C   UNL     1      34.986 -23.467 -12.200  0.00  0.00    +0.008 C 
ATOM     27  C   UNL     1      36.813 -25.567 -12.012  0.00  0.00    +0.001 C 
ATOM     28  C   UNL     1      35.266 -24.038 -10.959  0.00  0.00    +0.001 C 
ATOM     29  C   UNL     1      36.179 -25.088 -10.865  0.00  0.00    +0.000 C 
ENDBRANCH  23  24
ENDBRANCH  21  22
ENDBRANCH  14  18
BRANCH  15  30
ATOM     30  C   UNL     1      33.834 -12.632 -22.442  0.00  0.00    -0.059 C 
BRANCH  30  31
ATOM     31  N   UNL     1      33.483 -11.539 -23.351  0.00  0.00    +0.383 N 
ATOM     32  H   UNL     1      33.752 -11.789 -24.304  0.00  0.00    -0.089 HD
ATOM     33  H   UNL     1      33.977 -10.692 -23.071  0.00  0.00    -0.089 HD
ATOM     34  H   UNL     1      32.477 -11.376 -23.314  0.00  0.00    -0.089 HD
ENDBRANCH  30  31
ENDBRANCH  15  30
TORSDOF 5
ENDMDL
MODEL 3
REMARK VINA RESULT:     -10.2      4.573      7.738
REMARK  Name = 24180717
REMARK  5 active torsions:
REMARK  status: ('A' for Active; 'I' for Inactive)
REMARK    1  A    between atoms: C_14  and  C_18
REMARK    2  A    between atoms: C_15  and  C_30
REMARK    3  A    between atoms: C_21  and  C_22
REMARK    4  A    between atoms: C_23  and  C_24
REMARK    5  A    between atoms: C_30  and  N_31
REMARK                            x       y       z     vdW  Elec       q    Type
REMARK                         _______ _______ _______ _____ _____    ______ ____
ROOT
ATOM      1  O   UNL     1      32.916 -13.684 -25.258  0.00  0.00    -0.475 OA
ATOM      2  O   UNL     1      30.882  -9.539 -19.830  0.00  0.00    -0.267 OA
ATOM      3  N   UNL     1      31.667 -10.162 -21.918  0.00  0.00    -0.274 N 
ATOM      4  C   UNL     1      32.503 -12.717 -23.056  0.00  0.00    +0.065 C 
ATOM      5  C   UNL     1      33.493 -11.550 -22.849  0.00  0.00    +0.029 C 
ATOM      6  C   UNL     1      31.331 -12.595 -22.068  0.00  0.00    +0.029 C 
ATOM      7  C   UNL     1      32.018 -12.815 -24.524  0.00  0.00    +0.209 C 
ATOM      8  C   UNL     1      33.222 -14.027 -22.995  0.00  0.00    +0.014 C 
ATOM      9  C   UNL     1      32.806 -10.180 -22.847  0.00  0.00    +0.094 C 
ATOM     10  C   UNL     1      30.677 -11.218 -22.139  0.00  0.00    +0.094 C 
ATOM     11  C   UNL     1      33.439 -14.496 -24.284  0.00  0.00    +0.135 C 
ATOM     12  C   UNL     1      33.701 -14.734 -21.904  0.00  0.00    -0.008 C 
ATOM     13  C   UNL     1      34.138 -15.661 -24.537  0.00  0.00    +0.036 C 
ATOM     14  C   UNL     1      31.486  -9.247 -20.863  0.00  0.00    +0.284 C 
ATOM     15  C   UNL     1      34.399 -15.923 -22.135  0.00  0.00    -0.044 C 
ATOM     16  C   UNL     1      34.618 -16.381 -23.443  0.00  0.00    -0.003 C 
ENDROOT
BRANCH  14  18
ATOM     17  O   UNL     1      32.445  -7.537 -22.273  0.00  0.00    -0.441 OA
ATOM     18  C   UNL     1      32.050  -7.912 -21.028  0.00  0.00    +0.199 C 
ATOM     19  C   UNL     1      32.275  -6.899 -20.126  0.00  0.00    +0.046 C 
ATOM     20  C   UNL     1      32.845  -5.833 -20.863  0.00  0.00    +0.049 C 
ATOM     21  C   UNL     1      32.928  -6.271 -22.163  0.00  0.00    +0.187 C 
BRANCH  21  22
ATOM     22  C   UNL     1      33.405  -5.655 -23.342  0.00  0.00    -0.023 C 
ATOM     23  C   UNL     1      33.810  -5.132 -24.344  0.00  0.00    -0.057 C 
BRANCH  23  24
ATOM     24  C   UNL     1      34.294  -4.510 -25.538  0.00  0.00    +0.042 C 
ATOM     25  C   UNL     1      35.169  -5.199 -26.378  0.00  0.00    +0.008 C 
ATOM     26  C   UNL     1      33.890  -3.215 -25.864  0.00  0.00    +0.008 C 
ATOM     27  C   UNL     1      35.641  -4.594 -27.543  0.00  0.00    +0.001 C 
ATOM     28  C   UNL     1      34.361  -2.609 -27.028  0.00  0.00    +0.001 C 
ATOM     29  C   UNL     1      35.237  -3.299 -27.868  0.00  0.00    +0.000 C 
ENDBRANCH  23  24
ENDBRANCH  21  22
ENDBRANCH  14  18
BRANCH  15  30
ATOM     30  C   UNL     1      34.925 -16.707 -20.979  0.00  0.00    -0.059 C 
BRANCH  30  31
ATOM     31  N   UNL     1      34.537 -18.117 -21.041  0.00  0.00    +0.383 N 
ATOM     32  H   UNL     1      34.956 -18.620 -20.258  0.00  0.00    -0.089 HD
ATOM     33  H   UNL     1      34.863 -18.521 -21.918  0.00  0.00    -0.089 HD
ATOM     34  H   UNL     1      33.521 -18.193 -20.989  0.00  0.00    -0.089 HD
ENDBRANCH  30  31
ENDBRANCH  15  30
TORSDOF 5
ENDMDL
MODEL 4
REMARK VINA RESULT:      -9.8      3.174      9.952
REMARK  Name = 24180717
REMARK  5 active torsions:
REMARK  status: ('A' for Active; 'I' for Inactive)
REMARK    1  A    between atoms: C_14  and  C_18
REMARK    2  A    between atoms: C_15  and  C_30
REMARK    3  A    between atoms: C_21  and  C_22
REMARK    4  A    between atoms: C_23  and  C_24
REMARK    5  A    between atoms: C_30  and  N_31
REMARK                            x       y       z     vdW  Elec       q    Type
REMARK                         _______ _______ _______ _____ _____    ______ ____
ROOT
ATOM      1  O   UNL     1      33.791 -16.596 -24.907  0.00  0.00    -0.475 OA
ATOM      2  O   UNL     1      36.379 -19.741 -19.060  0.00  0.00    -0.267 OA
ATOM      3  N   UNL     1      35.231 -19.455 -21.051  0.00  0.00    -0.274 N 
ATOM      4  C   UNL     1      34.555 -17.106 -22.648  0.00  0.00    +0.065 C 
ATOM      5  C   UNL     1      33.474 -17.964 -21.955  0.00  0.00    +0.029 C 
ATOM      6  C   UNL     1      35.894 -17.243 -21.902  0.00  0.00    +0.029 C 
ATOM      7  C   UNL     1      34.690 -17.444 -24.153  0.00  0.00    +0.209 C 
ATOM      8  C   UNL     1      34.081 -15.696 -22.801  0.00  0.00    +0.014 C 
ATOM      9  C   UNL     1      33.922 -19.410 -21.719  0.00  0.00    +0.094 C 
ATOM     10  C   UNL     1      36.292 -18.706 -21.727  0.00  0.00    +0.094 C 
ATOM     11  C   UNL     1      33.643 -15.494 -24.104  0.00  0.00    +0.135 C 
ATOM     12  C   UNL     1      33.988 -14.677 -21.867  0.00  0.00    -0.008 C 
ATOM     13  C   UNL     1      33.092 -14.297 -24.520  0.00  0.00    +0.036 C 
ATOM     14  C   UNL     1      35.511 -20.126 -19.845  0.00  0.00    +0.284 C 
ATOM     15  C   UNL     1      33.447 -13.452 -22.268  0.00  0.00    -0.044 C 
ATOM     16  C   UNL     1      33.000 -13.265 -23.585  0.00  0.00    -0.003 C 
ENDROOT
BRANCH  14  18
ATOM     17  O   UNL     1      34.068 -21.358 -18.352  0.00  0.00    -0.441 OA
ATOM     18  C   UNL     1      34.725 -21.317 -19.540  0.00  0.00    +0.199 C 
ATOM     19  C   UNL     1      34.503 -22.470 -20.255  0.00  0.00    +0.046 C 
ATOM     20  C   UNL     1      33.655 -23.273 -19.455  0.00  0.00    +0.049 C 
ATOM     21  C   UNL     1      33.419 -22.552 -18.308  0.00  0.00    +0.187 C 
BRANCH  21  22
ATOM     22  C   UNL     1      32.654 -22.832 -17.154  0.00  0.00    -0.023 C 
ATOM     23  C   UNL     1      32.005 -23.070 -16.172  0.00  0.00    -0.057 C 
BRANCH  23  24
ATOM     24  C   UNL     1      31.232 -23.354 -15.002  0.00  0.00    +0.042 C 
ATOM     25  C   UNL     1      30.137 -24.214 -15.082  0.00  0.00    +0.008 C 
ATOM     26  C   UNL     1      31.574 -22.772 -13.781  0.00  0.00    +0.008 C 
ATOM     27  C   UNL     1      29.383 -24.491 -13.941  0.00  0.00    +0.001 C 
ATOM     28  C   UNL     1      30.821 -23.050 -12.640  0.00  0.00    +0.001 C 
ATOM     29  C   UNL     1      29.725 -23.909 -12.721  0.00  0.00    +0.000 C 
ENDBRANCH  23  24
ENDBRANCH  21  22
ENDBRANCH  14  18
BRANCH  15  30
ATOM     30  C   UNL     1      33.334 -12.336 -21.284  0.00  0.00    -0.059 C 
BRANCH  30  31
ATOM     31  N   UNL     1      32.014 -12.280 -20.654  0.00  0.00    +0.383 N 
ATOM     32  H   UNL     1      31.295 -12.470 -21.354  0.00  0.00    -0.089 HD
ATOM     33  H   UNL     1      31.865 -11.353 -20.258  0.00  0.00    -0.089 HD
ATOM     34  H   UNL     1      31.960 -12.980 -19.914  0.00  0.00    -0.089 HD
ENDBRANCH  30  31
ENDBRANCH  15  30
TORSDOF 5
ENDMDL
MODEL 5
REMARK VINA RESULT:      -9.4      2.899      3.778
REMARK  Name = 24180717
REMARK  5 active torsions:
REMARK  status: ('A' for Active; 'I' for Inactive)
REMARK    1  A    between atoms: C_14  and  C_18
REMARK    2  A    between atoms: C_15  and  C_30
REMARK    3  A    between atoms: C_21  and  C_22
REMARK    4  A    between atoms: C_23  and  C_24
REMARK    5  A    between atoms: C_30  and  N_31
REMARK                            x       y       z     vdW  Elec       q    Type
REMARK                         _______ _______ _______ _____ _____    ______ ____
ROOT
ATOM      1  O   UNL     1      36.818 -18.073 -20.618  0.00  0.00    -0.475 OA
ATOM      2  O   UNL     1      32.046 -14.281 -24.309  0.00  0.00    -0.267 OA
ATOM      3  N   UNL     1      33.805 -14.771 -22.884  0.00  0.00    -0.274 N 
ATOM      4  C   UNL     1      34.804 -17.259 -21.728  0.00  0.00    +0.065 C 
ATOM      5  C   UNL     1      34.193 -16.139 -20.858  0.00  0.00    +0.029 C 
ATOM      6  C   UNL     1      34.247 -17.176 -23.160  0.00  0.00    +0.029 C 
ATOM      7  C   UNL     1      36.353 -17.235 -21.704  0.00  0.00    +0.209 C 
ATOM      8  C   UNL     1      34.614 -18.590 -21.073  0.00  0.00    +0.014 C 
ATOM      9  C   UNL     1      34.308 -14.754 -21.503  0.00  0.00    +0.094 C 
ATOM     10  C   UNL     1      34.420 -15.779 -23.749  0.00  0.00    +0.094 C 
ATOM     11  C   UNL     1      35.794 -18.969 -20.446  0.00  0.00    +0.135 C 
ATOM     12  C   UNL     1      33.486 -19.389 -20.981  0.00  0.00    -0.008 C 
ATOM     13  C   UNL     1      35.895 -20.132 -19.706  0.00  0.00    +0.036 C 
ATOM     14  C   UNL     1      32.798 -13.931 -23.398  0.00  0.00    +0.284 C 
ATOM     15  C   UNL     1      33.568 -20.576 -20.250  0.00  0.00    -0.044 C 
ATOM     16  C   UNL     1      34.765 -20.944 -19.615  0.00  0.00    -0.003 C 
ENDROOT
BRANCH  14  18
ATOM     17  O   UNL     1      33.072 -11.536 -23.541  0.00  0.00    -0.441 OA
ATOM     18  C   UNL     1      32.664 -12.604 -22.807  0.00  0.00    +0.199 C 
ATOM     19  C   UNL     1      32.180 -12.194 -21.587  0.00  0.00    +0.046 C 
ATOM     20  C   UNL     1      32.298 -10.784 -21.570  0.00  0.00    +0.049 C 
ATOM     21  C   UNL     1      32.845 -10.432 -22.781  0.00  0.00    +0.187 C 
BRANCH  21  22
ATOM     22  C   UNL     1      33.192  -9.181 -23.336  0.00  0.00    -0.023 C 
ATOM     23  C   UNL     1      33.488  -8.116 -23.808  0.00  0.00    -0.057 C 
BRANCH  23  24
ATOM     24  C   UNL     1      33.838  -6.848 -24.370  0.00  0.00    +0.042 C 
ATOM     25  C   UNL     1      33.405  -5.671 -23.758  0.00  0.00    +0.008 C 
ATOM     26  C   UNL     1      34.614  -6.787 -25.528  0.00  0.00    +0.008 C 
ATOM     27  C   UNL     1      33.746  -4.434 -24.305  0.00  0.00    +0.001 C 
ATOM     28  C   UNL     1      34.956  -5.551 -26.075  0.00  0.00    +0.001 C 
ATOM     29  C   UNL     1      34.522  -4.374 -25.463  0.00  0.00    +0.000 C 
ENDBRANCH  23  24
ENDBRANCH  21  22
ENDBRANCH  14  18
BRANCH  15  30
ATOM     30  C   UNL     1      32.370 -21.458 -20.135  0.00  0.00    -0.059 C 
BRANCH  30  31
ATOM     31  N   UNL     1      31.970 -21.675 -18.743  0.00  0.00    +0.383 N 
ATOM     32  H   UNL     1      31.990 -20.787 -18.241  0.00  0.00    -0.089 HD
ATOM     33  H   UNL     1      32.617 -22.329 -18.302  0.00  0.00    -0.089 HD
ATOM     34  H   UNL     1      31.026 -22.060 -18.716  0.00  0.00    -0.089 HD
ENDBRANCH  30  31
ENDBRANCH  15  30
TORSDOF 5
ENDMDL
MODEL 6
REMARK VINA RESULT:      -9.2      3.296      9.700
REMARK  Name = 24180717
REMARK  5 active torsions:
REMARK  status: ('A' for Active; 'I' for Inactive)
REMARK    1  A    between atoms: C_14  and  C_18
REMARK    2  A    between atoms: C_15  and  C_30
REMARK    3  A    between atoms: C_21  and  C_22
REMARK    4  A    between atoms: C_23  and  C_24
REMARK    5  A    between atoms: C_30  and  N_31
REMARK                            x       y       z     vdW  Elec       q    Type
REMARK                         _______ _______ _______ _____ _____    ______ ____
ROOT
ATOM      1  O   UNL     1      33.963 -18.817 -23.968  0.00  0.00    -0.475 OA
ATOM      2  O   UNL     1      36.663 -20.298 -17.542  0.00  0.00    -0.267 OA
ATOM      3  N   UNL     1      35.409 -20.509 -19.478  0.00  0.00    -0.274 N 
ATOM      4  C   UNL     1      34.835 -18.697 -21.694  0.00  0.00    +0.065 C 
ATOM      5  C   UNL     1      33.733 -19.184 -20.728  0.00  0.00    +0.029 C 
ATOM      6  C   UNL     1      36.205 -18.743 -20.995  0.00  0.00    +0.029 C 
ATOM      7  C   UNL     1      34.834 -19.488 -23.025  0.00  0.00    +0.209 C 
ATOM      8  C   UNL     1      34.480 -17.357 -22.256  0.00  0.00    +0.014 C 
ATOM      9  C   UNL     1      34.066 -20.530 -20.075  0.00  0.00    +0.094 C 
ATOM     10  C   UNL     1      36.482 -20.118 -20.393  0.00  0.00    +0.094 C 
ATOM     11  C   UNL     1      33.971 -17.515 -23.539  0.00  0.00    +0.135 C 
ATOM     12  C   UNL     1      34.543 -16.099 -21.679  0.00  0.00    -0.008 C 
ATOM     13  C   UNL     1      33.501 -16.448 -24.282  0.00  0.00    +0.036 C 
ATOM     14  C   UNL     1      35.712 -20.808 -18.136  0.00  0.00    +0.284 C 
ATOM     15  C   UNL     1      34.086 -15.004 -22.417  0.00  0.00    -0.044 C 
ATOM     16  C   UNL     1      33.568 -15.178 -23.709  0.00  0.00    -0.003 C 
ENDROOT
BRANCH  14  18
ATOM     17  O   UNL     1      33.520 -21.474 -17.371  0.00  0.00    -0.441 OA
ATOM     18  C   UNL     1      34.846 -21.760 -17.448  0.00  0.00    +0.199 C 
ATOM     19  C   UNL     1      35.117 -22.956 -16.826  0.00  0.00    +0.046 C 
ATOM     20  C   UNL     1      33.879 -23.436 -16.336  0.00  0.00    +0.049 C 
ATOM     21  C   UNL     1      32.939 -22.499 -16.693  0.00  0.00    +0.187 C 
BRANCH  21  22
ATOM     22  C   UNL     1      31.544 -22.429 -16.484  0.00  0.00    -0.023 C 
ATOM     23  C   UNL     1      30.357 -22.369 -16.305  0.00  0.00    -0.057 C 
BRANCH  23  24
ATOM     24  C   UNL     1      28.944 -22.299 -16.091  0.00  0.00    +0.042 C 
ATOM     25  C   UNL     1      28.446 -21.877 -14.859  0.00  0.00    +0.008 C 
ATOM     26  C   UNL     1      28.065 -22.651 -17.116  0.00  0.00    +0.008 C 
ATOM     27  C   UNL     1      27.069 -21.808 -14.650  0.00  0.00    +0.001 C 
ATOM     28  C   UNL     1      26.688 -22.582 -16.908  0.00  0.00    +0.001 C 
ATOM     29  C   UNL     1      26.190 -22.160 -15.675  0.00  0.00    +0.000 C 
ENDBRANCH  23  24
ENDBRANCH  21  22
ENDBRANCH  14  18
BRANCH  15  30
ATOM     30  C   UNL     1      34.144 -13.637 -21.822  0.00  0.00    -0.059 C 
BRANCH  30  31
ATOM     31  N   UNL     1      33.870 -12.589 -22.808  0.00  0.00    +0.383 N 
ATOM     32  H   UNL     1      34.147 -11.684 -22.428  0.00  0.00    -0.089 HD
ATOM     33  H   UNL     1      32.873 -12.576 -23.022  0.00  0.00    -0.089 HD
ATOM     34  H   UNL     1      34.398 -12.777 -23.660  0.00  0.00    -0.089 HD
ENDBRANCH  30  31
ENDBRANCH  15  30
TORSDOF 5
ENDMDL
MODEL 7
REMARK VINA RESULT:      -8.8      2.670      9.846
REMARK  Name = 24180717
REMARK  5 active torsions:
REMARK  status: ('A' for Active; 'I' for Inactive)
REMARK    1  A    between atoms: C_14  and  C_18
REMARK    2  A    between atoms: C_15  and  C_30
REMARK    3  A    between atoms: C_21  and  C_22
REMARK    4  A    between atoms: C_23  and  C_24
REMARK    5  A    between atoms: C_30  and  N_31
REMARK                            x       y       z     vdW  Elec       q    Type
REMARK                         _______ _______ _______ _____ _____    ______ ____
ROOT
ATOM      1  O   UNL     1      31.135 -11.118 -21.286  0.00  0.00    -0.475 OA
ATOM      2  O   UNL     1      34.610 -16.098 -25.016  0.00  0.00    -0.267 OA
ATOM      3  N   UNL     1      33.539 -15.055 -23.246  0.00  0.00    -0.274 N 
ATOM      4  C   UNL     1      32.628 -12.318 -22.797  0.00  0.00    +0.065 C 
ATOM      5  C   UNL     1      33.756 -12.955 -21.955  0.00  0.00    +0.029 C 
ATOM      6  C   UNL     1      32.548 -13.001 -24.173  0.00  0.00    +0.029 C 
ATOM      7  C   UNL     1      31.268 -12.338 -22.057  0.00  0.00    +0.209 C 
ATOM      8  C   UNL     1      32.800 -10.834 -22.860  0.00  0.00    +0.014 C 
ATOM      9  C   UNL     1      33.666 -14.483 -21.899  0.00  0.00    +0.094 C 
ATOM     10  C   UNL     1      32.432 -14.518 -24.040  0.00  0.00    +0.094 C 
ATOM     11  C   UNL     1      31.935 -10.229 -21.957  0.00  0.00    +0.135 C 
ATOM     12  C   UNL     1      33.679 -10.066 -23.607  0.00  0.00    -0.008 C 
ATOM     13  C   UNL     1      31.917  -8.862 -21.755  0.00  0.00    +0.036 C 
ATOM     14  C   UNL     1      34.389 -16.029 -23.806  0.00  0.00    +0.284 C 
ATOM     15  C   UNL     1      33.670  -8.680 -23.429  0.00  0.00    -0.044 C 
ATOM     16  C   UNL     1      32.796  -8.082 -22.508  0.00  0.00    -0.003 C 
ENDROOT
BRANCH  14  18
ATOM     17  O   UNL     1      34.212 -17.747 -22.119  0.00  0.00    -0.441 OA
ATOM     18  C   UNL     1      35.019 -16.975 -22.891  0.00  0.00    +0.199 C 
ATOM     19  C   UNL     1      36.341 -17.257 -22.640  0.00  0.00    +0.046 C 
ATOM     20  C   UNL     1      36.347 -18.268 -21.650  0.00  0.00    +0.049 C 
ATOM     21  C   UNL     1      35.028 -18.532 -21.366  0.00  0.00    +0.187 C 
BRANCH  21  22
ATOM     22  C   UNL     1      34.414 -19.436 -20.471  0.00  0.00    -0.023 C 
ATOM     23  C   UNL     1      33.891 -20.204 -19.709  0.00  0.00    -0.057 C 
BRANCH  23  24
ATOM     24  C   UNL     1      33.271 -21.119 -18.802  0.00  0.00    +0.042 C 
ATOM     25  C   UNL     1      34.037 -22.093 -18.161  0.00  0.00    +0.008 C 
ATOM     26  C   UNL     1      31.900 -21.037 -18.556  0.00  0.00    +0.008 C 
ATOM     27  C   UNL     1      33.433 -22.986 -17.276  0.00  0.00    +0.001 C 
ATOM     28  C   UNL     1      31.295 -21.929 -17.671  0.00  0.00    +0.001 C 
ATOM     29  C   UNL     1      32.062 -22.904 -17.031  0.00  0.00    +0.000 C 
ENDBRANCH  23  24
ENDBRANCH  21  22
ENDBRANCH  14  18
BRANCH  15  30
ATOM     30  C   UNL     1      34.604  -7.827 -24.220  0.00  0.00    -0.059 C 
BRANCH  30  31
ATOM     31  N   UNL     1      34.090  -6.470 -24.415  0.00  0.00    +0.383 N 
ATOM     32  H   UNL     1      33.840  -6.068 -23.511  0.00  0.00    -0.089 HD
ATOM     33  H   UNL     1      33.263  -6.503 -25.012  0.00  0.00    -0.089 HD
ATOM     34  H   UNL     1      34.806  -5.895 -24.857  0.00  0.00    -0.089 HD
ENDBRANCH  30  31
ENDBRANCH  15  30
TORSDOF 5
ENDMDL
MODEL 8
REMARK VINA RESULT:      -8.3      3.663      6.694
REMARK  Name = 24180717
REMARK  5 active torsions:
REMARK  status: ('A' for Active; 'I' for Inactive)
REMARK    1  A    between atoms: C_14  and  C_18
REMARK    2  A    between atoms: C_15  and  C_30
REMARK    3  A    between atoms: C_21  and  C_22
REMARK    4  A    between atoms: C_23  and  C_24
REMARK    5  A    between atoms: C_30  and  N_31
REMARK                            x       y       z     vdW  Elec       q    Type
REMARK                         _______ _______ _______ _____ _____    ______ ____
ROOT
ATOM      1  O   UNL     1      35.756 -24.189 -14.768  0.00  0.00    -0.475 OA
ATOM      2  O   UNL     1      32.505 -21.011 -20.255  0.00  0.00    -0.267 OA
ATOM      3  N   UNL     1      34.193 -21.695 -18.824  0.00  0.00    -0.274 N 
ATOM      4  C   UNL     1      34.191 -23.001 -16.213  0.00  0.00    +0.065 C 
ATOM      5  C   UNL     1      34.712 -21.560 -16.408  0.00  0.00    +0.029 C 
ATOM      6  C   UNL     1      33.169 -23.344 -17.311  0.00  0.00    +0.029 C 
ATOM      7  C   UNL     1      35.344 -24.033 -16.147  0.00  0.00    +0.209 C 
ATOM      8  C   UNL     1      33.678 -23.185 -14.820  0.00  0.00    +0.014 C 
ATOM      9  C   UNL     1      35.203 -21.292 -17.834  0.00  0.00    +0.094 C 
ATOM     10  C   UNL     1      33.733 -23.080 -18.704  0.00  0.00    +0.094 C 
ATOM     11  C   UNL     1      34.634 -23.845 -14.059  0.00  0.00    +0.135 C 
ATOM     12  C   UNL     1      32.492 -22.764 -14.241  0.00  0.00    -0.008 C 
ATOM     13  C   UNL     1      34.457 -24.099 -12.712  0.00  0.00    +0.036 C 
ATOM     14  C   UNL     1      33.649 -20.863 -19.822  0.00  0.00    +0.284 C 
ATOM     15  C   UNL     1      32.285 -23.022 -12.883  0.00  0.00    -0.044 C 
ATOM     16  C   UNL     1      33.262 -23.683 -12.124  0.00  0.00    -0.003 C 
ENDROOT
BRANCH  14  18
ATOM     17  O   UNL     1      33.887 -18.698 -20.863  0.00  0.00    -0.441 OA
ATOM     18  C   UNL     1      34.495 -19.794 -20.341  0.00  0.00    +0.199 C 
ATOM     19  C   UNL     1      35.862 -19.667 -20.411  0.00  0.00    +0.046 C 
ATOM     20  C   UNL     1      36.111 -18.411 -21.015  0.00  0.00    +0.049 C 
ATOM     21  C   UNL     1      34.877 -17.861 -21.271  0.00  0.00    +0.187 C 
BRANCH  21  22
ATOM     22  C   UNL     1      34.489 -16.635 -21.856  0.00  0.00    -0.023 C 
ATOM     23  C   UNL     1      34.159 -15.592 -22.353  0.00  0.00    -0.057 C 
BRANCH  23  24
ATOM     24  C   UNL     1      33.765 -14.351 -22.946  0.00  0.00    +0.042 C 
ATOM     25  C   UNL     1      33.302 -14.323 -24.262  0.00  0.00    +0.008 C 
ATOM     26  C   UNL     1      33.841 -13.169 -22.209  0.00  0.00    +0.008 C 
ATOM     27  C   UNL     1      32.917 -13.114 -24.841  0.00  0.00    +0.001 C 
ATOM     28  C   UNL     1      33.456 -11.960 -22.787  0.00  0.00    +0.001 C 
ATOM     29  C   UNL     1      32.994 -11.933 -24.103  0.00  0.00    +0.000 C 
ENDBRANCH  23  24
ENDBRANCH  21  22
ENDBRANCH  14  18
BRANCH  15  30
ATOM     30  C   UNL     1      31.016 -22.582 -12.232  0.00  0.00    -0.059 C 
BRANCH  30  31
ATOM     31  N   UNL     1      29.949 -23.576 -12.366  0.00  0.00    +0.383 N 
ATOM     32  H   UNL     1      30.246 -24.453 -11.937  0.00  0.00    -0.089 HD
ATOM     33  H   UNL     1      29.751 -23.731 -13.354  0.00  0.00    -0.089 HD
ATOM     34  H   UNL     1      29.108 -23.236 -11.899  0.00  0.00    -0.089 HD
ENDBRANCH  30  31
ENDBRANCH  15  30
TORSDOF 5
ENDMDL
