MODEL 1
REMARK VINA RESULT:     -11.2      0.000      0.000
REMARK  Name = 447098
REMARK  3 active torsions:
REMARK  status: ('A' for Active; 'I' for Inactive)
REMARK    1  A    between atoms: C_6  and  O_17
REMARK    2  A    between atoms: O_17  and  C_18
REMARK    3  A    between atoms: C_21  and  O_24
REMARK                            x       y       z     vdW  Elec       q    Type
REMARK                         _______ _______ _______ _____ _____    ______ ____
ROOT
ATOM      1  N   UNL     1      33.003 -13.367 -23.691  0.00  0.00    -0.332 NA
ATOM      2  N   UNL     1      33.240 -14.976 -25.468  0.00  0.00    -0.317 NA
ATOM      3  N   UNL     1      34.043 -17.127 -25.060  0.00  0.00    -0.335 N 
ATOM      4  N   UNL     1      32.430 -12.820 -25.900  0.00  0.00    -0.283 N 
ATOM      5  C   UNL     1      33.836 -15.561 -23.200  0.00  0.00    +0.177 C 
ATOM      6  C   UNL     1      34.317 -16.494 -22.265  0.00  0.00    +0.137 C 
ATOM      7  C   UNL     1      33.465 -14.266 -22.804  0.00  0.00    +0.137 C 
ATOM      8  C   UNL     1      33.698 -15.852 -24.554  0.00  0.00    +0.181 C 
ATOM      9  C   UNL     1      34.431 -16.138 -20.924  0.00  0.00    +0.034 C 
ATOM     10  C   UNL     1      33.589 -13.938 -21.457  0.00  0.00    +0.030 C 
ATOM     11  C   UNL     1      34.067 -14.859 -20.520  0.00  0.00    +0.005 C 
ATOM     12  C   UNL     1      32.916 -13.770 -24.974  0.00  0.00    +0.197 C 
ATOM     13  H   UNL     1      33.941 -17.320 -26.020  0.00  0.00    +0.144 HD
ATOM     14  H   UNL     1      34.386 -17.821 -24.453  0.00  0.00    +0.144 HD
ATOM     15  H   UNL     1      32.177 -11.919 -25.593  0.00  0.00    +0.156 HD
ATOM     16  H   UNL     1      32.343 -13.059 -26.850  0.00  0.00    +0.156 HD
ENDROOT
BRANCH   6  17
ATOM     17  O   UNL     1      34.693 -17.763 -22.592  0.00  0.00    -0.457 OA
BRANCH  17  18
ATOM     18  C   UNL     1      34.773 -18.691 -21.568  0.00  0.00    +0.145 C 
ATOM     19  C   UNL     1      33.625 -19.349 -21.163  0.00  0.00    +0.041 C 
ATOM     20  C   UNL     1      35.998 -18.937 -20.974  0.00  0.00    +0.041 C 
ATOM     21  C   UNL     1      34.930 -20.545 -19.519  0.00  0.00    +0.139 C 
ATOM     22  C   UNL     1      33.704 -20.283 -20.130  0.00  0.00    +0.040 C 
ATOM     23  C   UNL     1      36.077 -19.872 -19.941  0.00  0.00    +0.040 C 
BRANCH  21  24
ATOM     24  O   UNL     1      35.008 -21.456 -18.511  0.00  0.00    -0.471 OA
ATOM     25  C   UNL     1      36.131 -21.363 -17.636  0.00  0.00    +0.252 C 
ENDBRANCH  21  24
ENDBRANCH  17  18
ENDBRANCH   6  17
TORSDOF 3
ENDMDL
MODEL 2
REMARK VINA RESULT:      -9.8      5.364      8.795
REMARK  Name = 447098
REMARK  3 active torsions:
REMARK  status: ('A' for Active; 'I' for Inactive)
REMARK    1  A    between atoms: C_6  and  O_17
REMARK    2  A    between atoms: O_17  and  C_18
REMARK    3  A    between atoms: C_21  and  O_24
REMARK                            x       y       z     vdW  Elec       q    Type
REMARK                         _______ _______ _______ _____ _____    ______ ____
ROOT
ATOM      1  N   UNL     1      34.100 -22.743 -14.270  0.00  0.00    -0.332 NA
ATOM      2  N   UNL     1      32.267 -23.236 -15.754  0.00  0.00    -0.317 NA
ATOM      3  N   UNL     1      32.435 -22.881 -18.052  0.00  0.00    -0.335 N 
ATOM      4  N   UNL     1      32.077 -23.603 -13.448  0.00  0.00    -0.283 N 
ATOM      5  C   UNL     1      34.341 -22.352 -16.623  0.00  0.00    +0.177 C 
ATOM      6  C   UNL     1      35.127 -21.921 -17.706  0.00  0.00    +0.137 C 
ATOM      7  C   UNL     1      34.843 -22.333 -15.313  0.00  0.00    +0.137 C 
ATOM      8  C   UNL     1      33.039 -22.818 -16.775  0.00  0.00    +0.181 C 
ATOM      9  C   UNL     1      36.424 -21.466 -17.486  0.00  0.00    +0.034 C 
ATOM     10  C   UNL     1      36.144 -21.872 -15.121  0.00  0.00    +0.030 C 
ATOM     11  C   UNL     1      36.932 -21.442 -16.192  0.00  0.00    +0.005 C 
ATOM     12  C   UNL     1      32.852 -23.173 -14.547  0.00  0.00    +0.197 C 
ATOM     13  H   UNL     1      31.513 -23.213 -18.146  0.00  0.00    +0.144 HD
ATOM     14  H   UNL     1      32.937 -22.591 -18.848  0.00  0.00    +0.144 HD
ATOM     15  H   UNL     1      32.456 -23.578 -12.539  0.00  0.00    +0.156 HD
ATOM     16  H   UNL     1      31.159 -23.928 -13.589  0.00  0.00    +0.156 HD
ENDROOT
BRANCH   6  17
ATOM     17  O   UNL     1      34.693 -21.917 -18.999  0.00  0.00    -0.457 OA
BRANCH  17  18
ATOM     18  C   UNL     1      34.809 -20.736 -19.710  0.00  0.00    +0.145 C 
ATOM     19  C   UNL     1      33.668 -20.135 -20.212  0.00  0.00    +0.041 C 
ATOM     20  C   UNL     1      36.064 -20.185 -19.903  0.00  0.00    +0.041 C 
ATOM     21  C   UNL     1      35.042 -18.374 -21.135  0.00  0.00    +0.139 C 
ATOM     22  C   UNL     1      33.786 -18.945 -20.930  0.00  0.00    +0.040 C 
ATOM     23  C   UNL     1      36.181 -18.995 -20.621  0.00  0.00    +0.040 C 
BRANCH  21  24
ATOM     24  O   UNL     1      35.156 -17.213 -21.836  0.00  0.00    -0.471 OA
ATOM     25  C   UNL     1      34.461 -17.134 -23.078  0.00  0.00    +0.252 C 
ENDBRANCH  21  24
ENDBRANCH  17  18
ENDBRANCH   6  17
TORSDOF 3
ENDMDL
MODEL 3
REMARK VINA RESULT:      -9.8      7.871      9.979
REMARK  Name = 447098
REMARK  3 active torsions:
REMARK  status: ('A' for Active; 'I' for Inactive)
REMARK    1  A    between atoms: C_6  and  O_17
REMARK    2  A    between atoms: O_17  and  C_18
REMARK    3  A    between atoms: C_21  and  O_24
REMARK                            x       y       z     vdW  Elec       q    Type
REMARK                         _______ _______ _______ _____ _____    ______ ____
ROOT
ATOM      1  N   UNL     1      30.741 -22.282 -17.248  0.00  0.00    -0.332 NA
ATOM      2  N   UNL     1      30.391 -22.769 -14.915  0.00  0.00    -0.317 NA
ATOM      3  N   UNL     1      32.184 -23.042 -13.449  0.00  0.00    -0.335 N 
ATOM      4  N   UNL     1      28.575 -22.496 -16.370  0.00  0.00    -0.283 N 
ATOM      5  C   UNL     1      32.630 -22.552 -15.797  0.00  0.00    +0.177 C 
ATOM      6  C   UNL     1      34.024 -22.568 -15.611  0.00  0.00    +0.137 C 
ATOM      7  C   UNL     1      32.072 -22.300 -17.060  0.00  0.00    +0.137 C 
ATOM      8  C   UNL     1      31.729 -22.780 -14.762  0.00  0.00    +0.181 C 
ATOM      9  C   UNL     1      34.871 -22.332 -16.690  0.00  0.00    +0.034 C 
ATOM     10  C   UNL     1      32.943 -22.067 -18.122  0.00  0.00    +0.030 C 
ATOM     11  C   UNL     1      34.330 -22.082 -17.946  0.00  0.00    +0.005 C 
ATOM     12  C   UNL     1      29.972 -22.517 -16.165  0.00  0.00    +0.197 C 
ATOM     13  H   UNL     1      31.536 -23.202 -12.725  0.00  0.00    +0.144 HD
ATOM     14  H   UNL     1      33.149 -23.067 -13.258  0.00  0.00    +0.144 HD
ATOM     15  H   UNL     1      28.212 -22.317 -17.268  0.00  0.00    +0.156 HD
ATOM     16  H   UNL     1      27.965 -22.660 -15.616  0.00  0.00    +0.156 HD
ENDROOT
BRANCH   6  17
ATOM     17  O   UNL     1      34.622 -22.807 -14.410  0.00  0.00    -0.457 OA
BRANCH  17  18
ATOM     18  C   UNL     1      35.669 -23.712 -14.384  0.00  0.00    +0.145 C 
ATOM     19  C   UNL     1      36.924 -23.280 -13.995  0.00  0.00    +0.041 C 
ATOM     20  C   UNL     1      35.434 -25.026 -14.750  0.00  0.00    +0.041 C 
ATOM     21  C   UNL     1      37.763 -25.521 -14.336  0.00  0.00    +0.139 C 
ATOM     22  C   UNL     1      37.980 -24.192 -13.970  0.00  0.00    +0.040 C 
ATOM     23  C   UNL     1      36.490 -25.937 -14.726  0.00  0.00    +0.040 C 
BRANCH  21  24
ATOM     24  O   UNL     1      38.793 -26.410 -14.312  0.00  0.00    -0.471 OA
ATOM     25  C   UNL     1      40.115 -25.873 -14.316  0.00  0.00    +0.252 C 
ENDBRANCH  21  24
ENDBRANCH  17  18
ENDBRANCH   6  17
TORSDOF 3
ENDMDL
MODEL 4
REMARK VINA RESULT:      -9.8      6.604      9.935
REMARK  Name = 447098
REMARK  3 active torsions:
REMARK  status: ('A' for Active; 'I' for Inactive)
REMARK    1  A    between atoms: C_6  and  O_17
REMARK    2  A    between atoms: O_17  and  C_18
REMARK    3  A    between atoms: C_21  and  O_24
REMARK                            x       y       z     vdW  Elec       q    Type
REMARK                         _______ _______ _______ _____ _____    ______ ____
ROOT
ATOM      1  N   UNL     1      33.202 -23.192 -12.864  0.00  0.00    -0.332 NA
ATOM      2  N   UNL     1      35.519 -23.370 -13.500  0.00  0.00    -0.317 NA
ATOM      3  N   UNL     1      36.183 -23.208 -15.729  0.00  0.00    -0.335 N 
ATOM      4  N   UNL     1      34.874 -23.535 -11.253  0.00  0.00    -0.283 N 
ATOM      5  C   UNL     1      33.814 -23.016 -15.175  0.00  0.00    +0.177 C 
ATOM      6  C   UNL     1      33.440 -22.837 -16.519  0.00  0.00    +0.137 C 
ATOM      7  C   UNL     1      32.854 -23.022 -14.152  0.00  0.00    +0.137 C 
ATOM      8  C   UNL     1      35.136 -23.197 -14.779  0.00  0.00    +0.181 C 
ATOM      9  C   UNL     1      32.099 -22.661 -16.848  0.00  0.00    +0.034 C 
ATOM     10  C   UNL     1      31.520 -22.844 -14.510  0.00  0.00    +0.030 C 
ATOM     11  C   UNL     1      31.139 -22.665 -15.843  0.00  0.00    +0.005 C 
ATOM     12  C   UNL     1      34.516 -23.357 -12.608  0.00  0.00    +0.197 C 
ATOM     13  H   UNL     1      37.114 -23.336 -15.436  0.00  0.00    +0.144 HD
ATOM     14  H   UNL     1      35.982 -23.088 -16.685  0.00  0.00    +0.144 HD
ATOM     15  H   UNL     1      34.179 -23.534 -10.556  0.00  0.00    +0.156 HD
ATOM     16  H   UNL     1      35.818 -23.659 -11.006  0.00  0.00    +0.156 HD
ENDROOT
BRANCH   6  17
ATOM     17  O   UNL     1      34.327 -22.824 -17.554  0.00  0.00    -0.457 OA
BRANCH  17  18
ATOM     18  C   UNL     1      34.198 -21.818 -18.496  0.00  0.00    +0.145 C 
ATOM     19  C   UNL     1      32.933 -21.448 -18.918  0.00  0.00    +0.041 C 
ATOM     20  C   UNL     1      35.336 -21.210 -18.995  0.00  0.00    +0.041 C 
ATOM     21  C   UNL     1      33.938 -19.811 -20.384  0.00  0.00    +0.139 C 
ATOM     22  C   UNL     1      32.802 -20.436 -19.869  0.00  0.00    +0.040 C 
ATOM     23  C   UNL     1      35.205 -20.198 -19.946  0.00  0.00    +0.040 C 
BRANCH  21  24
ATOM     24  O   UNL     1      33.811 -18.823 -21.311  0.00  0.00    -0.471 OA
ATOM     25  C   UNL     1      34.356 -19.074 -22.605  0.00  0.00    +0.252 C 
ENDBRANCH  21  24
ENDBRANCH  17  18
ENDBRANCH   6  17
TORSDOF 3
ENDMDL
MODEL 5
REMARK VINA RESULT:      -9.6      9.521     11.362
REMARK  Name = 447098
REMARK  3 active torsions:
REMARK  status: ('A' for Active; 'I' for Inactive)
REMARK    1  A    between atoms: C_6  and  O_17
REMARK    2  A    between atoms: O_17  and  C_18
REMARK    3  A    between atoms: C_21  and  O_24
REMARK                            x       y       z     vdW  Elec       q    Type
REMARK                         _______ _______ _______ _____ _____    ______ ____
ROOT
ATOM      1  N   UNL     1      39.064 -23.981 -15.051  0.00  0.00    -0.332 NA
ATOM      2  N   UNL     1      37.949 -25.577 -13.632  0.00  0.00    -0.317 NA
ATOM      3  N   UNL     1      35.680 -25.380 -13.132  0.00  0.00    -0.335 N 
ATOM      4  N   UNL     1      40.230 -25.794 -14.123  0.00  0.00    -0.283 N 
ATOM      5  C   UNL     1      36.729 -23.717 -14.577  0.00  0.00    +0.177 C 
ATOM      6  C   UNL     1      35.533 -22.997 -14.740  0.00  0.00    +0.137 C 
ATOM      7  C   UNL     1      37.915 -23.299 -15.200  0.00  0.00    +0.137 C 
ATOM      8  C   UNL     1      36.816 -24.871 -13.803  0.00  0.00    +0.181 C 
ATOM      9  C   UNL     1      35.514 -21.850 -15.529  0.00  0.00    +0.034 C 
ATOM     10  C   UNL     1      37.868 -22.148 -15.983  0.00  0.00    +0.030 C 
ATOM     11  C   UNL     1      36.682 -21.426 -16.150  0.00  0.00    +0.005 C 
ATOM     12  C   UNL     1      39.019 -25.083 -14.275  0.00  0.00    +0.197 C 
ATOM     13  H   UNL     1      35.755 -26.197 -12.587  0.00  0.00    +0.144 HD
ATOM     14  H   UNL     1      34.815 -24.918 -13.208  0.00  0.00    +0.144 HD
ATOM     15  H   UNL     1      41.047 -25.477 -14.572  0.00  0.00    +0.156 HD
ATOM     16  H   UNL     1      40.257 -26.607 -13.569  0.00  0.00    +0.156 HD
ENDROOT
BRANCH   6  17
ATOM     17  O   UNL     1      34.352 -23.355 -14.159  0.00  0.00    -0.457 OA
BRANCH  17  18
ATOM     18  C   UNL     1      33.185 -23.048 -14.837  0.00  0.00    +0.145 C 
ATOM     19  C   UNL     1      33.178 -23.086 -16.220  0.00  0.00    +0.041 C 
ATOM     20  C   UNL     1      32.055 -22.707 -14.115  0.00  0.00    +0.041 C 
ATOM     21  C   UNL     1      30.853 -22.429 -16.193  0.00  0.00    +0.139 C 
ATOM     22  C   UNL     1      32.003 -22.775 -16.904  0.00  0.00    +0.040 C 
ATOM     23  C   UNL     1      30.879 -22.396 -14.799  0.00  0.00    +0.040 C 
BRANCH  21  24
ATOM     24  O   UNL     1      29.706 -22.125 -16.861  0.00  0.00    -0.471 OA
ATOM     25  C   UNL     1      28.476 -22.411 -16.198  0.00  0.00    +0.252 C 
ENDBRANCH  21  24
ENDBRANCH  17  18
ENDBRANCH   6  17
TORSDOF 3
ENDMDL
MODEL 6
REMARK VINA RESULT:      -9.6      4.254      7.860
REMARK  Name = 447098
REMARK  3 active torsions:
REMARK  status: ('A' for Active; 'I' for Inactive)
REMARK    1  A    between atoms: C_6  and  O_17
REMARK    2  A    between atoms: O_17  and  C_18
REMARK    3  A    between atoms: C_21  and  O_24
REMARK                            x       y       z     vdW  Elec       q    Type
REMARK                         _______ _______ _______ _____ _____    ______ ____
ROOT
ATOM      1  N   UNL     1      34.063 -16.485 -22.976  0.00  0.00    -0.332 NA
ATOM      2  N   UNL     1      33.327 -15.819 -25.171  0.00  0.00    -0.317 NA
ATOM      3  N   UNL     1      32.666 -13.628 -25.618  0.00  0.00    -0.335 N 
ATOM      4  N   UNL     1      33.989 -18.026 -24.745  0.00  0.00    -0.283 N 
ATOM      5  C   UNL     1      33.397 -14.215 -23.365  0.00  0.00    +0.177 C 
ATOM      6  C   UNL     1      33.197 -12.910 -22.881  0.00  0.00    +0.137 C 
ATOM      7  C   UNL     1      33.869 -15.234 -22.523  0.00  0.00    +0.137 C 
ATOM      8  C   UNL     1      33.144 -14.577 -24.685  0.00  0.00    +0.181 C 
ATOM      9  C   UNL     1      33.469 -12.615 -21.548  0.00  0.00    +0.034 C 
ATOM     10  C   UNL     1      34.133 -14.910 -21.194  0.00  0.00    +0.030 C 
ATOM     11  C   UNL     1      33.937 -13.615 -20.705  0.00  0.00    +0.005 C 
ATOM     12  C   UNL     1      33.782 -16.710 -24.276  0.00  0.00    +0.197 C 
ATOM     13  H   UNL     1      32.492 -13.896 -26.549  0.00  0.00    +0.144 HD
ATOM     14  H   UNL     1      32.507 -12.699 -25.337  0.00  0.00    +0.144 HD
ATOM     15  H   UNL     1      34.321 -18.720 -24.131  0.00  0.00    +0.156 HD
ATOM     16  H   UNL     1      33.801 -18.248 -25.685  0.00  0.00    +0.156 HD
ENDROOT
BRANCH   6  17
ATOM     17  O   UNL     1      32.740 -11.882 -23.651  0.00  0.00    -0.457 OA
BRANCH  17  18
ATOM     18  C   UNL     1      32.327 -10.731 -23.003  0.00  0.00    +0.145 C 
ATOM     19  C   UNL     1      31.274 -10.801 -22.109  0.00  0.00    +0.041 C 
ATOM     20  C   UNL     1      32.977  -9.538 -23.268  0.00  0.00    +0.041 C 
ATOM     21  C   UNL     1      31.499  -8.428 -21.710  0.00  0.00    +0.139 C 
ATOM     22  C   UNL     1      30.856  -9.640 -21.457  0.00  0.00    +0.040 C 
ATOM     23  C   UNL     1      32.559  -8.377 -22.616  0.00  0.00    +0.040 C 
BRANCH  21  24
ATOM     24  O   UNL     1      31.091  -7.296 -21.074  0.00  0.00    -0.471 OA
ATOM     25  C   UNL     1      32.040  -6.651 -20.227  0.00  0.00    +0.252 C 
ENDBRANCH  21  24
ENDBRANCH  17  18
ENDBRANCH   6  17
TORSDOF 3
ENDMDL
MODEL 7
REMARK VINA RESULT:      -9.6      4.235      7.544
REMARK  Name = 447098
REMARK  3 active torsions:
REMARK  status: ('A' for Active; 'I' for Inactive)
REMARK    1  A    between atoms: C_6  and  O_17
REMARK    2  A    between atoms: O_17  and  C_18
REMARK    3  A    between atoms: C_21  and  O_24
REMARK                            x       y       z     vdW  Elec       q    Type
REMARK                         _______ _______ _______ _____ _____    ______ ____
ROOT
ATOM      1  N   UNL     1      34.182 -22.217 -17.123  0.00  0.00    -0.332 NA
ATOM      2  N   UNL     1      32.008 -22.106 -18.155  0.00  0.00    -0.317 NA
ATOM      3  N   UNL     1      31.685 -21.023 -20.194  0.00  0.00    -0.335 N 
ATOM      4  N   UNL     1      32.310 -23.200 -16.105  0.00  0.00    -0.283 N 
ATOM      5  C   UNL     1      33.922 -21.086 -19.221  0.00  0.00    +0.177 C 
ATOM      6  C   UNL     1      34.486 -20.362 -20.286  0.00  0.00    +0.137 C 
ATOM      7  C   UNL     1      34.712 -21.523 -18.146  0.00  0.00    +0.137 C 
ATOM      8  C   UNL     1      32.570 -21.413 -19.163  0.00  0.00    +0.181 C 
ATOM      9  C   UNL     1      35.846 -20.068 -20.283  0.00  0.00    +0.034 C 
ATOM     10  C   UNL     1      36.070 -21.215 -18.168  0.00  0.00    +0.030 C 
ATOM     11  C   UNL     1      36.638 -20.494 -19.223  0.00  0.00    +0.005 C 
ATOM     12  C   UNL     1      32.859 -22.471 -17.183  0.00  0.00    +0.197 C 
ATOM     13  H   UNL     1      30.732 -21.261 -20.142  0.00  0.00    +0.144 HD
ATOM     14  H   UNL     1      32.023 -20.513 -20.965  0.00  0.00    +0.144 HD
ATOM     15  H   UNL     1      32.889 -23.493 -15.364  0.00  0.00    +0.156 HD
ATOM     16  H   UNL     1      31.350 -23.416 -16.095  0.00  0.00    +0.156 HD
ENDROOT
BRANCH   6  17
ATOM     17  O   UNL     1      33.769 -19.912 -21.355  0.00  0.00    -0.457 OA
BRANCH  17  18
ATOM     18  C   UNL     1      34.028 -18.630 -21.806  0.00  0.00    +0.145 C 
ATOM     19  C   UNL     1      34.376 -17.650 -20.893  0.00  0.00    +0.041 C 
ATOM     20  C   UNL     1      33.931 -18.358 -23.160  0.00  0.00    +0.041 C 
ATOM     21  C   UNL     1      34.543 -16.064 -22.708  0.00  0.00    +0.139 C 
ATOM     22  C   UNL     1      34.636 -16.357 -21.348  0.00  0.00    +0.040 C 
ATOM     23  C   UNL     1      34.190 -17.065 -23.614  0.00  0.00    +0.040 C 
BRANCH  21  24
ATOM     24  O   UNL     1      34.796 -14.803 -23.152  0.00  0.00    -0.471 OA
ATOM     25  C   UNL     1      33.713 -13.875 -23.124  0.00  0.00    +0.252 C 
ENDBRANCH  21  24
ENDBRANCH  17  18
ENDBRANCH   6  17
TORSDOF 3
ENDMDL
MODEL 8
REMARK VINA RESULT:      -9.5      6.135      9.678
REMARK  Name = 447098
REMARK  3 active torsions:
REMARK  status: ('A' for Active; 'I' for Inactive)
REMARK    1  A    between atoms: C_6  and  O_17
REMARK    2  A    between atoms: O_17  and  C_18
REMARK    3  A    between atoms: C_21  and  O_24
REMARK                            x       y       z     vdW  Elec       q    Type
REMARK                         _______ _______ _______ _____ _____    ______ ____
ROOT
ATOM      1  N   UNL     1      34.851 -22.813 -13.107  0.00  0.00    -0.332 NA
ATOM      2  N   UNL     1      37.071 -22.462 -13.976  0.00  0.00    -0.317 NA
ATOM      3  N   UNL     1      37.452 -22.204 -16.262  0.00  0.00    -0.335 N 
ATOM      4  N   UNL     1      36.709 -22.717 -11.676  0.00  0.00    -0.283 N 
ATOM      5  C   UNL     1      35.172 -22.557 -15.469  0.00  0.00    +0.177 C 
ATOM      6  C   UNL     1      34.634 -22.503 -16.767  0.00  0.00    +0.137 C 
ATOM      7  C   UNL     1      34.347 -22.761 -14.352  0.00  0.00    +0.137 C 
ATOM      8  C   UNL     1      36.532 -22.414 -15.210  0.00  0.00    +0.181 C 
ATOM      9  C   UNL     1      33.263 -22.654 -16.957  0.00  0.00    +0.034 C 
ATOM     10  C   UNL     1      32.979 -22.909 -14.572  0.00  0.00    +0.030 C 
ATOM     11  C   UNL     1      32.436 -22.857 -15.859  0.00  0.00    +0.005 C 
ATOM     12  C   UNL     1      36.186 -22.661 -12.986  0.00  0.00    +0.197 C 
ATOM     13  H   UNL     1      38.412 -22.104 -16.066  0.00  0.00    +0.144 HD
ATOM     14  H   UNL     1      37.134 -22.158 -17.192  0.00  0.00    +0.144 HD
ATOM     15  H   UNL     1      36.105 -22.861 -10.911  0.00  0.00    +0.156 HD
ATOM     16  H   UNL     1      37.675 -22.611 -11.527  0.00  0.00    +0.156 HD
ENDROOT
BRANCH   6  17
ATOM     17  O   UNL     1      35.386 -22.309 -17.887  0.00  0.00    -0.457 OA
BRANCH  17  18
ATOM     18  C   UNL     1      34.908 -21.420 -18.834  0.00  0.00    +0.145 C 
ATOM     19  C   UNL     1      35.799 -20.591 -19.492  0.00  0.00    +0.041 C 
ATOM     20  C   UNL     1      33.550 -21.382 -19.098  0.00  0.00    +0.041 C 
ATOM     21  C   UNL     1      33.951 -19.640 -20.725  0.00  0.00    +0.139 C 
ATOM     22  C   UNL     1      35.317 -19.694 -20.445  0.00  0.00    +0.040 C 
ATOM     23  C   UNL     1      33.068 -20.484 -20.051  0.00  0.00    +0.040 C 
BRANCH  21  24
ATOM     24  O   UNL     1      33.481 -18.764 -21.655  0.00  0.00    -0.471 OA
ATOM     25  C   UNL     1      34.094 -18.794 -22.942  0.00  0.00    +0.252 C 
ENDBRANCH  21  24
ENDBRANCH  17  18
ENDBRANCH   6  17
TORSDOF 3
ENDMDL
MODEL 9
REMARK VINA RESULT:      -9.5      4.394      6.285
REMARK  Name = 447098
REMARK  3 active torsions:
REMARK  status: ('A' for Active; 'I' for Inactive)
REMARK    1  A    between atoms: C_6  and  O_17
REMARK    2  A    between atoms: O_17  and  C_18
REMARK    3  A    between atoms: C_21  and  O_24
REMARK                            x       y       z     vdW  Elec       q    Type
REMARK                         _______ _______ _______ _____ _____    ______ ____
ROOT
ATOM      1  N   UNL     1      31.840  -7.416 -21.938  0.00  0.00    -0.332 NA
ATOM      2  N   UNL     1      33.819  -7.654 -23.292  0.00  0.00    -0.317 NA
ATOM      3  N   UNL     1      34.540  -9.744 -24.032  0.00  0.00    -0.335 N 
ATOM      4  N   UNL     1      33.112  -5.544 -22.560  0.00  0.00    -0.283 N 
ATOM      5  C   UNL     1      32.524  -9.595 -22.664  0.00  0.00    +0.177 C 
ATOM      6  C   UNL     1      32.313 -10.985 -22.694  0.00  0.00    +0.137 C 
ATOM      7  C   UNL     1      31.647  -8.746 -21.973  0.00  0.00    +0.137 C 
ATOM      8  C   UNL     1      33.596  -8.981 -23.306  0.00  0.00    +0.181 C 
ATOM      9  C   UNL     1      31.220 -11.536 -22.031  0.00  0.00    +0.034 C 
ATOM     10  C   UNL     1      30.562  -9.324 -21.318  0.00  0.00    +0.030 C 
ATOM     11  C   UNL     1      30.345 -10.705 -21.342  0.00  0.00    +0.005 C 
ATOM     12  C   UNL     1      32.916  -6.942 -22.600  0.00  0.00    +0.197 C 
ATOM     13  H   UNL     1      35.293  -9.298 -24.482  0.00  0.00    +0.144 HD
ATOM     14  H   UNL     1      34.444 -10.722 -24.088  0.00  0.00    +0.144 HD
ATOM     15  H   UNL     1      32.480  -4.972 -22.067  0.00  0.00    +0.156 HD
ATOM     16  H   UNL     1      33.880  -5.141 -23.025  0.00  0.00    +0.156 HD
ENDROOT
BRANCH   6  17
ATOM     17  O   UNL     1      33.131 -11.859 -23.348  0.00  0.00    -0.457 OA
BRANCH  17  18
ATOM     18  C   UNL     1      33.510 -13.007 -22.676  0.00  0.00    +0.145 C 
ATOM     19  C   UNL     1      33.500 -13.014 -21.292  0.00  0.00    +0.041 C 
ATOM     20  C   UNL     1      33.890 -14.121 -23.404  0.00  0.00    +0.041 C 
ATOM     21  C   UNL     1      34.270 -15.304 -21.331  0.00  0.00    +0.139 C 
ATOM     22  C   UNL     1      33.883 -14.171 -20.614  0.00  0.00    +0.040 C 
ATOM     23  C   UNL     1      34.274 -15.278 -22.726  0.00  0.00    +0.040 C 
BRANCH  21  24
ATOM     24  O   UNL     1      34.644 -16.433 -20.670  0.00  0.00    -0.471 OA
ATOM     25  C   UNL     1      35.087 -17.533 -21.463  0.00  0.00    +0.252 C 
ENDBRANCH  21  24
ENDBRANCH  17  18
ENDBRANCH   6  17
TORSDOF 3
ENDMDL
