MODEL 1
REMARK VINA RESULT:     -11.8      0.000      0.000
REMARK  Name = 5362507
REMARK  4 active torsions:
REMARK  status: ('A' for Active; 'I' for Inactive)
REMARK    1  A    between atoms: C_12  and  O_21
REMARK    2  A    between atoms: C_18  and  O_23
REMARK    3  A    between atoms: O_23  and  C_24
REMARK    4  A    between atoms: C_24  and  C_25
REMARK                            x       y       z     vdW  Elec       q    Type
REMARK                         _______ _______ _______ _____ _____    ______ ____
ROOT
ATOM      1  O   UNL     1      31.178 -10.137 -22.483  0.00  0.00    -0.473 OA
ATOM      2  N   UNL     1      31.383  -4.926 -23.040  0.00  0.00    +0.387 N 
ATOM      3  C   UNL     1      31.154  -7.713 -22.260  0.00  0.00    +0.061 C 
ATOM      4  C   UNL     1      31.533  -6.604 -21.267  0.00  0.00    +0.010 C 
ATOM      5  C   UNL     1      32.332  -5.529 -22.074  0.00  0.00    -0.049 C 
ATOM      6  C   UNL     1      30.612  -9.041 -21.683  0.00  0.00    +0.200 C 
ATOM      7  C   UNL     1      30.247  -7.125 -23.360  0.00  0.00    -0.015 C 
ATOM      8  C   UNL     1      32.408  -8.253 -22.864  0.00  0.00    +0.014 C 
ATOM      9  C   UNL     1      33.647  -6.101 -22.709  0.00  0.00    +0.006 C 
ATOM     10  C   UNL     1      30.850  -5.875 -24.022  0.00  0.00    -0.077 C 
ATOM     11  C   UNL     1      33.558  -7.538 -23.145  0.00  0.00    -0.025 C 
ATOM     12  C   UNL     1      30.899  -9.249 -20.173  0.00  0.00    +0.172 C 
ATOM     13  C   UNL     1      32.260  -7.158 -20.068  0.00  0.00    -0.030 C 
ATOM     14  C   UNL     1      32.328  -9.620 -23.015  0.00  0.00    +0.168 C 
ATOM     15  C   UNL     1      31.977  -8.377 -19.585  0.00  0.00    +0.002 C 
ATOM     16  C   UNL     1      34.618  -8.239 -23.722  0.00  0.00    -0.001 C 
ATOM     17  C   UNL     1      31.898  -3.723 -23.686  0.00  0.00    -0.101 C 
ATOM     18  C   UNL     1      33.358 -10.332 -23.589  0.00  0.00    +0.172 C 
ATOM     19  C   UNL     1      34.508  -9.624 -23.960  0.00  0.00    +0.040 C 
ATOM     20  H   UNL     1      30.594  -4.637 -22.461  0.00  0.00    -0.080 HD
ENDROOT
BRANCH  12  21
ATOM     21  O   UNL     1      31.179 -10.623 -19.916  0.00  0.00    -0.377 OA
ATOM     22  H   UNL     1      32.130 -10.785 -20.025  0.00  0.00    +0.211 HD
ENDBRANCH  12  21
BRANCH  18  23
ATOM     23  O   UNL     1      33.284 -11.674 -23.760  0.00  0.00    -0.468 OA
BRANCH  23  24
ATOM     24  C   UNL     1      33.426 -12.493 -22.597  0.00  0.00    +0.232 C 
BRANCH  24  25
ATOM     25  C   UNL     1      33.697 -13.917 -22.949  0.00  0.00    +0.021 C 
ATOM     26  C   UNL     1      34.247 -14.777 -22.000  0.00  0.00    -0.001 C 
ATOM     27  C   UNL     1      33.401 -14.388 -24.229  0.00  0.00    -0.001 C 
ATOM     28  C   UNL     1      34.501 -16.109 -22.328  0.00  0.00    -0.000 C 
ATOM     29  C   UNL     1      33.655 -15.719 -24.558  0.00  0.00    -0.000 C 
ATOM     30  C   UNL     1      34.204 -16.579 -23.608  0.00  0.00    -0.000 C 
ENDBRANCH  24  25
ENDBRANCH  23  24
ENDBRANCH  18  23
TORSDOF 4
ENDMDL
MODEL 2
REMARK VINA RESULT:     -10.4      1.381      1.870
REMARK  Name = 5362507
REMARK  4 active torsions:
REMARK  status: ('A' for Active; 'I' for Inactive)
REMARK    1  A    between atoms: C_12  and  O_21
REMARK    2  A    between atoms: C_18  and  O_23
REMARK    3  A    between atoms: O_23  and  C_24
REMARK    4  A    between atoms: C_24  and  C_25
REMARK                            x       y       z     vdW  Elec       q    Type
REMARK                         _______ _______ _______ _____ _____    ______ ____
ROOT
ATOM      1  O   UNL     1      31.123  -8.678 -22.490  0.00  0.00    -0.473 OA
ATOM      2  N   UNL     1      32.231  -4.352 -25.242  0.00  0.00    +0.387 N 
ATOM      3  C   UNL     1      31.530  -6.434 -23.344  0.00  0.00    +0.061 C 
ATOM      4  C   UNL     1      32.117  -5.083 -22.910  0.00  0.00    +0.010 C 
ATOM      5  C   UNL     1      33.077  -4.619 -24.054  0.00  0.00    -0.049 C 
ATOM      6  C   UNL     1      30.774  -7.265 -22.282  0.00  0.00    +0.200 C 
ATOM      7  C   UNL     1      30.720  -6.246 -24.643  0.00  0.00    -0.015 C 
ATOM      8  C   UNL     1      32.658  -7.385 -23.576  0.00  0.00    +0.014 C 
ATOM      9  C   UNL     1      34.259  -5.621 -24.296  0.00  0.00    +0.006 C 
ATOM     10  C   UNL     1      31.521  -5.532 -25.744  0.00  0.00    -0.077 C 
ATOM     11  C   UNL     1      33.910  -7.067 -24.070  0.00  0.00    -0.025 C 
ATOM     12  C   UNL     1      31.048  -6.835 -20.817  0.00  0.00    +0.172 C 
ATOM     13  C   UNL     1      32.756  -5.168 -21.548  0.00  0.00    -0.030 C 
ATOM     14  C   UNL     1      32.336  -8.645 -23.123  0.00  0.00    +0.168 C 
ATOM     15  C   UNL     1      32.273  -5.986 -20.602  0.00  0.00    +0.002 C 
ATOM     16  C   UNL     1      34.821  -8.116 -24.219  0.00  0.00    -0.001 C 
ATOM     17  C   UNL     1      32.937  -3.658 -26.314  0.00  0.00    -0.101 C 
ATOM     18  C   UNL     1      33.214  -9.696 -23.267  0.00  0.00    +0.172 C 
ATOM     19  C   UNL     1      34.464  -9.425 -23.839  0.00  0.00    +0.040 C 
ATOM     20  H   UNL     1      31.516  -3.713 -24.895  0.00  0.00    -0.080 HD
ENDROOT
BRANCH  12  21
ATOM     21  O   UNL     1      31.087  -7.983 -19.972  0.00  0.00    -0.377 OA
ATOM     22  H   UNL     1      30.723  -7.757 -19.102  0.00  0.00    +0.211 HD
ENDBRANCH  12  21
BRANCH  18  23
ATOM     23  O   UNL     1      32.903 -10.945 -22.843  0.00  0.00    -0.468 OA
BRANCH  23  24
ATOM     24  C   UNL     1      33.325 -12.040 -23.660  0.00  0.00    +0.232 C 
BRANCH  24  25
ATOM     25  C   UNL     1      33.662 -13.243 -22.847  0.00  0.00    +0.021 C 
ATOM     26  C   UNL     1      33.469 -13.230 -21.467  0.00  0.00    -0.001 C 
ATOM     27  C   UNL     1      34.172 -14.384 -23.469  0.00  0.00    -0.001 C 
ATOM     28  C   UNL     1      33.785 -14.355 -20.706  0.00  0.00    -0.000 C 
ATOM     29  C   UNL     1      34.489 -15.510 -22.709  0.00  0.00    -0.000 C 
ATOM     30  C   UNL     1      34.294 -15.495 -21.328  0.00  0.00    -0.000 C 
ENDBRANCH  24  25
ENDBRANCH  23  24
ENDBRANCH  18  23
TORSDOF 4
ENDMDL
MODEL 3
REMARK VINA RESULT:      -9.6     11.849     16.826
REMARK  Name = 5362507
REMARK  4 active torsions:
REMARK  status: ('A' for Active; 'I' for Inactive)
REMARK    1  A    between atoms: C_12  and  O_21
REMARK    2  A    between atoms: C_18  and  O_23
REMARK    3  A    between atoms: O_23  and  C_24
REMARK    4  A    between atoms: C_24  and  C_25
REMARK                            x       y       z     vdW  Elec       q    Type
REMARK                         _______ _______ _______ _____ _____    ______ ____
ROOT
ATOM      1  O   UNL     1      34.872 -24.652 -15.711  0.00  0.00    -0.473 OA
ATOM      2  N   UNL     1      35.687 -23.797 -10.600  0.00  0.00    +0.387 N 
ATOM      3  C   UNL     1      35.451 -24.709 -13.347  0.00  0.00    +0.061 C 
ATOM      4  C   UNL     1      36.556 -25.204 -12.402  0.00  0.00    +0.010 C 
ATOM      5  C   UNL     1      36.890 -24.020 -11.437  0.00  0.00    -0.049 C 
ATOM      6  C   UNL     1      35.128 -25.569 -14.590  0.00  0.00    +0.200 C 
ATOM      7  C   UNL     1      34.196 -24.355 -12.523  0.00  0.00    -0.015 C 
ATOM      8  C   UNL     1      35.951 -23.499 -14.064  0.00  0.00    +0.014 C 
ATOM      9  C   UNL     1      37.413 -22.751 -12.195  0.00  0.00    +0.006 C 
ATOM     10  C   UNL     1      34.499 -23.395 -11.361  0.00  0.00    -0.077 C 
ATOM     11  C   UNL     1      36.806 -22.538 -13.555  0.00  0.00    -0.025 C 
ATOM     12  C   UNL     1      36.224 -26.603 -14.958  0.00  0.00    +0.172 C 
ATOM     13  C   UNL     1      37.738 -25.745 -13.167  0.00  0.00    -0.030 C 
ATOM     14  C   UNL     1      35.538 -23.504 -15.378  0.00  0.00    +0.168 C 
ATOM     15  C   UNL     1      37.579 -26.366 -14.344  0.00  0.00    +0.002 C 
ATOM     16  C   UNL     1      37.144 -21.476 -14.396  0.00  0.00    -0.001 C 
ATOM     17  C   UNL     1      35.923 -22.906  -9.470  0.00  0.00    -0.101 C 
ATOM     18  C   UNL     1      35.851 -22.463 -16.223  0.00  0.00    +0.172 C 
ATOM     19  C   UNL     1      36.650 -21.431 -15.715  0.00  0.00    +0.040 C 
ATOM     20  H   UNL     1      35.482 -24.718 -10.215  0.00  0.00    -0.080 HD
ENDROOT
BRANCH  12  21
ATOM     21  O   UNL     1      36.334 -26.713 -16.375  0.00  0.00    -0.377 OA
ATOM     22  H   UNL     1      36.712 -25.895 -16.733  0.00  0.00    +0.211 HD
ENDBRANCH  12  21
BRANCH  18  23
ATOM     23  O   UNL     1      35.434 -22.446 -17.513  0.00  0.00    -0.468 OA
BRANCH  23  24
ATOM     24  C   UNL     1      35.893 -21.371 -18.336  0.00  0.00    +0.232 C 
BRANCH  24  25
ATOM     25  C   UNL     1      34.803 -20.823 -19.194  0.00  0.00    +0.021 C 
ATOM     26  C   UNL     1      35.110 -19.966 -20.250  0.00  0.00    -0.001 C 
ATOM     27  C   UNL     1      33.475 -21.169 -18.940  0.00  0.00    -0.001 C 
ATOM     28  C   UNL     1      34.091 -19.453 -21.052  0.00  0.00    -0.000 C 
ATOM     29  C   UNL     1      32.455 -20.656 -19.742  0.00  0.00    -0.000 C 
ATOM     30  C   UNL     1      32.763 -19.799 -20.798  0.00  0.00    -0.000 C 
ENDBRANCH  24  25
ENDBRANCH  23  24
ENDBRANCH  18  23
TORSDOF 4
ENDMDL
MODEL 4
REMARK VINA RESULT:      -9.5      1.837      3.579
REMARK  Name = 5362507
REMARK  4 active torsions:
REMARK  status: ('A' for Active; 'I' for Inactive)
REMARK    1  A    between atoms: C_12  and  O_21
REMARK    2  A    between atoms: C_18  and  O_23
REMARK    3  A    between atoms: O_23  and  C_24
REMARK    4  A    between atoms: C_24  and  C_25
REMARK                            x       y       z     vdW  Elec       q    Type
REMARK                         _______ _______ _______ _____ _____    ______ ____
ROOT
ATOM      1  O   UNL     1      34.433  -7.903 -23.257  0.00  0.00    -0.473 OA
ATOM      2  N   UNL     1      30.932  -4.511 -21.320  0.00  0.00    +0.387 N 
ATOM      3  C   UNL     1      32.938  -6.049 -22.746  0.00  0.00    +0.061 C 
ATOM      4  C   UNL     1      32.033  -5.022 -23.443  0.00  0.00    +0.010 C 
ATOM      5  C   UNL     1      30.667  -5.034 -22.682  0.00  0.00    -0.049 C 
ATOM      6  C   UNL     1      34.246  -6.458 -23.462  0.00  0.00    +0.200 C 
ATOM      7  C   UNL     1      33.168  -5.619 -21.283  0.00  0.00    -0.015 C 
ATOM      8  C   UNL     1      32.262  -7.379 -22.789  0.00  0.00    +0.014 C 
ATOM      9  C   UNL     1      29.961  -6.433 -22.727  0.00  0.00    +0.006 C 
ATOM     10  C   UNL     1      31.855  -5.335 -20.535  0.00  0.00    -0.077 C 
ATOM     11  C   UNL     1      30.899  -7.609 -22.722  0.00  0.00    -0.025 C 
ATOM     12  C   UNL     1      34.290  -6.102 -24.972  0.00  0.00    +0.172 C 
ATOM     13  C   UNL     1      31.931  -5.287 -24.923  0.00  0.00    -0.030 C 
ATOM     14  C   UNL     1      33.174  -8.385 -23.023  0.00  0.00    +0.168 C 
ATOM     15  C   UNL     1      32.961  -5.800 -25.611  0.00  0.00    +0.002 C 
ATOM     16  C   UNL     1      30.475  -8.938 -22.770  0.00  0.00    -0.001 C 
ATOM     17  C   UNL     1      29.718  -4.207 -20.569  0.00  0.00    -0.101 C 
ATOM     18  C   UNL     1      32.780  -9.703 -23.066  0.00  0.00    +0.172 C 
ATOM     19  C   UNL     1      31.414  -9.978 -22.920  0.00  0.00    +0.040 C 
ATOM     20  H   UNL     1      31.408  -3.625 -21.485  0.00  0.00    -0.080 HD
ENDROOT
BRANCH  12  21
ATOM     21  O   UNL     1      34.966  -7.128 -25.694  0.00  0.00    -0.377 OA
ATOM     22  H   UNL     1      35.017  -7.928 -25.147  0.00  0.00    +0.211 HD
ENDBRANCH  12  21
BRANCH  18  23
ATOM     23  O   UNL     1      33.670 -10.704 -23.275  0.00  0.00    -0.468 OA
BRANCH  23  24
ATOM     24  C   UNL     1      33.165 -11.928 -23.814  0.00  0.00    +0.232 C 
BRANCH  24  25
ATOM     25  C   UNL     1      33.526 -13.100 -22.965  0.00  0.00    +0.021 C 
ATOM     26  C   UNL     1      33.409 -13.019 -21.578  0.00  0.00    -0.001 C 
ATOM     27  C   UNL     1      33.981 -14.278 -23.559  0.00  0.00    -0.001 C 
ATOM     28  C   UNL     1      33.746 -14.115 -20.783  0.00  0.00    -0.000 C 
ATOM     29  C   UNL     1      34.319 -15.374 -22.765  0.00  0.00    -0.000 C 
ATOM     30  C   UNL     1      34.201 -15.292 -21.378  0.00  0.00    -0.000 C 
ENDBRANCH  24  25
ENDBRANCH  23  24
ENDBRANCH  18  23
TORSDOF 4
ENDMDL
MODEL 5
REMARK VINA RESULT:      -9.2     14.958     17.741
REMARK  Name = 5362507
REMARK  4 active torsions:
REMARK  status: ('A' for Active; 'I' for Inactive)
REMARK    1  A    between atoms: C_12  and  O_21
REMARK    2  A    between atoms: C_18  and  O_23
REMARK    3  A    between atoms: O_23  and  C_24
REMARK    4  A    between atoms: C_24  and  C_25
REMARK                            x       y       z     vdW  Elec       q    Type
REMARK                         _______ _______ _______ _____ _____    ______ ____
ROOT
ATOM      1  O   UNL     1      33.773 -24.220 -14.744  0.00  0.00    -0.473 OA
ATOM      2  N   UNL     1      38.860 -25.446 -14.378  0.00  0.00    +0.387 N 
ATOM      3  C   UNL     1      36.184 -24.485 -14.963  0.00  0.00    +0.061 C 
ATOM      4  C   UNL     1      37.446 -23.676 -15.300  0.00  0.00    +0.010 C 
ATOM      5  C   UNL     1      38.507 -24.016 -14.203  0.00  0.00    -0.049 C 
ATOM      6  C   UNL     1      34.878 -24.126 -15.709  0.00  0.00    +0.200 C 
ATOM      7  C   UNL     1      36.512 -25.991 -15.022  0.00  0.00    -0.015 C 
ATOM      8  C   UNL     1      35.738 -24.111 -13.588  0.00  0.00    +0.014 C 
ATOM      9  C   UNL     1      38.033 -23.625 -12.760  0.00  0.00    +0.006 C 
ATOM     10  C   UNL     1      37.737 -26.366 -14.174  0.00  0.00    -0.077 C 
ATOM     11  C   UNL     1      36.554 -23.768 -12.525  0.00  0.00    -0.025 C 
ATOM     12  C   UNL     1      34.895 -22.737 -16.401  0.00  0.00    +0.172 C 
ATOM     13  C   UNL     1      37.140 -22.207 -15.445  0.00  0.00    -0.030 C 
ATOM     14  C   UNL     1      34.364 -24.038 -13.523  0.00  0.00    +0.168 C 
ATOM     15  C   UNL     1      35.964 -21.786 -15.931  0.00  0.00    +0.002 C 
ATOM     16  C   UNL     1      35.929 -23.460 -11.316  0.00  0.00    -0.001 C 
ATOM     17  C   UNL     1      40.030 -25.853 -13.607  0.00  0.00    -0.101 C 
ATOM     18  C   UNL     1      33.725 -23.745 -12.339  0.00  0.00    +0.172 C 
ATOM     19  C   UNL     1      34.523 -23.470 -11.221  0.00  0.00    +0.040 C 
ATOM     20  H   UNL     1      39.114 -25.517 -15.363  0.00  0.00    -0.080 HD
ENDROOT
BRANCH  12  21
ATOM     21  O   UNL     1      33.610 -22.129 -16.300  0.00  0.00    -0.377 OA
ATOM     22  H   UNL     1      33.691 -21.279 -15.840  0.00  0.00    +0.211 HD
ENDBRANCH  12  21
BRANCH  18  23
ATOM     23  O   UNL     1      32.373 -23.688 -12.256  0.00  0.00    -0.468 OA
BRANCH  23  24
ATOM     24  C   UNL     1      31.712 -22.677 -13.020  0.00  0.00    +0.232 C 
BRANCH  24  25
ATOM     25  C   UNL     1      30.576 -23.231 -13.812  0.00  0.00    +0.021 C 
ATOM     26  C   UNL     1      29.933 -22.436 -14.761  0.00  0.00    -0.001 C 
ATOM     27  C   UNL     1      30.157 -24.546 -13.605  0.00  0.00    -0.001 C 
ATOM     28  C   UNL     1      28.871 -22.954 -15.502  0.00  0.00    -0.000 C 
ATOM     29  C   UNL     1      29.095 -25.064 -14.345  0.00  0.00    -0.000 C 
ATOM     30  C   UNL     1      28.453 -24.269 -15.293  0.00  0.00    -0.000 C 
ENDBRANCH  24  25
ENDBRANCH  23  24
ENDBRANCH  18  23
TORSDOF 4
ENDMDL
MODEL 6
REMARK VINA RESULT:      -9.1      2.457      3.858
REMARK  Name = 5362507
REMARK  4 active torsions:
REMARK  status: ('A' for Active; 'I' for Inactive)
REMARK    1  A    between atoms: C_12  and  O_21
REMARK    2  A    between atoms: C_18  and  O_23
REMARK    3  A    between atoms: O_23  and  C_24
REMARK    4  A    between atoms: C_24  and  C_25
REMARK                            x       y       z     vdW  Elec       q    Type
REMARK                         _______ _______ _______ _____ _____    ______ ____
ROOT
ATOM      1  O   UNL     1      30.658  -7.114 -23.668  0.00  0.00    -0.473 OA
ATOM      2  N   UNL     1      33.431  -4.633 -27.365  0.00  0.00    +0.387 N 
ATOM      3  C   UNL     1      31.742  -5.553 -25.191  0.00  0.00    +0.061 C 
ATOM      4  C   UNL     1      32.376  -4.155 -25.211  0.00  0.00    +0.010 C 
ATOM      5  C   UNL     1      33.744  -4.290 -25.957  0.00  0.00    -0.049 C 
ATOM      6  C   UNL     1      30.523  -5.778 -24.267  0.00  0.00    +0.200 C 
ATOM      7  C   UNL     1      31.487  -6.019 -26.639  0.00  0.00    -0.015 C 
ATOM      8  C   UNL     1      32.685  -6.489 -24.510  0.00  0.00    +0.014 C 
ATOM      9  C   UNL     1      34.730  -5.275 -25.240  0.00  0.00    +0.006 C 
ATOM     10  C   UNL     1      32.739  -5.916 -27.525  0.00  0.00    -0.077 C 
ATOM     11  C   UNL     1      34.066  -6.437 -24.553  0.00  0.00    -0.025 C 
ATOM     12  C   UNL     1      30.340  -4.694 -23.171  0.00  0.00    +0.172 C 
ATOM     13  C   UNL     1      32.471  -3.569 -23.825  0.00  0.00    -0.030 C 
ATOM     14  C   UNL     1      32.000  -7.379 -23.712  0.00  0.00    +0.168 C 
ATOM     15  C   UNL     1      31.546  -3.837 -22.892  0.00  0.00    +0.002 C 
ATOM     16  C   UNL     1      34.763  -7.420 -23.848  0.00  0.00    -0.001 C 
ATOM     17  C   UNL     1      34.582  -4.534 -28.257  0.00  0.00    -0.101 C 
ATOM     18  C   UNL     1      32.665  -8.363 -23.015  0.00  0.00    +0.172 C 
ATOM     19  C   UNL     1      34.062  -8.389 -23.101  0.00  0.00    +0.040 C 
ATOM     20  H   UNL     1      32.770  -3.912 -27.653  0.00  0.00    -0.080 HD
ENDROOT
BRANCH  12  21
ATOM     21  O   UNL     1      29.870  -5.295 -21.967  0.00  0.00    -0.377 OA
ATOM     22  H   UNL     1      28.903  -5.364 -21.997  0.00  0.00    +0.211 HD
ENDBRANCH  12  21
BRANCH  18  23
ATOM     23  O   UNL     1      32.001  -9.257 -22.242  0.00  0.00    -0.468 OA
BRANCH  23  24
ATOM     24  C   UNL     1      31.570 -10.469 -22.865  0.00  0.00    +0.232 C 
BRANCH  24  25
ATOM     25  C   UNL     1      32.164 -11.672 -22.213  0.00  0.00    +0.021 C 
ATOM     26  C   UNL     1      33.297 -12.274 -22.760  0.00  0.00    -0.001 C 
ATOM     27  C   UNL     1      31.587 -12.195 -21.056  0.00  0.00    -0.001 C 
ATOM     28  C   UNL     1      33.853 -13.399 -22.151  0.00  0.00    -0.000 C 
ATOM     29  C   UNL     1      32.142 -13.320 -20.447  0.00  0.00    -0.000 C 
ATOM     30  C   UNL     1      33.275 -13.921 -20.994  0.00  0.00    -0.000 C 
ENDBRANCH  24  25
ENDBRANCH  23  24
ENDBRANCH  18  23
TORSDOF 4
ENDMDL
