MODEL 1
REMARK VINA RESULT:     -13.0      0.000      0.000
REMARK  Name = 9804992
REMARK  10 active torsions:
REMARK  status: ('A' for Active; 'I' for Inactive)
REMARK    1  A    between atoms: C_1  and  C_9
REMARK    2  A    between atoms: C_1  and  O_19
REMARK    3  A    between atoms: C_2  and  C_12
REMARK    4  A    between atoms: C_12  and  N_13
REMARK    5  A    between atoms: N_13  and  C_15
REMARK    6  A    between atoms: N_13  and  C_17
REMARK    7  A    between atoms: O_19  and  C_22
REMARK    8  A    between atoms: N_21  and  C_24
REMARK    9  A    between atoms: C_27  and  C_32
REMARK   10  A    between atoms: N_31  and  O_34
REMARK                            x       y       z     vdW  Elec       q    Type
REMARK                         _______ _______ _______ _____ _____    ______ ____
ROOT
ATOM      1  C   UNL     1      35.069 -20.213 -20.286  0.00  0.00    +0.237 C 
ENDROOT
BRANCH   1   9
ATOM      2  C   UNL     1      35.769 -23.221 -14.547  0.00  0.00    -0.043 C 
ATOM      3  C   UNL     1      34.760 -22.430 -16.614  0.00  0.00    -0.000 C 
ATOM      4  C   UNL     1      35.970 -21.774 -16.945  0.00  0.00    -0.000 C 
ATOM      5  C   UNL     1      34.676 -23.149 -15.411  0.00  0.00    -0.006 C 
ATOM      6  C   UNL     1      36.958 -22.577 -14.873  0.00  0.00    -0.006 C 
ATOM      7  C   UNL     1      37.060 -21.858 -16.063  0.00  0.00    -0.000 C 
ATOM      8  C   UNL     1      36.055 -21.055 -18.148  0.00  0.00    -0.001 C 
ATOM      9  C   UNL     1      34.961 -20.982 -19.013  0.00  0.00    +0.021 C 
ATOM     10  C   UNL     1      33.670 -22.346 -17.495  0.00  0.00    -0.000 C 
ATOM     11  C   UNL     1      33.772 -21.627 -18.687  0.00  0.00    -0.001 C 
BRANCH   2  12
ATOM     12  C   UNL     1      35.661 -23.990 -13.272  0.00  0.00    -0.050 C 
BRANCH  12  13
ATOM     13  N   UNL     1      36.749 -23.682 -12.343  0.00  0.00    +0.390 N 
ATOM     14  H   UNL     1      37.409 -23.060 -12.809  0.00  0.00    -0.079 HD
BRANCH  13  15
ATOM     15  C   UNL     1      36.229 -22.998 -11.159  0.00  0.00    -0.077 C 
ATOM     16  C   UNL     1      35.272 -23.890 -10.387  0.00  0.00    -0.025 C 
ENDBRANCH  13  15
BRANCH  13  17
ATOM     17  C   UNL     1      37.454 -24.903 -11.961  0.00  0.00    -0.077 C 
ATOM     18  C   UNL     1      38.321 -25.416 -13.098  0.00  0.00    -0.025 C 
ENDBRANCH  13  17
ENDBRANCH  12  13
ENDBRANCH   2  12
ENDBRANCH   1   9
BRANCH   1  19
ATOM     19  O   UNL     1      36.235 -19.400 -20.250  0.00  0.00    -0.429 OA
BRANCH  19  22
ATOM     20  O   UNL     1      37.183 -17.950 -21.743  0.00  0.00    -0.226 OA
ATOM     21  N   UNL     1      35.006 -17.651 -20.934  0.00  0.00    -0.250 N 
ATOM     22  C   UNL     1      36.228 -18.284 -21.051  0.00  0.00    +0.406 C 
ATOM     23  H   UNL     1      34.358 -18.074 -20.325  0.00  0.00    +0.158 HD
BRANCH  21  24
ATOM     24  C   UNL     1      34.571 -16.472 -21.581  0.00  0.00    +0.053 C 
ATOM     25  C   UNL     1      34.514 -16.422 -22.974  0.00  0.00    +0.015 C 
ATOM     26  C   UNL     1      34.200 -15.359 -20.827  0.00  0.00    +0.015 C 
ATOM     27  C   UNL     1      33.714 -14.144 -22.858  0.00  0.00    +0.055 C 
ATOM     28  C   UNL     1      34.085 -15.258 -23.613  0.00  0.00    +0.006 C 
ATOM     29  C   UNL     1      33.772 -14.195 -21.465  0.00  0.00    +0.006 C 
BRANCH  27  32
ATOM     30  O   UNL     1      32.739 -12.981 -24.650  0.00  0.00    -0.268 OA
ATOM     31  N   UNL     1      33.470 -11.732 -22.857  0.00  0.00    -0.193 N 
ATOM     32  C   UNL     1      33.268 -12.932 -23.524  0.00  0.00    +0.268 C 
ATOM     33  H   UNL     1      33.889 -11.702 -21.965  0.00  0.00    +0.183 HD
BRANCH  31  34
ATOM     34  O   UNL     1      33.049 -10.565 -23.510  0.00  0.00    -0.295 OA
ATOM     35  H   UNL     1      33.267 -10.624 -24.453  0.00  0.00    +0.241 HD
ENDBRANCH  31  34
ENDBRANCH  27  32
ENDBRANCH  21  24
ENDBRANCH  19  22
ENDBRANCH   1  19
TORSDOF 10
ENDMDL
MODEL 2
REMARK VINA RESULT:     -12.8      0.889      1.320
REMARK  Name = 9804992
REMARK  10 active torsions:
REMARK  status: ('A' for Active; 'I' for Inactive)
REMARK    1  A    between atoms: C_1  and  C_9
REMARK    2  A    between atoms: C_1  and  O_19
REMARK    3  A    between atoms: C_2  and  C_12
REMARK    4  A    between atoms: C_12  and  N_13
REMARK    5  A    between atoms: N_13  and  C_15
REMARK    6  A    between atoms: N_13  and  C_17
REMARK    7  A    between atoms: O_19  and  C_22
REMARK    8  A    between atoms: N_21  and  C_24
REMARK    9  A    between atoms: C_27  and  C_32
REMARK   10  A    between atoms: N_31  and  O_34
REMARK                            x       y       z     vdW  Elec       q    Type
REMARK                         _______ _______ _______ _____ _____    ______ ____
ROOT
ATOM      1  C   UNL     1      34.736 -20.119 -20.567  0.00  0.00    +0.237 C 
ENDROOT
BRANCH   1   9
ATOM      2  C   UNL     1      36.016 -23.052 -14.889  0.00  0.00    -0.043 C 
ATOM      3  C   UNL     1      34.810 -22.306 -16.865  0.00  0.00    -0.000 C 
ATOM      4  C   UNL     1      35.969 -21.625 -17.307  0.00  0.00    -0.000 C 
ATOM      5  C   UNL     1      34.850 -23.015 -15.654  0.00  0.00    -0.006 C 
ATOM      6  C   UNL     1      37.156 -22.383 -15.325  0.00  0.00    -0.006 C 
ATOM      7  C   UNL     1      37.134 -21.674 -16.525  0.00  0.00    -0.000 C 
ATOM      8  C   UNL     1      35.928 -20.916 -18.518  0.00  0.00    -0.001 C 
ATOM      9  C   UNL     1      34.761 -20.878 -19.283  0.00  0.00    +0.021 C 
ATOM     10  C   UNL     1      33.644 -22.258 -17.647  0.00  0.00    -0.000 C 
ATOM     11  C   UNL     1      33.622 -21.548 -18.849  0.00  0.00    -0.001 C 
BRANCH   2  12
ATOM     12  C   UNL     1      36.042 -23.811 -13.605  0.00  0.00    -0.050 C 
BRANCH  12  13
ATOM     13  N   UNL     1      37.399 -23.977 -13.083  0.00  0.00    +0.390 N 
ATOM     14  H   UNL     1      38.008 -23.299 -13.540  0.00  0.00    -0.079 HD
BRANCH  13  15
ATOM     15  C   UNL     1      37.425 -23.725 -11.643  0.00  0.00    -0.077 C 
ATOM     16  C   UNL     1      36.289 -22.806 -11.225  0.00  0.00    -0.025 C 
ENDBRANCH  13  15
BRANCH  13  17
ATOM     17  C   UNL     1      37.897 -25.319 -13.377  0.00  0.00    -0.077 C 
ATOM     18  C   UNL     1      39.369 -25.289 -13.751  0.00  0.00    -0.025 C 
ENDBRANCH  13  17
ENDBRANCH  12  13
ENDBRANCH   2  12
ENDBRANCH   1   9
BRANCH   1  19
ATOM     19  O   UNL     1      35.651 -19.033 -20.492  0.00  0.00    -0.429 OA
BRANCH  19  22
ATOM     20  O   UNL     1      35.852 -18.032 -22.538  0.00  0.00    -0.226 OA
ATOM     21  N   UNL     1      34.754 -16.992 -20.751  0.00  0.00    -0.250 N 
ATOM     22  C   UNL     1      35.453 -18.004 -21.380  0.00  0.00    +0.406 C 
ATOM     23  H   UNL     1      34.516 -17.153 -19.808  0.00  0.00    +0.158 HD
BRANCH  21  24
ATOM     24  C   UNL     1      34.338 -15.754 -21.292  0.00  0.00    +0.053 C 
ATOM     25  C   UNL     1      33.856 -14.752 -20.449  0.00  0.00    +0.015 C 
ATOM     26  C   UNL     1      34.408 -15.535 -22.667  0.00  0.00    +0.015 C 
ATOM     27  C   UNL     1      33.515 -13.312 -22.359  0.00  0.00    +0.055 C 
ATOM     28  C   UNL     1      33.445 -13.531 -20.982  0.00  0.00    +0.006 C 
ATOM     29  C   UNL     1      33.997 -14.314 -23.201  0.00  0.00    +0.006 C 
BRANCH  27  32
ATOM     30  O   UNL     1      33.632 -11.569 -23.929  0.00  0.00    -0.268 OA
ATOM     31  N   UNL     1      32.058 -11.376 -22.258  0.00  0.00    -0.193 N 
ATOM     32  C   UNL     1      33.085 -12.038 -22.914  0.00  0.00    +0.268 C 
ATOM     33  H   UNL     1      31.630 -11.754 -21.455  0.00  0.00    +0.183 HD
BRANCH  31  34
ATOM     34  O   UNL     1      31.657 -10.142 -22.791  0.00  0.00    -0.295 OA
ATOM     35  H   UNL     1      31.232 -10.284 -23.651  0.00  0.00    +0.241 HD
ENDBRANCH  31  34
ENDBRANCH  27  32
ENDBRANCH  21  24
ENDBRANCH  19  22
ENDBRANCH   1  19
TORSDOF 10
ENDMDL
MODEL 3
REMARK VINA RESULT:     -12.6      2.942      4.242
REMARK  Name = 9804992
REMARK  10 active torsions:
REMARK  status: ('A' for Active; 'I' for Inactive)
REMARK    1  A    between atoms: C_1  and  C_9
REMARK    2  A    between atoms: C_1  and  O_19
REMARK    3  A    between atoms: C_2  and  C_12
REMARK    4  A    between atoms: C_12  and  N_13
REMARK    5  A    between atoms: N_13  and  C_15
REMARK    6  A    between atoms: N_13  and  C_17
REMARK    7  A    between atoms: O_19  and  C_22
REMARK    8  A    between atoms: N_21  and  C_24
REMARK    9  A    between atoms: C_27  and  C_32
REMARK   10  A    between atoms: N_31  and  O_34
REMARK                            x       y       z     vdW  Elec       q    Type
REMARK                         _______ _______ _______ _____ _____    ______ ____
ROOT
ATOM      1  C   UNL     1      35.874 -20.581 -20.306  0.00  0.00    +0.237 C 
ENDROOT
BRANCH   1   9
ATOM      2  C   UNL     1      31.504 -22.699 -15.959  0.00  0.00    -0.043 C 
ATOM      3  C   UNL     1      32.444 -21.658 -17.946  0.00  0.00    -0.000 C 
ATOM      4  C   UNL     1      33.744 -21.996 -17.501  0.00  0.00    -0.000 C 
ATOM      5  C   UNL     1      31.334 -22.016 -17.164  0.00  0.00    -0.006 C 
ATOM      6  C   UNL     1      32.782 -23.032 -15.521  0.00  0.00    -0.006 C 
ATOM      7  C   UNL     1      33.895 -22.684 -16.285  0.00  0.00    -0.000 C 
ATOM      8  C   UNL     1      34.853 -21.638 -18.283  0.00  0.00    -0.001 C 
ATOM      9  C   UNL     1      34.684 -20.954 -19.488  0.00  0.00    +0.021 C 
ATOM     10  C   UNL     1      32.292 -20.970 -19.161  0.00  0.00    -0.000 C 
ATOM     11  C   UNL     1      33.406 -20.622 -19.927  0.00  0.00    -0.001 C 
BRANCH   2  12
ATOM     12  C   UNL     1      30.314 -23.071 -15.140  0.00  0.00    -0.050 C 
BRANCH  12  13
ATOM     13  N   UNL     1      29.639 -24.266 -15.649  0.00  0.00    +0.390 N 
ATOM     14  H   UNL     1      30.160 -24.615 -16.453  0.00  0.00    -0.079 HD
BRANCH  13  15
ATOM     15  C   UNL     1      29.614 -25.311 -14.627  0.00  0.00    -0.077 C 
ATOM     16  C   UNL     1      29.992 -24.756 -13.265  0.00  0.00    -0.025 C 
ENDBRANCH  13  15
BRANCH  13  17
ATOM     17  C   UNL     1      28.282 -23.940 -16.082  0.00  0.00    -0.077 C 
ATOM     18  C   UNL     1      27.891 -22.536 -15.653  0.00  0.00    -0.025 C 
ENDBRANCH  13  17
ENDBRANCH  12  13
ENDBRANCH   2  12
ENDBRANCH   1   9
BRANCH   1  19
ATOM     19  O   UNL     1      36.264 -19.250 -19.994  0.00  0.00    -0.429 OA
BRANCH  19  22
ATOM     20  O   UNL     1      37.017 -18.246 -21.906  0.00  0.00    -0.226 OA
ATOM     21  N   UNL     1      35.038 -17.576 -20.850  0.00  0.00    -0.250 N 
ATOM     22  C   UNL     1      36.181 -18.333 -21.014  0.00  0.00    +0.406 C 
ATOM     23  H   UNL     1      34.483 -17.796 -20.065  0.00  0.00    +0.158 HD
BRANCH  21  24
ATOM     24  C   UNL     1      34.565 -16.524 -21.667  0.00  0.00    +0.053 C 
ATOM     25  C   UNL     1      34.201 -15.305 -21.093  0.00  0.00    +0.015 C 
ATOM     26  C   UNL     1      34.462 -16.705 -23.046  0.00  0.00    +0.015 C 
ATOM     27  C   UNL     1      33.630 -14.449 -23.280  0.00  0.00    +0.055 C 
ATOM     28  C   UNL     1      33.733 -14.268 -21.900  0.00  0.00    +0.006 C 
ATOM     29  C   UNL     1      33.994 -15.667 -23.853  0.00  0.00    +0.006 C 
BRANCH  27  32
ATOM     30  O   UNL     1      33.083 -12.201 -23.687  0.00  0.00    -0.268 OA
ATOM     31  N   UNL     1      32.739 -13.696 -25.406  0.00  0.00    -0.193 N 
ATOM     32  C   UNL     1      33.142 -13.367 -24.120  0.00  0.00    +0.268 C 
ATOM     33  H   UNL     1      32.790 -14.621 -25.741  0.00  0.00    +0.183 HD
BRANCH  31  34
ATOM     34  O   UNL     1      32.258 -12.651 -26.206  0.00  0.00    -0.295 OA
ATOM     35  H   UNL     1      31.817 -11.991 -25.648  0.00  0.00    +0.241 HD
ENDBRANCH  31  34
ENDBRANCH  27  32
ENDBRANCH  21  24
ENDBRANCH  19  22
ENDBRANCH   1  19
TORSDOF 10
ENDMDL
MODEL 4
REMARK VINA RESULT:     -12.6      3.777     11.810
REMARK  Name = 9804992
REMARK  10 active torsions:
REMARK  status: ('A' for Active; 'I' for Inactive)
REMARK    1  A    between atoms: C_1  and  C_9
REMARK    2  A    between atoms: C_1  and  O_19
REMARK    3  A    between atoms: C_2  and  C_12
REMARK    4  A    between atoms: C_12  and  N_13
REMARK    5  A    between atoms: N_13  and  C_15
REMARK    6  A    between atoms: N_13  and  C_17
REMARK    7  A    between atoms: O_19  and  C_22
REMARK    8  A    between atoms: N_21  and  C_24
REMARK    9  A    between atoms: C_27  and  C_32
REMARK   10  A    between atoms: N_31  and  O_34
REMARK                            x       y       z     vdW  Elec       q    Type
REMARK                         _______ _______ _______ _____ _____    ______ ____
ROOT
ATOM      1  C   UNL     1      34.777 -17.972 -23.164  0.00  0.00    +0.237 C 
ENDROOT
BRANCH   1   9
ATOM      2  C   UNL     1      32.835 -11.750 -23.130  0.00  0.00    -0.043 C 
ATOM      3  C   UNL     1      33.284 -14.008 -23.914  0.00  0.00    -0.000 C 
ATOM      4  C   UNL     1      33.808 -14.338 -22.641  0.00  0.00    -0.000 C 
ATOM      5  C   UNL     1      32.801 -12.710 -24.142  0.00  0.00    -0.006 C 
ATOM      6  C   UNL     1      33.349 -12.075 -21.879  0.00  0.00    -0.006 C 
ATOM      7  C   UNL     1      33.833 -13.359 -21.634  0.00  0.00    -0.000 C 
ATOM      8  C   UNL     1      34.291 -15.637 -22.413  0.00  0.00    -0.001 C 
ATOM      9  C   UNL     1      34.259 -16.597 -23.425  0.00  0.00    +0.021 C 
ATOM     10  C   UNL     1      33.259 -14.987 -24.921  0.00  0.00    -0.000 C 
ATOM     11  C   UNL     1      33.744 -16.273 -24.676  0.00  0.00    -0.001 C 
BRANCH   2  12
ATOM     12  C   UNL     1      32.317 -10.375 -23.391  0.00  0.00    -0.050 C 
BRANCH  12  13
ATOM     13  N   UNL     1      32.087  -9.624 -22.156  0.00  0.00    +0.390 N 
ATOM     14  H   UNL     1      32.820  -9.864 -21.489  0.00  0.00    -0.079 HD
BRANCH  13  15
ATOM     15  C   UNL     1      32.152  -8.186 -22.416  0.00  0.00    -0.077 C 
ATOM     16  C   UNL     1      33.438  -7.815 -23.135  0.00  0.00    -0.025 C 
ENDBRANCH  13  15
BRANCH  13  17
ATOM     17  C   UNL     1      30.795  -9.981 -21.575  0.00  0.00    -0.077 C 
ATOM     18  C   UNL     1      30.771  -9.708 -20.080  0.00  0.00    -0.025 C 
ENDBRANCH  13  17
ENDBRANCH  12  13
ENDBRANCH   2  12
ENDBRANCH   1   9
BRANCH   1  19
ATOM     19  O   UNL     1      35.922 -17.894 -22.325  0.00  0.00    -0.429 OA
BRANCH  19  22
ATOM     20  O   UNL     1      36.584 -18.274 -20.169  0.00  0.00    -0.226 OA
ATOM     21  N   UNL     1      34.780 -19.413 -21.132  0.00  0.00    -0.250 N 
ATOM     22  C   UNL     1      35.829 -18.516 -21.104  0.00  0.00    +0.406 C 
ATOM     23  H   UNL     1      34.282 -19.469 -21.981  0.00  0.00    +0.158 HD
BRANCH  21  24
ATOM     24  C   UNL     1      34.331 -20.262 -20.095  0.00  0.00    +0.053 C 
ATOM     25  C   UNL     1      32.964 -20.399 -19.849  0.00  0.00    +0.015 C 
ATOM     26  C   UNL     1      35.253 -20.960 -19.316  0.00  0.00    +0.015 C 
ATOM     27  C   UNL     1      33.444 -21.934 -18.046  0.00  0.00    +0.055 C 
ATOM     28  C   UNL     1      32.521 -21.235 -18.825  0.00  0.00    +0.006 C 
ATOM     29  C   UNL     1      34.810 -21.796 -18.292  0.00  0.00    +0.006 C 
BRANCH  27  32
ATOM     30  O   UNL     1      33.749 -23.632 -16.452  0.00  0.00    -0.268 OA
ATOM     31  N   UNL     1      31.656 -22.680 -16.588  0.00  0.00    -0.193 N 
ATOM     32  C   UNL     1      32.981 -22.805 -16.978  0.00  0.00    +0.268 C 
ATOM     33  H   UNL     1      31.054 -22.023 -17.009  0.00  0.00    +0.183 HD
BRANCH  31  34
ATOM     34  O   UNL     1      31.212 -23.532 -15.566  0.00  0.00    -0.295 OA
ATOM     35  H   UNL     1      31.977 -23.920 -15.113  0.00  0.00    +0.241 HD
ENDBRANCH  31  34
ENDBRANCH  27  32
ENDBRANCH  21  24
ENDBRANCH  19  22
ENDBRANCH   1  19
TORSDOF 10
ENDMDL
MODEL 5
REMARK VINA RESULT:     -12.5      0.920      1.626
REMARK  Name = 9804992
REMARK  10 active torsions:
REMARK  status: ('A' for Active; 'I' for Inactive)
REMARK    1  A    between atoms: C_1  and  C_9
REMARK    2  A    between atoms: C_1  and  O_19
REMARK    3  A    between atoms: C_2  and  C_12
REMARK    4  A    between atoms: C_12  and  N_13
REMARK    5  A    between atoms: N_13  and  C_15
REMARK    6  A    between atoms: N_13  and  C_17
REMARK    7  A    between atoms: O_19  and  C_22
REMARK    8  A    between atoms: N_21  and  C_24
REMARK    9  A    between atoms: C_27  and  C_32
REMARK   10  A    between atoms: N_31  and  O_34
REMARK                            x       y       z     vdW  Elec       q    Type
REMARK                         _______ _______ _______ _____ _____    ______ ____
ROOT
ATOM      1  C   UNL     1      34.868 -20.911 -20.014  0.00  0.00    +0.237 C 
ENDROOT
BRANCH   1   9
ATOM      2  C   UNL     1      34.569 -23.347 -13.976  0.00  0.00    -0.043 C 
ATOM      3  C   UNL     1      35.439 -22.262 -15.971  0.00  0.00    -0.000 C 
ATOM      4  C   UNL     1      34.196 -22.464 -16.616  0.00  0.00    -0.000 C 
ATOM      5  C   UNL     1      35.609 -22.709 -14.651  0.00  0.00    -0.006 C 
ATOM      6  C   UNL     1      33.346 -23.546 -14.610  0.00  0.00    -0.006 C 
ATOM      7  C   UNL     1      33.159 -23.108 -15.921  0.00  0.00    -0.000 C 
ATOM      8  C   UNL     1      34.026 -22.017 -17.936  0.00  0.00    -0.001 C 
ATOM      9  C   UNL     1      35.067 -21.379 -18.612  0.00  0.00    +0.021 C 
ATOM     10  C   UNL     1      36.476 -21.618 -16.666  0.00  0.00    -0.000 C 
ATOM     11  C   UNL     1      36.289 -21.179 -17.978  0.00  0.00    -0.001 C 
BRANCH   2  12
ATOM     12  C   UNL     1      34.767 -23.816 -12.574  0.00  0.00    -0.050 C 
BRANCH  12  13
ATOM     13  N   UNL     1      36.182 -23.921 -12.216  0.00  0.00    +0.390 N 
ATOM     14  H   UNL     1      36.724 -23.351 -12.865  0.00  0.00    -0.079 HD
BRANCH  13  15
ATOM     15  C   UNL     1      36.404 -23.416 -10.862  0.00  0.00    -0.077 C 
ATOM     16  C   UNL     1      35.298 -23.864  -9.921  0.00  0.00    -0.025 C 
ENDBRANCH  13  15
BRANCH  13  17
ATOM     17  C   UNL     1      36.635 -25.306 -12.328  0.00  0.00    -0.077 C 
ATOM     18  C   UNL     1      37.989 -25.388 -13.013  0.00  0.00    -0.025 C 
ENDBRANCH  13  17
ENDBRANCH  12  13
ENDBRANCH   2  12
ENDBRANCH   1   9
BRANCH   1  19
ATOM     19  O   UNL     1      35.333 -19.573 -20.136  0.00  0.00    -0.429 OA
BRANCH  19  22
ATOM     20  O   UNL     1      33.728 -19.156 -21.711  0.00  0.00    -0.226 OA
ATOM     21  N   UNL     1      35.065 -17.452 -20.821  0.00  0.00    -0.250 N 
ATOM     22  C   UNL     1      34.617 -18.750 -20.971  0.00  0.00    +0.406 C 
ATOM     23  H   UNL     1      35.794 -17.320 -20.171  0.00  0.00    +0.158 HD
BRANCH  21  24
ATOM     24  C   UNL     1      34.608 -16.291 -21.484  0.00  0.00    +0.053 C 
ATOM     25  C   UNL     1      34.700 -16.200 -22.874  0.00  0.00    +0.015 C 
ATOM     26  C   UNL     1      34.066 -15.236 -20.750  0.00  0.00    +0.015 C 
ATOM     27  C   UNL     1      33.708 -13.998 -22.794  0.00  0.00    +0.055 C 
ATOM     28  C   UNL     1      34.250 -15.053 -23.528  0.00  0.00    +0.006 C 
ATOM     29  C   UNL     1      33.616 -14.089 -21.405  0.00  0.00    +0.006 C 
BRANCH  27  32
ATOM     30  O   UNL     1      32.828 -12.860 -24.650  0.00  0.00    -0.268 OA
ATOM     31  N   UNL     1      33.284 -11.611 -22.769  0.00  0.00    -0.193 N 
ATOM     32  C   UNL     1      33.239 -12.803 -23.477  0.00  0.00    +0.268 C 
ATOM     33  H   UNL     1      33.610 -11.574 -21.840  0.00  0.00    +0.183 HD
BRANCH  31  34
ATOM     34  O   UNL     1      32.842 -10.460 -23.437  0.00  0.00    -0.295 OA
ATOM     35  H   UNL     1      31.877 -10.486 -23.526  0.00  0.00    +0.241 HD
ENDBRANCH  31  34
ENDBRANCH  27  32
ENDBRANCH  21  24
ENDBRANCH  19  22
ENDBRANCH   1  19
TORSDOF 10
ENDMDL
MODEL 6
REMARK VINA RESULT:     -12.3      3.866     12.188
REMARK  Name = 9804992
REMARK  10 active torsions:
REMARK  status: ('A' for Active; 'I' for Inactive)
REMARK    1  A    between atoms: C_1  and  C_9
REMARK    2  A    between atoms: C_1  and  O_19
REMARK    3  A    between atoms: C_2  and  C_12
REMARK    4  A    between atoms: C_12  and  N_13
REMARK    5  A    between atoms: N_13  and  C_15
REMARK    6  A    between atoms: N_13  and  C_17
REMARK    7  A    between atoms: O_19  and  C_22
REMARK    8  A    between atoms: N_21  and  C_24
REMARK    9  A    between atoms: C_27  and  C_32
REMARK   10  A    between atoms: N_31  and  O_34
REMARK                            x       y       z     vdW  Elec       q    Type
REMARK                         _______ _______ _______ _____ _____    ______ ____
ROOT
ATOM      1  C   UNL     1      34.976 -16.222 -22.516  0.00  0.00    +0.237 C 
ENDROOT
BRANCH   1   9
ATOM      2  C   UNL     1      31.362 -10.890 -21.520  0.00  0.00    -0.043 C 
ATOM      3  C   UNL     1      32.661 -12.601 -22.662  0.00  0.00    -0.000 C 
ATOM      4  C   UNL     1      32.874 -13.255 -21.425  0.00  0.00    -0.000 C 
ATOM      5  C   UNL     1      31.903 -11.419 -22.692  0.00  0.00    -0.006 C 
ATOM      6  C   UNL     1      31.571 -11.534 -20.304  0.00  0.00    -0.006 C 
ATOM      7  C   UNL     1      32.321 -12.708 -20.255  0.00  0.00    -0.000 C 
ATOM      8  C   UNL     1      33.631 -14.437 -21.395  0.00  0.00    -0.001 C 
ATOM      9  C   UNL     1      34.173 -14.966 -22.567  0.00  0.00    +0.021 C 
ATOM     10  C   UNL     1      33.213 -13.148 -23.832  0.00  0.00    -0.000 C 
ATOM     11  C   UNL     1      33.963 -14.323 -23.783  0.00  0.00    -0.001 C 
BRANCH   2  12
ATOM     12  C   UNL     1      30.560  -9.634 -21.571  0.00  0.00    -0.050 C 
BRANCH  12  13
ATOM     13  N   UNL     1      31.398  -8.442 -21.705  0.00  0.00    +0.390 N 
ATOM     14  H   UNL     1      32.284  -8.715 -22.130  0.00  0.00    -0.079 HD
BRANCH  13  15
ATOM     15  C   UNL     1      30.752  -7.460 -22.575  0.00  0.00    -0.077 C 
ATOM     16  C   UNL     1      31.391  -7.441 -23.952  0.00  0.00    -0.025 C 
ENDBRANCH  13  15
BRANCH  13  17
ATOM     17  C   UNL     1      31.674  -7.862 -20.393  0.00  0.00    -0.077 C 
ATOM     18  C   UNL     1      32.548  -6.625 -20.511  0.00  0.00    -0.025 C 
ENDBRANCH  13  17
ENDBRANCH  12  13
ENDBRANCH   2  12
ENDBRANCH   1   9
BRANCH   1  19
ATOM     19  O   UNL     1      34.415 -17.179 -23.406  0.00  0.00    -0.429 OA
BRANCH  19  22
ATOM     20  O   UNL     1      34.166 -19.440 -23.638  0.00  0.00    -0.226 OA
ATOM     21  N   UNL     1      34.247 -18.411 -21.537  0.00  0.00    -0.250 N 
ATOM     22  C   UNL     1      34.264 -18.454 -22.917  0.00  0.00    +0.406 C 
ATOM     23  H   UNL     1      34.341 -17.517 -21.132  0.00  0.00    +0.158 HD
BRANCH  21  24
ATOM     24  C   UNL     1      34.113 -19.489 -20.634  0.00  0.00    +0.053 C 
ATOM     25  C   UNL     1      35.249 -20.086 -20.086  0.00  0.00    +0.015 C 
ATOM     26  C   UNL     1      32.845 -19.958 -20.291  0.00  0.00    +0.015 C 
ATOM     27  C   UNL     1      33.848 -21.620 -18.852  0.00  0.00    +0.055 C 
ATOM     28  C   UNL     1      35.117 -21.151 -19.195  0.00  0.00    +0.006 C 
ATOM     29  C   UNL     1      32.713 -21.024 -19.400  0.00  0.00    +0.006 C 
BRANCH  27  32
ATOM     30  O   UNL     1      33.107 -23.767 -18.256  0.00  0.00    -0.268 OA
ATOM     31  N   UNL     1      34.269 -22.575 -16.663  0.00  0.00    -0.193 N 
ATOM     32  C   UNL     1      33.711 -22.730 -17.924  0.00  0.00    +0.268 C 
ATOM     33  H   UNL     1      34.746 -21.751 -16.409  0.00  0.00    +0.183 HD
BRANCH  31  34
ATOM     34  O   UNL     1      34.122 -23.644 -15.769  0.00  0.00    -0.295 OA
ATOM     35  H   UNL     1      33.589 -24.341 -16.181  0.00  0.00    +0.241 HD
ENDBRANCH  31  34
ENDBRANCH  27  32
ENDBRANCH  21  24
ENDBRANCH  19  22
ENDBRANCH   1  19
TORSDOF 10
ENDMDL
MODEL 7
REMARK VINA RESULT:     -12.3      3.876     12.031
REMARK  Name = 9804992
REMARK  10 active torsions:
REMARK  status: ('A' for Active; 'I' for Inactive)
REMARK    1  A    between atoms: C_1  and  C_9
REMARK    2  A    between atoms: C_1  and  O_19
REMARK    3  A    between atoms: C_2  and  C_12
REMARK    4  A    between atoms: C_12  and  N_13
REMARK    5  A    between atoms: N_13  and  C_15
REMARK    6  A    between atoms: N_13  and  C_17
REMARK    7  A    between atoms: O_19  and  C_22
REMARK    8  A    between atoms: N_21  and  C_24
REMARK    9  A    between atoms: C_27  and  C_32
REMARK   10  A    between atoms: N_31  and  O_34
REMARK                            x       y       z     vdW  Elec       q    Type
REMARK                         _______ _______ _______ _____ _____    ______ ____
ROOT
ATOM      1  C   UNL     1      35.217 -16.397 -22.516  0.00  0.00    +0.237 C 
ENDROOT
BRANCH   1   9
ATOM      2  C   UNL     1      31.660 -10.964 -21.958  0.00  0.00    -0.043 C 
ATOM      3  C   UNL     1      32.744 -13.064 -21.386  0.00  0.00    -0.000 C 
ATOM      4  C   UNL     1      33.275 -13.139 -22.695  0.00  0.00    -0.000 C 
ATOM      5  C   UNL     1      31.938 -11.970 -21.033  0.00  0.00    -0.006 C 
ATOM      6  C   UNL     1      32.183 -11.037 -23.245  0.00  0.00    -0.006 C 
ATOM      7  C   UNL     1      32.985 -12.116 -23.613  0.00  0.00    -0.000 C 
ATOM      8  C   UNL     1      34.081 -14.233 -23.048  0.00  0.00    -0.001 C 
ATOM      9  C   UNL     1      34.359 -15.241 -22.123  0.00  0.00    +0.021 C 
ATOM     10  C   UNL     1      33.034 -14.087 -20.468  0.00  0.00    -0.000 C 
ATOM     11  C   UNL     1      33.837 -15.168 -20.835  0.00  0.00    -0.001 C 
BRANCH   2  12
ATOM     12  C   UNL     1      30.802  -9.808 -21.566  0.00  0.00    -0.050 C 
BRANCH  12  13
ATOM     13  N   UNL     1      31.509  -8.531 -21.662  0.00  0.00    +0.390 N 
ATOM     14  H   UNL     1      32.455  -8.708 -21.999  0.00  0.00    -0.079 HD
BRANCH  13  15
ATOM     15  C   UNL     1      30.838  -7.647 -22.614  0.00  0.00    -0.077 C 
ATOM     16  C   UNL     1      31.735  -7.332 -23.798  0.00  0.00    -0.025 C 
ENDBRANCH  13  15
BRANCH  13  17
ATOM     17  C   UNL     1      31.597  -7.897 -20.348  0.00  0.00    -0.077 C 
ATOM     18  C   UNL     1      31.262  -8.881 -19.240  0.00  0.00    -0.025 C 
ENDBRANCH  13  17
ENDBRANCH  12  13
ENDBRANCH   2  12
ENDBRANCH   1   9
BRANCH   1  19
ATOM     19  O   UNL     1      34.482 -17.260 -23.375  0.00  0.00    -0.429 OA
BRANCH  19  22
ATOM     20  O   UNL     1      33.744 -19.416 -23.564  0.00  0.00    -0.226 OA
ATOM     21  N   UNL     1      34.384 -18.501 -21.507  0.00  0.00    -0.250 N 
ATOM     22  C   UNL     1      34.160 -18.496 -22.869  0.00  0.00    +0.406 C 
ATOM     23  H   UNL     1      34.724 -17.659 -21.123  0.00  0.00    +0.158 HD
BRANCH  21  24
ATOM     24  C   UNL     1      34.187 -19.562 -20.595  0.00  0.00    +0.053 C 
ATOM     25  C   UNL     1      32.893 -19.973 -20.273  0.00  0.00    +0.015 C 
ATOM     26  C   UNL     1      35.285 -20.199 -20.017  0.00  0.00    +0.015 C 
ATOM     27  C   UNL     1      33.797 -21.657 -18.794  0.00  0.00    +0.055 C 
ATOM     28  C   UNL     1      32.698 -21.020 -19.372  0.00  0.00    +0.006 C 
ATOM     29  C   UNL     1      35.090 -21.246 -19.117  0.00  0.00    +0.006 C 
BRANCH  27  32
ATOM     30  O   UNL     1      33.066 -23.815 -18.223  0.00  0.00    -0.268 OA
ATOM     31  N   UNL     1      33.998 -22.540 -16.545  0.00  0.00    -0.193 N 
ATOM     32  C   UNL     1      33.593 -22.748 -17.855  0.00  0.00    +0.268 C 
ATOM     33  H   UNL     1      34.414 -21.693 -16.262  0.00  0.00    +0.183 HD
BRANCH  31  34
ATOM     34  O   UNL     1      33.786 -23.591 -15.642  0.00  0.00    -0.295 OA
ATOM     35  H   UNL     1      34.355 -23.471 -14.865  0.00  0.00    +0.241 HD
ENDBRANCH  31  34
ENDBRANCH  27  32
ENDBRANCH  21  24
ENDBRANCH  19  22
ENDBRANCH   1  19
TORSDOF 10
ENDMDL
MODEL 8
REMARK VINA RESULT:     -12.2      2.764      4.598
REMARK  Name = 9804992
REMARK  10 active torsions:
REMARK  status: ('A' for Active; 'I' for Inactive)
REMARK    1  A    between atoms: C_1  and  C_9
REMARK    2  A    between atoms: C_1  and  O_19
REMARK    3  A    between atoms: C_2  and  C_12
REMARK    4  A    between atoms: C_12  and  N_13
REMARK    5  A    between atoms: N_13  and  C_15
REMARK    6  A    between atoms: N_13  and  C_17
REMARK    7  A    between atoms: O_19  and  C_22
REMARK    8  A    between atoms: N_21  and  C_24
REMARK    9  A    between atoms: C_27  and  C_32
REMARK   10  A    between atoms: N_31  and  O_34
REMARK                            x       y       z     vdW  Elec       q    Type
REMARK                         _______ _______ _______ _____ _____    ______ ____
ROOT
ATOM      1  C   UNL     1      35.382 -16.968 -22.584  0.00  0.00    +0.237 C 
ENDROOT
BRANCH   1   9
ATOM      2  C   UNL     1      33.497 -21.850 -18.699  0.00  0.00    -0.043 C 
ATOM      3  C   UNL     1      34.931 -20.267 -19.861  0.00  0.00    -0.000 C 
ATOM      4  C   UNL     1      33.791 -19.696 -20.476  0.00  0.00    -0.000 C 
ATOM      5  C   UNL     1      34.767 -21.344 -18.975  0.00  0.00    -0.006 C 
ATOM      6  C   UNL     1      32.376 -21.288 -19.302  0.00  0.00    -0.006 C 
ATOM      7  C   UNL     1      32.520 -20.218 -20.185  0.00  0.00    -0.000 C 
ATOM      8  C   UNL     1      33.955 -18.619 -21.362  0.00  0.00    -0.001 C 
ATOM      9  C   UNL     1      35.226 -18.112 -21.639  0.00  0.00    +0.021 C 
ATOM     10  C   UNL     1      36.202 -19.744 -20.152  0.00  0.00    -0.000 C 
ATOM     11  C   UNL     1      36.347 -18.673 -21.035  0.00  0.00    -0.001 C 
BRANCH   2  12
ATOM     12  C   UNL     1      33.341 -22.995 -17.755  0.00  0.00    -0.050 C 
BRANCH  12  13
ATOM     13  N   UNL     1      32.957 -22.561 -16.411  0.00  0.00    +0.390 N 
ATOM     14  H   UNL     1      33.048 -21.547 -16.359  0.00  0.00    -0.079 HD
BRANCH  13  15
ATOM     15  C   UNL     1      31.563 -22.913 -16.141  0.00  0.00    -0.077 C 
ATOM     16  C   UNL     1      31.164 -22.528 -14.727  0.00  0.00    -0.025 C 
ENDBRANCH  13  15
BRANCH  13  17
ATOM     17  C   UNL     1      33.839 -23.157 -15.411  0.00  0.00    -0.077 C 
ATOM     18  C   UNL     1      35.257 -22.627 -15.542  0.00  0.00    -0.025 C 
ENDBRANCH  13  17
ENDBRANCH  12  13
ENDBRANCH   2  12
ENDBRANCH   1   9
BRANCH   1  19
ATOM     19  O   UNL     1      34.408 -17.070 -23.614  0.00  0.00    -0.429 OA
BRANCH  19  22
ATOM     20  O   UNL     1      33.108 -15.765 -24.970  0.00  0.00    -0.226 OA
ATOM     21  N   UNL     1      33.822 -15.039 -22.862  0.00  0.00    -0.250 N 
ATOM     22  C   UNL     1      33.713 -15.924 -23.916  0.00  0.00    +0.406 C 
ATOM     23  H   UNL     1      34.354 -15.347 -22.092  0.00  0.00    +0.158 HD
BRANCH  21  24
ATOM     24  C   UNL     1      33.264 -13.745 -22.750  0.00  0.00    +0.053 C 
ATOM     25  C   UNL     1      33.485 -12.801 -23.754  0.00  0.00    +0.015 C 
ATOM     26  C   UNL     1      32.493 -13.411 -21.637  0.00  0.00    +0.015 C 
ATOM     27  C   UNL     1      32.164 -11.191 -22.529  0.00  0.00    +0.055 C 
ATOM     28  C   UNL     1      32.936 -11.524 -23.644  0.00  0.00    +0.006 C 
ATOM     29  C   UNL     1      31.943 -12.134 -21.526  0.00  0.00    +0.006 C 
BRANCH  27  32
ATOM     30  O   UNL     1      30.465  -9.691 -21.913  0.00  0.00    -0.268 OA
ATOM     31  N   UNL     1      32.349  -8.801 -22.896  0.00  0.00    -0.193 N 
ATOM     32  C   UNL     1      31.592  -9.859 -22.415  0.00  0.00    +0.268 C 
ATOM     33  H   UNL     1      33.241  -8.942 -23.291  0.00  0.00    +0.183 HD
BRANCH  31  34
ATOM     34  O   UNL     1      31.786  -7.521 -22.795  0.00  0.00    -0.295 OA
ATOM     35  H   UNL     1      32.301  -6.897 -23.330  0.00  0.00    +0.241 HD
ENDBRANCH  31  34
ENDBRANCH  27  32
ENDBRANCH  21  24
ENDBRANCH  19  22
ENDBRANCH   1  19
TORSDOF 10
ENDMDL
MODEL 9
REMARK VINA RESULT:     -12.1      3.025     11.758
REMARK  Name = 9804992
REMARK  10 active torsions:
REMARK  status: ('A' for Active; 'I' for Inactive)
REMARK    1  A    between atoms: C_1  and  C_9
REMARK    2  A    between atoms: C_1  and  O_19
REMARK    3  A    between atoms: C_2  and  C_12
REMARK    4  A    between atoms: C_12  and  N_13
REMARK    5  A    between atoms: N_13  and  C_15
REMARK    6  A    between atoms: N_13  and  C_17
REMARK    7  A    between atoms: O_19  and  C_22
REMARK    8  A    between atoms: N_21  and  C_24
REMARK    9  A    between atoms: C_27  and  C_32
REMARK   10  A    between atoms: N_31  and  O_34
REMARK                            x       y       z     vdW  Elec       q    Type
REMARK                         _______ _______ _______ _____ _____    ______ ____
ROOT
ATOM      1  C   UNL     1      35.567 -17.712 -22.734  0.00  0.00    +0.237 C 
ENDROOT
BRANCH   1   9
ATOM      2  C   UNL     1      32.036 -12.283 -22.003  0.00  0.00    -0.043 C 
ATOM      3  C   UNL     1      33.140 -14.176 -23.057  0.00  0.00    -0.000 C 
ATOM      4  C   UNL     1      33.620 -14.592 -21.792  0.00  0.00    -0.000 C 
ATOM      5  C   UNL     1      32.349 -13.020 -23.145  0.00  0.00    -0.006 C 
ATOM      6  C   UNL     1      32.508 -12.692 -20.759  0.00  0.00    -0.006 C 
ATOM      7  C   UNL     1      33.294 -13.838 -20.653  0.00  0.00    -0.000 C 
ATOM      8  C   UNL     1      34.411 -15.749 -21.704  0.00  0.00    -0.001 C 
ATOM      9  C   UNL     1      34.725 -16.486 -22.847  0.00  0.00    +0.021 C 
ATOM     10  C   UNL     1      33.465 -14.930 -24.197  0.00  0.00    -0.000 C 
ATOM     11  C   UNL     1      34.253 -16.078 -24.091  0.00  0.00    -0.001 C 
BRANCH   2  12
ATOM     12  C   UNL     1      31.195 -11.056 -22.115  0.00  0.00    -0.050 C 
BRANCH  12  13
ATOM     13  N   UNL     1      31.721  -9.945 -21.322  0.00  0.00    +0.390 N 
ATOM     14  H   UNL     1      32.588 -10.245 -20.877  0.00  0.00    -0.079 HD
BRANCH  13  15
ATOM     15  C   UNL     1      32.018  -8.800 -22.183  0.00  0.00    -0.077 C 
ATOM     16  C   UNL     1      30.753  -8.249 -22.818  0.00  0.00    -0.025 C 
ENDBRANCH  13  15
BRANCH  13  17
ATOM     17  C   UNL     1      30.771  -9.568 -20.278  0.00  0.00    -0.077 C 
ATOM     18  C   UNL     1      31.401  -9.671 -18.899  0.00  0.00    -0.025 C 
ENDBRANCH  13  17
ENDBRANCH  12  13
ENDBRANCH   2  12
ENDBRANCH   1   9
BRANCH   1  19
ATOM     19  O   UNL     1      34.823 -18.739 -22.091  0.00  0.00    -0.429 OA
BRANCH  19  22
ATOM     20  O   UNL     1      36.120 -18.506 -20.222  0.00  0.00    -0.226 OA
ATOM     21  N   UNL     1      34.523 -20.206 -20.420  0.00  0.00    -0.250 N 
ATOM     22  C   UNL     1      35.243 -19.103 -20.835  0.00  0.00    +0.406 C 
ATOM     23  H   UNL     1      33.852 -20.548 -21.055  0.00  0.00    +0.158 HD
BRANCH  21  24
ATOM     24  C   UNL     1      34.630 -20.906 -19.196  0.00  0.00    +0.053 C 
ATOM     25  C   UNL     1      35.851 -20.950 -18.523  0.00  0.00    +0.015 C 
ATOM     26  C   UNL     1      33.515 -21.552 -18.662  0.00  0.00    +0.015 C 
ATOM     27  C   UNL     1      34.842 -22.288 -16.782  0.00  0.00    +0.055 C 
ATOM     28  C   UNL     1      35.957 -21.641 -17.316  0.00  0.00    +0.006 C 
ATOM     29  C   UNL     1      33.621 -22.243 -17.456  0.00  0.00    +0.006 C 
BRANCH  27  32
ATOM     30  O   UNL     1      35.366 -24.183 -15.497  0.00  0.00    -0.268 OA
ATOM     31  N   UNL     1      34.570 -22.336 -14.373  0.00  0.00    -0.193 N 
ATOM     32  C   UNL     1      34.953 -23.009 -15.524  0.00  0.00    +0.268 C 
ATOM     33  H   UNL     1      34.245 -21.406 -14.404  0.00  0.00    +0.183 HD
BRANCH  31  34
ATOM     34  O   UNL     1      34.668 -23.040 -13.165  0.00  0.00    -0.295 OA
ATOM     35  H   UNL     1      33.804 -23.048 -12.724  0.00  0.00    +0.241 HD
ENDBRANCH  31  34
ENDBRANCH  27  32
ENDBRANCH  21  24
ENDBRANCH  19  22
ENDBRANCH   1  19
TORSDOF 10
ENDMDL
