MODEL 1
REMARK VINA RESULT:     -10.8      0.000      0.000
REMARK  Name = 4369567
REMARK  5 active torsions:
REMARK  status: ('A' for Active; 'I' for Inactive)
REMARK    1  A    between atoms: C_1  and  C_14
REMARK    2  A    between atoms: C_4  and  O_12
REMARK    3  A    between atoms: C_14  and  C_15
REMARK    4  A    between atoms: C_15  and  C_18
REMARK    5  A    between atoms: C_20  and  O_23
REMARK                            x       y       z     vdW  Elec       q    Type
REMARK                         _______ _______ _______ _____ _____    ______ ____
ROOT
ATOM      1  C   UNL     1      34.506 -15.857 -22.219  0.00  0.00    +0.011 C 
ATOM      2  C   UNL     1      33.255 -14.941 -22.064  0.00  0.00    +0.049 C 
ATOM      3  C   UNL     1      34.491 -16.602 -23.586  0.00  0.00    +0.022 C 
ATOM      4  C   UNL     1      33.203 -14.193 -20.710  0.00  0.00    +0.115 C 
ATOM      5  C   UNL     1      33.145 -13.978 -23.245  0.00  0.00    -0.025 C 
ATOM      6  C   UNL     1      32.067 -13.169 -20.696  0.00  0.00    +0.034 C 
ATOM      7  C   UNL     1      34.168 -15.656 -24.715  0.00  0.00    -0.027 C 
ATOM      8  C   UNL     1      32.220 -12.135 -21.810  0.00  0.00    +0.028 C 
ATOM      9  C   UNL     1      33.574 -14.467 -24.542  0.00  0.00    -0.009 C 
ATOM     10  C   UNL     1      32.681 -12.723 -23.109  0.00  0.00    -0.030 C 
ATOM     11  C   UNL     1      33.536 -17.798 -23.654  0.00  0.00    +0.005 C 
ENDROOT
BRANCH   4  12
ATOM     12  O   UNL     1      34.421 -13.495 -20.447  0.00  0.00    -0.384 OA
ATOM     13  H   UNL     1      34.249 -12.764 -19.834  0.00  0.00    +0.210 HD
ENDBRANCH   4  12
BRANCH   1  14
ATOM     14  C   UNL     1      34.670 -16.840 -21.053  0.00  0.00    +0.004 C 
BRANCH  14  15
ATOM     15  C   UNL     1      35.762 -17.859 -21.348  0.00  0.00    +0.044 C 
BRANCH  15  18
ATOM     16  O   UNL     1      33.956 -19.182 -20.497  0.00  0.00    -0.452 OA
ATOM     17  O   UNL     1      32.240 -20.276 -19.502  0.00  0.00    -0.250 OA
ATOM     18  C   UNL     1      35.333 -19.257 -20.929  0.00  0.00    +0.171 C 
ATOM     19  C   UNL     1      36.185 -19.782 -19.780  0.00  0.00    +0.073 C 
ATOM     20  C   UNL     1      35.685 -21.150 -19.315  0.00  0.00    +0.125 C 
ATOM     21  C   UNL     1      34.290 -21.486 -19.832  0.00  0.00    +0.139 C 
ATOM     22  C   UNL     1      33.400 -20.271 -19.901  0.00  0.00    +0.319 C 
BRANCH  20  23
ATOM     23  O   UNL     1      35.670 -21.190 -17.889  0.00  0.00    -0.384 OA
ATOM     24  H   UNL     1      35.260 -20.380 -17.547  0.00  0.00    +0.210 HD
ENDBRANCH  20  23
ENDBRANCH  15  18
ENDBRANCH  14  15
ENDBRANCH   1  14
TORSDOF 5
ENDMDL
MODEL 2
REMARK VINA RESULT:     -10.1      3.138      8.170
REMARK  Name = 4369567
REMARK  5 active torsions:
REMARK  status: ('A' for Active; 'I' for Inactive)
REMARK    1  A    between atoms: C_1  and  C_14
REMARK    2  A    between atoms: C_4  and  O_12
REMARK    3  A    between atoms: C_14  and  C_15
REMARK    4  A    between atoms: C_15  and  C_18
REMARK    5  A    between atoms: C_20  and  O_23
REMARK                            x       y       z     vdW  Elec       q    Type
REMARK                         _______ _______ _______ _____ _____    ______ ____
ROOT
ATOM      1  C   UNL     1      34.359 -21.560 -17.862  0.00  0.00    +0.011 C 
ATOM      2  C   UNL     1      35.361 -22.327 -16.950  0.00  0.00    +0.049 C 
ATOM      3  C   UNL     1      33.014 -22.335 -17.996  0.00  0.00    +0.022 C 
ATOM      4  C   UNL     1      36.728 -21.615 -16.800  0.00  0.00    +0.115 C 
ATOM      5  C   UNL     1      34.730 -22.627 -15.592  0.00  0.00    -0.025 C 
ATOM      6  C   UNL     1      37.592 -22.308 -15.747  0.00  0.00    +0.034 C 
ATOM      7  C   UNL     1      32.523 -22.804 -16.649  0.00  0.00    -0.027 C 
ATOM      8  C   UNL     1      36.911 -22.332 -14.379  0.00  0.00    +0.028 C 
ATOM      9  C   UNL     1      33.308 -22.915 -15.569  0.00  0.00    -0.009 C 
ATOM     10  C   UNL     1      35.442 -22.622 -14.451  0.00  0.00    -0.030 C 
ATOM     11  C   UNL     1      33.057 -23.531 -18.952  0.00  0.00    +0.005 C 
ENDROOT
BRANCH   4  12
ATOM     12  O   UNL     1      36.570 -20.252 -16.406  0.00  0.00    -0.384 OA
ATOM     13  H   UNL     1      36.783 -20.161 -15.464  0.00  0.00    +0.210 HD
ENDBRANCH   4  12
BRANCH   1  14
ATOM     14  C   UNL     1      34.945 -21.226 -19.240  0.00  0.00    +0.004 C 
BRANCH  14  15
ATOM     15  C   UNL     1      33.887 -20.618 -20.150  0.00  0.00    +0.044 C 
BRANCH  15  18
ATOM     16  O   UNL     1      33.872 -19.183 -22.068  0.00  0.00    -0.452 OA
ATOM     17  O   UNL     1      33.955 -18.016 -24.008  0.00  0.00    -0.250 OA
ATOM     18  C   UNL     1      34.350 -19.280 -20.709  0.00  0.00    +0.171 C 
ATOM     19  C   UNL     1      35.870 -19.172 -20.709  0.00  0.00    +0.073 C 
ATOM     20  C   UNL     1      36.320 -17.860 -21.352  0.00  0.00    +0.125 C 
ATOM     21  C   UNL     1      35.213 -17.169 -22.143  0.00  0.00    +0.139 C 
ATOM     22  C   UNL     1      34.312 -18.156 -22.843  0.00  0.00    +0.319 C 
BRANCH  20  23
ATOM     23  O   UNL     1      37.421 -18.112 -22.224  0.00  0.00    -0.384 OA
ATOM     24  H   UNL     1      37.499 -17.388 -22.864  0.00  0.00    +0.210 HD
ENDBRANCH  20  23
ENDBRANCH  15  18
ENDBRANCH  14  15
ENDBRANCH   1  14
TORSDOF 5
ENDMDL
MODEL 3
REMARK VINA RESULT:      -9.8      6.005      9.234
REMARK  Name = 4369567
REMARK  5 active torsions:
REMARK  status: ('A' for Active; 'I' for Inactive)
REMARK    1  A    between atoms: C_1  and  C_14
REMARK    2  A    between atoms: C_4  and  O_12
REMARK    3  A    between atoms: C_14  and  C_15
REMARK    4  A    between atoms: C_15  and  C_18
REMARK    5  A    between atoms: C_20  and  O_23
REMARK                            x       y       z     vdW  Elec       q    Type
REMARK                         _______ _______ _______ _____ _____    ______ ____
ROOT
ATOM      1  C   UNL     1      34.391 -22.438 -15.627  0.00  0.00    +0.011 C 
ATOM      2  C   UNL     1      34.654 -22.584 -17.156  0.00  0.00    +0.049 C 
ATOM      3  C   UNL     1      35.723 -22.483 -14.821  0.00  0.00    +0.022 C 
ATOM      4  C   UNL     1      33.361 -22.571 -18.007  0.00  0.00    +0.115 C 
ATOM      5  C   UNL     1      35.653 -21.531 -17.632  0.00  0.00    -0.025 C 
ATOM      6  C   UNL     1      33.691 -22.521 -19.499  0.00  0.00    +0.034 C 
ATOM      7  C   UNL     1      36.765 -21.588 -15.445  0.00  0.00    -0.027 C 
ATOM      8  C   UNL     1      34.514 -21.284 -19.858  0.00  0.00    +0.028 C 
ATOM      9  C   UNL     1      36.710 -21.154 -16.711  0.00  0.00    -0.009 C 
ATOM     10  C   UNL     1      35.572 -20.959 -18.846  0.00  0.00    -0.030 C 
ATOM     11  C   UNL     1      36.317 -23.884 -14.643  0.00  0.00    +0.005 C 
ENDROOT
BRANCH   4  12
ATOM     12  O   UNL     1      32.543 -21.441 -17.704  0.00  0.00    -0.384 OA
ATOM     13  H   UNL     1      31.632 -21.616 -17.986  0.00  0.00    +0.210 HD
ENDBRANCH   4  12
BRANCH   1  14
ATOM     14  C   UNL     1      33.387 -23.468 -15.096  0.00  0.00    +0.004 C 
BRANCH  14  15
ATOM     15  C   UNL     1      32.186 -22.781 -14.459  0.00  0.00    +0.044 C 
BRANCH  15  18
ATOM     16  O   UNL     1      29.911 -22.236 -14.971  0.00  0.00    -0.452 OA
ATOM     17  O   UNL     1      27.733 -21.661 -15.217  0.00  0.00    -0.250 OA
ATOM     18  C   UNL     1      30.883 -23.300 -15.050  0.00  0.00    +0.171 C 
ATOM     19  C   UNL     1      30.361 -24.506 -14.277  0.00  0.00    +0.073 C 
ATOM     20  C   UNL     1      29.011 -24.960 -14.829  0.00  0.00    +0.125 C 
ATOM     21  C   UNL     1      28.354 -23.924 -15.736  0.00  0.00    +0.139 C 
ATOM     22  C   UNL     1      28.614 -22.514 -15.270  0.00  0.00    +0.319 C 
BRANCH  20  23
ATOM     23  O   UNL     1      28.129 -25.251 -13.746  0.00  0.00    -0.384 OA
ATOM     24  H   UNL     1      28.614 -25.725 -13.052  0.00  0.00    +0.210 HD
ENDBRANCH  20  23
ENDBRANCH  15  18
ENDBRANCH  14  15
ENDBRANCH   1  14
TORSDOF 5
ENDMDL
MODEL 4
REMARK VINA RESULT:      -9.5      7.131      9.836
REMARK  Name = 4369567
REMARK  5 active torsions:
REMARK  status: ('A' for Active; 'I' for Inactive)
REMARK    1  A    between atoms: C_1  and  C_14
REMARK    2  A    between atoms: C_4  and  O_12
REMARK    3  A    between atoms: C_14  and  C_15
REMARK    4  A    between atoms: C_15  and  C_18
REMARK    5  A    between atoms: C_20  and  O_23
REMARK                            x       y       z     vdW  Elec       q    Type
REMARK                         _______ _______ _______ _____ _____    ______ ____
ROOT
ATOM      1  C   UNL     1      33.839 -23.147 -15.021  0.00  0.00    +0.011 C 
ATOM      2  C   UNL     1      34.448 -21.981 -15.855  0.00  0.00    +0.049 C 
ATOM      3  C   UNL     1      32.287 -23.175 -15.145  0.00  0.00    +0.022 C 
ATOM      4  C   UNL     1      35.990 -21.887 -15.749  0.00  0.00    +0.115 C 
ATOM      5  C   UNL     1      33.988 -22.063 -17.309  0.00  0.00    -0.025 C 
ATOM      6  C   UNL     1      36.543 -20.857 -16.734  0.00  0.00    +0.034 C 
ATOM      7  C   UNL     1      31.856 -23.040 -16.584  0.00  0.00    -0.027 C 
ATOM      8  C   UNL     1      36.182 -21.201 -18.178  0.00  0.00    +0.028 C 
ATOM      9  C   UNL     1      32.642 -22.550 -17.552  0.00  0.00    -0.009 C 
ATOM     10  C   UNL     1      34.781 -21.710 -18.336  0.00  0.00    -0.030 C 
ATOM     11  C   UNL     1      31.557 -22.120 -14.309  0.00  0.00    +0.005 C 
ENDROOT
BRANCH   4  12
ATOM     12  O   UNL     1      36.614 -23.140 -16.032  0.00  0.00    -0.384 OA
ATOM     13  H   UNL     1      35.973 -23.856 -15.907  0.00  0.00    +0.210 HD
ENDBRANCH   4  12
BRANCH   1  14
ATOM     14  C   UNL     1      34.276 -23.118 -13.551  0.00  0.00    +0.004 C 
BRANCH  14  15
ATOM     15  C   UNL     1      34.308 -24.521 -12.963  0.00  0.00    +0.044 C 
BRANCH  15  18
ATOM     16  O   UNL     1      36.557 -23.933 -12.386  0.00  0.00    -0.452 OA
ATOM     17  O   UNL     1      38.666 -23.197 -12.008  0.00  0.00    -0.250 OA
ATOM     18  C   UNL     1      35.737 -25.031 -12.843  0.00  0.00    +0.171 C 
ATOM     19  C   UNL     1      36.270 -25.521 -14.184  0.00  0.00    +0.073 C 
ATOM     20  C   UNL     1      37.732 -25.948 -14.063  0.00  0.00    +0.125 C 
ATOM     21  C   UNL     1      38.397 -25.456 -12.781  0.00  0.00    +0.139 C 
ATOM     22  C   UNL     1      37.908 -24.089 -12.375  0.00  0.00    +0.319 C 
BRANCH  20  23
ATOM     23  O   UNL     1      38.465 -25.452 -15.182  0.00  0.00    -0.384 OA
ATOM     24  H   UNL     1      38.421 -26.093 -15.908  0.00  0.00    +0.210 HD
ENDBRANCH  20  23
ENDBRANCH  15  18
ENDBRANCH  14  15
ENDBRANCH   1  14
TORSDOF 5
ENDMDL
MODEL 5
REMARK VINA RESULT:      -9.5      8.180     10.421
REMARK  Name = 4369567
REMARK  5 active torsions:
REMARK  status: ('A' for Active; 'I' for Inactive)
REMARK    1  A    between atoms: C_1  and  C_14
REMARK    2  A    between atoms: C_4  and  O_12
REMARK    3  A    between atoms: C_14  and  C_15
REMARK    4  A    between atoms: C_15  and  C_18
REMARK    5  A    between atoms: C_20  and  O_23
REMARK                            x       y       z     vdW  Elec       q    Type
REMARK                         _______ _______ _______ _____ _____    ______ ____
ROOT
ATOM      1  C   UNL     1      33.348 -22.792 -15.666  0.00  0.00    +0.011 C 
ATOM      2  C   UNL     1      32.210 -23.682 -15.084  0.00  0.00    +0.049 C 
ATOM      3  C   UNL     1      33.070 -22.428 -17.155  0.00  0.00    +0.022 C 
ATOM      4  C   UNL     1      32.444 -24.097 -13.611  0.00  0.00    +0.115 C 
ATOM      5  C   UNL     1      30.852 -23.009 -15.271  0.00  0.00    -0.025 C 
ATOM      6  C   UNL     1      31.213 -24.799 -13.039  0.00  0.00    +0.034 C 
ATOM      7  C   UNL     1      31.648 -21.965 -17.344  0.00  0.00    -0.027 C 
ATOM      8  C   UNL     1      29.973 -23.908 -13.095  0.00  0.00    +0.028 C 
ATOM      9  C   UNL     1      30.661 -22.222 -16.475  0.00  0.00    -0.009 C 
ATOM     10  C   UNL     1      29.863 -23.120 -14.366  0.00  0.00    -0.030 C 
ATOM     11  C   UNL     1      33.362 -23.553 -18.154  0.00  0.00    +0.005 C 
ENDROOT
BRANCH   4  12
ATOM     12  O   UNL     1      32.724 -22.967 -12.785  0.00  0.00    -0.384 OA
ATOM     13  H   UNL     1      32.776 -23.248 -11.858  0.00  0.00    +0.210 HD
ENDBRANCH   4  12
BRANCH   1  14
ATOM     14  C   UNL     1      34.738 -23.418 -15.498  0.00  0.00    +0.004 C 
BRANCH  14  15
ATOM     15  C   UNL     1      35.666 -22.488 -14.729  0.00  0.00    +0.044 C 
BRANCH  15  18
ATOM     16  O   UNL     1      36.973 -24.493 -14.634  0.00  0.00    -0.452 OA
ATOM     17  O   UNL     1      37.997 -26.512 -14.569  0.00  0.00    -0.250 OA
ATOM     18  C   UNL     1      36.676 -23.278 -13.910  0.00  0.00    +0.171 C 
ATOM     19  C   UNL     1      36.120 -23.642 -12.539  0.00  0.00    +0.073 C 
ATOM     20  C   UNL     1      37.112 -24.509 -11.764  0.00  0.00    +0.125 C 
ATOM     21  C   UNL     1      38.214 -25.091 -12.644  0.00  0.00    +0.139 C 
ATOM     22  C   UNL     1      37.713 -25.453 -14.019  0.00  0.00    +0.319 C 
BRANCH  20  23
ATOM     23  O   UNL     1      36.413 -25.579 -11.131  0.00  0.00    -0.384 OA
ATOM     24  H   UNL     1      37.012 -26.042 -10.524  0.00  0.00    +0.210 HD
ENDBRANCH  20  23
ENDBRANCH  15  18
ENDBRANCH  14  15
ENDBRANCH   1  14
TORSDOF 5
ENDMDL
MODEL 6
REMARK VINA RESULT:      -9.2      8.591     11.072
REMARK  Name = 4369567
REMARK  5 active torsions:
REMARK  status: ('A' for Active; 'I' for Inactive)
REMARK    1  A    between atoms: C_1  and  C_14
REMARK    2  A    between atoms: C_4  and  O_12
REMARK    3  A    between atoms: C_14  and  C_15
REMARK    4  A    between atoms: C_15  and  C_18
REMARK    5  A    between atoms: C_20  and  O_23
REMARK                            x       y       z     vdW  Elec       q    Type
REMARK                         _______ _______ _______ _____ _____    ______ ____
ROOT
ATOM      1  C   UNL     1      35.774 -22.955 -15.109  0.00  0.00    +0.011 C 
ATOM      2  C   UNL     1      36.161 -22.890 -13.601  0.00  0.00    +0.049 C 
ATOM      3  C   UNL     1      36.965 -22.522 -16.013  0.00  0.00    +0.022 C 
ATOM      4  C   UNL     1      35.005 -23.287 -12.651  0.00  0.00    +0.115 C 
ATOM      5  C   UNL     1      37.419 -23.714 -13.333  0.00  0.00    -0.025 C 
ATOM      6  C   UNL     1      35.497 -23.393 -11.207  0.00  0.00    +0.034 C 
ATOM      7  C   UNL     1      38.244 -23.196 -15.585  0.00  0.00    -0.027 C 
ATOM      8  C   UNL     1      36.614 -24.425 -11.062  0.00  0.00    +0.028 C 
ATOM      9  C   UNL     1      38.427 -23.744 -14.376  0.00  0.00    -0.009 C 
ATOM     10  C   UNL     1      37.602 -24.397 -12.189  0.00  0.00    -0.030 C 
ATOM     11  C   UNL     1      37.201 -21.010 -16.081  0.00  0.00    +0.005 C 
ENDROOT
BRANCH   4  12
ATOM     12  O   UNL     1      34.437 -24.547 -13.010  0.00  0.00    -0.384 OA
ATOM     13  H   UNL     1      34.774 -25.235 -12.415  0.00  0.00    +0.210 HD
ENDBRANCH   4  12
BRANCH   1  14
ATOM     14  C   UNL     1      34.509 -22.150 -15.433  0.00  0.00    +0.004 C 
BRANCH  14  15
ATOM     15  C   UNL     1      33.410 -23.055 -15.972  0.00  0.00    +0.044 C 
BRANCH  15  18
ATOM     16  O   UNL     1      31.942 -23.754 -14.213  0.00  0.00    -0.452 OA
ATOM     17  O   UNL     1      30.556 -24.638 -12.655  0.00  0.00    -0.250 OA
ATOM     18  C   UNL     1      32.086 -22.782 -15.272  0.00  0.00    +0.171 C 
ATOM     19  C   UNL     1      30.910 -22.916 -16.231  0.00  0.00    +0.073 C 
ATOM     20  C   UNL     1      29.585 -22.724 -15.494  0.00  0.00    +0.125 C 
ATOM     21  C   UNL     1      29.724 -22.812 -13.977  0.00  0.00    +0.139 C 
ATOM     22  C   UNL     1      30.753 -23.832 -13.558  0.00  0.00    +0.319 C 
BRANCH  20  23
ATOM     23  O   UNL     1      28.652 -23.713 -15.929  0.00  0.00    -0.384 OA
ATOM     24  H   UNL     1      27.757 -23.453 -15.663  0.00  0.00    +0.210 HD
ENDBRANCH  20  23
ENDBRANCH  15  18
ENDBRANCH  14  15
ENDBRANCH   1  14
TORSDOF 5
ENDMDL
MODEL 7
REMARK VINA RESULT:      -9.2      3.790      8.330
REMARK  Name = 4369567
REMARK  5 active torsions:
REMARK  status: ('A' for Active; 'I' for Inactive)
REMARK    1  A    between atoms: C_1  and  C_14
REMARK    2  A    between atoms: C_4  and  O_12
REMARK    3  A    between atoms: C_14  and  C_15
REMARK    4  A    between atoms: C_15  and  C_18
REMARK    5  A    between atoms: C_20  and  O_23
REMARK                            x       y       z     vdW  Elec       q    Type
REMARK                         _______ _______ _______ _____ _____    ______ ____
ROOT
ATOM      1  C   UNL     1      33.614 -13.830 -22.672  0.00  0.00    +0.011 C 
ATOM      2  C   UNL     1      33.286 -15.310 -23.031  0.00  0.00    +0.049 C 
ATOM      3  C   UNL     1      33.421 -13.566 -21.149  0.00  0.00    +0.022 C 
ATOM      4  C   UNL     1      33.436 -15.626 -24.539  0.00  0.00    +0.115 C 
ATOM      5  C   UNL     1      34.110 -16.266 -22.170  0.00  0.00    -0.025 C 
ATOM      6  C   UNL     1      33.294 -17.126 -24.799  0.00  0.00    +0.034 C 
ATOM      7  C   UNL     1      34.070 -14.650 -20.324  0.00  0.00    -0.027 C 
ATOM      8  C   UNL     1      34.338 -17.937 -24.033  0.00  0.00    +0.028 C 
ATOM      9  C   UNL     1      34.389 -15.859 -20.805  0.00  0.00    -0.009 C 
ATOM     10  C   UNL     1      34.574 -17.438 -22.639  0.00  0.00    -0.030 C 
ATOM     11  C   UNL     1      31.964 -13.411 -20.705  0.00  0.00    +0.005 C 
ENDROOT
BRANCH   4  12
ATOM     12  O   UNL     1      34.709 -15.216 -25.038  0.00  0.00    -0.384 OA
ATOM     13  H   UNL     1      35.285 -15.991 -25.131  0.00  0.00    +0.210 HD
ENDBRANCH   4  12
BRANCH   1  14
ATOM     14  C   UNL     1      32.818 -12.825 -23.513  0.00  0.00    +0.004 C 
BRANCH  14  15
ATOM     15  C   UNL     1      33.528 -11.479 -23.571  0.00  0.00    +0.044 C 
BRANCH  15  18
ATOM     16  O   UNL     1      33.313  -9.121 -23.212  0.00  0.00    -0.452 OA
ATOM     17  O   UNL     1      33.255  -6.921 -22.675  0.00  0.00    -0.250 OA
ATOM     18  C   UNL     1      32.546 -10.334 -23.371  0.00  0.00    +0.171 C 
ATOM     19  C   UNL     1      31.689 -10.545 -22.129  0.00  0.00    +0.073 C 
ATOM     20  C   UNL     1      30.770  -9.346 -21.895  0.00  0.00    +0.125 C 
ATOM     21  C   UNL     1      31.170  -8.117 -22.703  0.00  0.00    +0.139 C 
ATOM     22  C   UNL     1      32.666  -7.985 -22.837  0.00  0.00    +0.319 C 
BRANCH  20  23
ATOM     23  O   UNL     1      30.775  -9.009 -20.508  0.00  0.00    -0.384 OA
ATOM     24  H   UNL     1      31.489  -9.488 -20.061  0.00  0.00    +0.210 HD
ENDBRANCH  20  23
ENDBRANCH  15  18
ENDBRANCH  14  15
ENDBRANCH   1  14
TORSDOF 5
ENDMDL
MODEL 8
REMARK VINA RESULT:      -9.0      5.991     10.665
REMARK  Name = 4369567
REMARK  5 active torsions:
REMARK  status: ('A' for Active; 'I' for Inactive)
REMARK    1  A    between atoms: C_1  and  C_14
REMARK    2  A    between atoms: C_4  and  O_12
REMARK    3  A    between atoms: C_14  and  C_15
REMARK    4  A    between atoms: C_15  and  C_18
REMARK    5  A    between atoms: C_20  and  O_23
REMARK                            x       y       z     vdW  Elec       q    Type
REMARK                         _______ _______ _______ _____ _____    ______ ____
ROOT
ATOM      1  C   UNL     1      35.655 -23.288 -14.590  0.00  0.00    +0.011 C 
ATOM      2  C   UNL     1      35.947 -23.059 -13.077  0.00  0.00    +0.049 C 
ATOM      3  C   UNL     1      36.950 -23.138 -15.441  0.00  0.00    +0.022 C 
ATOM      4  C   UNL     1      34.688 -23.172 -12.182  0.00  0.00    +0.115 C 
ATOM      5  C   UNL     1      37.062 -23.987 -12.599  0.00  0.00    -0.025 C 
ATOM      6  C   UNL     1      35.066 -23.133 -10.702  0.00  0.00    +0.034 C 
ATOM      7  C   UNL     1      38.096 -23.899 -14.823  0.00  0.00    -0.027 C 
ATOM      8  C   UNL     1      36.021 -24.266 -10.329  0.00  0.00    +0.028 C 
ATOM      9  C   UNL     1      38.124 -24.289 -13.541  0.00  0.00    -0.009 C 
ATOM     10  C   UNL     1      37.076 -24.520 -11.364  0.00  0.00    -0.030 C 
ATOM     11  C   UNL     1      37.392 -21.692 -15.686  0.00  0.00    +0.005 C 
ENDROOT
BRANCH   4  12
ATOM     12  O   UNL     1      33.981 -24.389 -12.420  0.00  0.00    -0.384 OA
ATOM     13  H   UNL     1      33.851 -24.507 -13.373  0.00  0.00    +0.210 HD
ENDBRANCH   4  12
BRANCH   1  14
ATOM     14  C   UNL     1      34.534 -22.385 -15.121  0.00  0.00    +0.004 C 
BRANCH  14  15
ATOM     15  C   UNL     1      33.556 -23.177 -15.978  0.00  0.00    +0.044 C 
BRANCH  15  18
ATOM     16  O   UNL     1      34.790 -21.887 -17.574  0.00  0.00    -0.452 OA
ATOM     17  O   UNL     1      35.918 -20.472 -18.938  0.00  0.00    -0.250 OA
ATOM     18  C   UNL     1      33.649 -22.762 -17.439  0.00  0.00    +0.171 C 
ATOM     19  C   UNL     1      32.398 -22.018 -17.889  0.00  0.00    +0.073 C 
ATOM     20  C   UNL     1      32.544 -21.534 -19.331  0.00  0.00    +0.125 C 
ATOM     21  C   UNL     1      33.982 -21.579 -19.836  0.00  0.00    +0.139 C 
ATOM     22  C   UNL     1      34.976 -21.237 -18.754  0.00  0.00    +0.319 C 
BRANCH  20  23
ATOM     23  O   UNL     1      32.060 -20.195 -19.433  0.00  0.00    -0.384 OA
ATOM     24  H   UNL     1      32.565 -19.720 -20.111  0.00  0.00    +0.210 HD
ENDBRANCH  20  23
ENDBRANCH  15  18
ENDBRANCH  14  15
ENDBRANCH   1  14
TORSDOF 5
ENDMDL
MODEL 9
REMARK VINA RESULT:      -8.9     10.278     12.347
REMARK  Name = 4369567
REMARK  5 active torsions:
REMARK  status: ('A' for Active; 'I' for Inactive)
REMARK    1  A    between atoms: C_1  and  C_14
REMARK    2  A    between atoms: C_4  and  O_12
REMARK    3  A    between atoms: C_14  and  C_15
REMARK    4  A    between atoms: C_15  and  C_18
REMARK    5  A    between atoms: C_20  and  O_23
REMARK                            x       y       z     vdW  Elec       q    Type
REMARK                         _______ _______ _______ _____ _____    ______ ____
ROOT
ATOM      1  C   UNL     1      35.173 -23.753 -12.765  0.00  0.00    +0.011 C 
ATOM      2  C   UNL     1      36.244 -24.854 -13.024  0.00  0.00    +0.049 C 
ATOM      3  C   UNL     1      35.349 -23.120 -11.353  0.00  0.00    +0.022 C 
ATOM      4  C   UNL     1      36.102 -25.539 -14.406  0.00  0.00    +0.115 C 
ATOM      5  C   UNL     1      37.650 -24.296 -12.813  0.00  0.00    -0.025 C 
ATOM      6  C   UNL     1      37.288 -26.464 -14.681  0.00  0.00    +0.034 C 
ATOM      7  C   UNL     1      36.793 -22.772 -11.091  0.00  0.00    -0.027 C 
ATOM      8  C   UNL     1      38.616 -25.709 -14.653  0.00  0.00    +0.028 C 
ATOM      9  C   UNL     1      37.819 -23.301 -11.771  0.00  0.00    -0.009 C 
ATOM     10  C   UNL     1      38.700 -24.691 -13.556  0.00  0.00    -0.030 C 
ATOM     11  C   UNL     1      34.829 -23.978 -10.197  0.00  0.00    +0.005 C 
ENDROOT
BRANCH   4  12
ATOM     12  O   UNL     1      36.043 -24.581 -15.463  0.00  0.00    -0.384 OA
ATOM     13  H   UNL     1      36.769 -23.946 -15.366  0.00  0.00    +0.210 HD
ENDBRANCH   4  12
BRANCH   1  14
ATOM     14  C   UNL     1      33.739 -24.258 -12.971  0.00  0.00    +0.004 C 
BRANCH  14  15
ATOM     15  C   UNL     1      32.777 -23.098 -13.184  0.00  0.00    +0.044 C 
BRANCH  15  18
ATOM     16  O   UNL     1      30.701 -22.397 -14.152  0.00  0.00    -0.452 OA
ATOM     17  O   UNL     1      28.659 -21.698 -14.838  0.00  0.00    -0.250 OA
ATOM     18  C   UNL     1      31.639 -23.496 -14.112  0.00  0.00    +0.171 C 
ATOM     19  C   UNL     1      30.920 -24.742 -13.612  0.00  0.00    +0.073 C 
ATOM     20  C   UNL     1      29.727 -25.077 -14.508  0.00  0.00    +0.125 C 
ATOM     21  C   UNL     1      29.329 -23.929 -15.430  0.00  0.00    +0.139 C 
ATOM     22  C   UNL     1      29.506 -22.583 -14.772  0.00  0.00    +0.319 C 
BRANCH  20  23
ATOM     23  O   UNL     1      28.607 -25.426 -13.695  0.00  0.00    -0.384 OA
ATOM     24  H   UNL     1      28.527 -24.793 -12.965  0.00  0.00    +0.210 HD
ENDBRANCH  20  23
ENDBRANCH  15  18
ENDBRANCH  14  15
ENDBRANCH   1  14
TORSDOF 5
ENDMDL
