MODEL 1
REMARK VINA RESULT:     -12.0      0.000      0.000
REMARK  Name = 9892540
REMARK  6 active torsions:
REMARK  status: ('A' for Active; 'I' for Inactive)
REMARK    1  A    between atoms: C_1  and  N_2
REMARK    2  A    between atoms: C_1  and  C_16
REMARK    3  A    between atoms: N_3  and  C_10
REMARK    4  A    between atoms: C_16  and  C_17
REMARK    5  A    between atoms: C_17  and  N_19
REMARK    6  A    between atoms: C_26  and  O_29
REMARK                            x       y       z     vdW  Elec       q    Type
REMARK                         _______ _______ _______ _____ _____    ______ ____
ROOT
ATOM      1  C   UNL     1      34.928 -19.316 -21.912  0.00  0.00    -0.075 C 
ENDROOT
BRANCH   1   2
ATOM      2  N   UNL     1      34.937 -17.868 -22.114  0.00  0.00    +0.389 N 
ATOM      3  N   UNL     1      33.789 -15.263 -22.359  0.00  0.00    -0.312 N 
ATOM      4  C   UNL     1      34.154 -17.510 -23.304  0.00  0.00    -0.055 C 
ATOM      5  C   UNL     1      34.394 -17.180 -20.936  0.00  0.00    -0.055 C 
ATOM      6  C   UNL     1      34.202 -16.001 -23.559  0.00  0.00    +0.068 C 
ATOM      7  C   UNL     1      34.448 -15.660 -21.112  0.00  0.00    +0.068 C 
ATOM      8  H   UNL     1      35.902 -17.571 -22.253  0.00  0.00    -0.080 HD
BRANCH   3  10
ATOM      9 CL   UNL     1      31.396 -11.175 -20.349  0.00  0.00    -0.082 Cl
ATOM     10  C   UNL     1      33.341 -13.947 -22.519  0.00  0.00    +0.049 C 
ATOM     11  C   UNL     1      32.665 -13.279 -21.478  0.00  0.00    +0.026 C 
ATOM     12  C   UNL     1      33.554 -13.248 -23.724  0.00  0.00    +0.015 C 
ATOM     13  C   UNL     1      32.220 -11.968 -21.636  0.00  0.00    +0.059 C 
ATOM     14  C   UNL     1      33.108 -11.937 -23.883  0.00  0.00    +0.002 C 
ATOM     15  C   UNL     1      32.442 -11.295 -22.839  0.00  0.00    +0.011 C 
ENDBRANCH   3  10
ENDBRANCH   1   2
BRANCH   1  16
ATOM     16  C   UNL     1      34.435 -19.695 -20.512  0.00  0.00    -0.001 C 
BRANCH  16  17
ATOM     17  C   UNL     1      34.983 -21.021 -19.988  0.00  0.00    +0.096 C 
BRANCH  17  19
ATOM     18  O   UNL     1      32.224 -21.621 -19.911  0.00  0.00    -0.275 OA
ATOM     19  N   UNL     1      34.273 -21.489 -18.801  0.00  0.00    -0.259 N 
ATOM     20  C   UNL     1      35.012 -21.712 -17.593  0.00  0.00    +0.053 C 
ATOM     21  C   UNL     1      34.399 -22.388 -16.523  0.00  0.00    +0.026 C 
ATOM     22  C   UNL     1      33.005 -22.919 -16.679  0.00  0.00    +0.040 C 
ATOM     23  C   UNL     1      32.199 -21.990 -17.562  0.00  0.00    +0.090 C 
ATOM     24  C   UNL     1      32.893 -21.716 -18.879  0.00  0.00    +0.230 C 
ATOM     25  C   UNL     1      36.346 -21.299 -17.448  0.00  0.00    +0.015 C 
ATOM     26  C   UNL     1      35.114 -22.643 -15.344  0.00  0.00    +0.136 C 
ATOM     27  C   UNL     1      37.048 -21.545 -16.265  0.00  0.00    +0.004 C 
ATOM     28  C   UNL     1      36.432 -22.216 -15.213  0.00  0.00    +0.037 C 
BRANCH  26  29
ATOM     29  O   UNL     1      34.539 -23.302 -14.296  0.00  0.00    -0.472 OA
ATOM     30  C   UNL     1      35.333 -24.284 -13.634  0.00  0.00    +0.252 C 
ENDBRANCH  26  29
ENDBRANCH  17  19
ENDBRANCH  16  17
ENDBRANCH   1  16
TORSDOF 6
ENDMDL
MODEL 2
REMARK VINA RESULT:     -11.9      3.488      9.984
REMARK  Name = 9892540
REMARK  6 active torsions:
REMARK  status: ('A' for Active; 'I' for Inactive)
REMARK    1  A    between atoms: C_1  and  N_2
REMARK    2  A    between atoms: C_1  and  C_16
REMARK    3  A    between atoms: N_3  and  C_10
REMARK    4  A    between atoms: C_16  and  C_17
REMARK    5  A    between atoms: C_17  and  N_19
REMARK    6  A    between atoms: C_26  and  O_29
REMARK                            x       y       z     vdW  Elec       q    Type
REMARK                         _______ _______ _______ _____ _____    ______ ____
ROOT
ATOM      1  C   UNL     1      35.162 -19.221 -21.812  0.00  0.00    -0.075 C 
ENDROOT
BRANCH   1   2
ATOM      2  N   UNL     1      34.578 -20.261 -20.966  0.00  0.00    +0.389 N 
ATOM      3  N   UNL     1      33.523 -21.374 -18.556  0.00  0.00    -0.312 N 
ATOM      4  C   UNL     1      35.466 -20.565 -19.837  0.00  0.00    -0.055 C 
ATOM      5  C   UNL     1      33.263 -19.841 -20.467  0.00  0.00    -0.055 C 
ATOM      6  C   UNL     1      34.893 -21.693 -18.975  0.00  0.00    +0.068 C 
ATOM      7  C   UNL     1      32.616 -20.944 -19.624  0.00  0.00    +0.068 C 
ATOM      8  H   UNL     1      34.462 -21.103 -21.530  0.00  0.00    -0.080 HD
BRANCH   3  10
ATOM      9 CL   UNL     1      29.404 -22.879 -15.864  0.00  0.00    -0.082 Cl
ATOM     10  C   UNL     1      33.008 -22.033 -17.433  0.00  0.00    +0.049 C 
ATOM     11  C   UNL     1      31.619 -22.124 -17.219  0.00  0.00    +0.026 C 
ATOM     12  C   UNL     1      33.865 -22.624 -16.483  0.00  0.00    +0.015 C 
ATOM     13  C   UNL     1      31.106 -22.782 -16.101  0.00  0.00    +0.059 C 
ATOM     14  C   UNL     1      33.353 -23.281 -15.364  0.00  0.00    +0.002 C 
ATOM     15  C   UNL     1      31.973 -23.361 -15.174  0.00  0.00    +0.011 C 
ENDBRANCH   3  10
ENDBRANCH   1   2
BRANCH   1  16
ATOM     16  C   UNL     1      34.089 -18.325 -22.439  0.00  0.00    -0.001 C 
BRANCH  16  17
ATOM     17  C   UNL     1      34.635 -17.086 -23.146  0.00  0.00    +0.096 C 
BRANCH  17  19
ATOM     18  O   UNL     1      34.835 -16.568 -20.377  0.00  0.00    -0.275 OA
ATOM     19  N   UNL     1      34.212 -15.845 -22.507  0.00  0.00    -0.259 N 
ATOM     20  C   UNL     1      33.700 -14.783 -23.323  0.00  0.00    +0.053 C 
ATOM     21  C   UNL     1      33.518 -13.506 -22.763  0.00  0.00    +0.026 C 
ATOM     22  C   UNL     1      33.917 -13.255 -21.339  0.00  0.00    +0.040 C 
ATOM     23  C   UNL     1      33.670 -14.498 -20.511  0.00  0.00    +0.090 C 
ATOM     24  C   UNL     1      34.326 -15.722 -21.116  0.00  0.00    +0.230 C 
ATOM     25  C   UNL     1      33.395 -14.967 -24.681  0.00  0.00    +0.015 C 
ATOM     26  C   UNL     1      33.048 -12.447 -23.552  0.00  0.00    +0.136 C 
ATOM     27  C   UNL     1      32.914 -13.911 -25.458  0.00  0.00    +0.004 C 
ATOM     28  C   UNL     1      32.740 -12.651 -24.894  0.00  0.00    +0.037 C 
BRANCH  26  29
ATOM     29  O   UNL     1      32.870 -11.199 -23.028  0.00  0.00    -0.472 OA
ATOM     30  C   UNL     1      31.601 -10.919 -22.441  0.00  0.00    +0.252 C 
ENDBRANCH  26  29
ENDBRANCH  17  19
ENDBRANCH  16  17
ENDBRANCH   1  16
TORSDOF 6
ENDMDL
MODEL 3
REMARK VINA RESULT:     -11.8      3.883      5.861
REMARK  Name = 9892540
REMARK  6 active torsions:
REMARK  status: ('A' for Active; 'I' for Inactive)
REMARK    1  A    between atoms: C_1  and  N_2
REMARK    2  A    between atoms: C_1  and  C_16
REMARK    3  A    between atoms: N_3  and  C_10
REMARK    4  A    between atoms: C_16  and  C_17
REMARK    5  A    between atoms: C_17  and  N_19
REMARK    6  A    between atoms: C_26  and  O_29
REMARK                            x       y       z     vdW  Elec       q    Type
REMARK                         _______ _______ _______ _____ _____    ______ ____
ROOT
ATOM      1  C   UNL     1      32.231 -22.838 -16.886  0.00  0.00    -0.075 C 
ENDROOT
BRANCH   1   2
ATOM      2  N   UNL     1      32.752 -22.317 -18.150  0.00  0.00    +0.389 N 
ATOM      3  N   UNL     1      33.964 -20.387 -19.872  0.00  0.00    -0.312 N 
ATOM      4  C   UNL     1      32.012 -21.115 -18.555  0.00  0.00    -0.055 C 
ATOM      5  C   UNL     1      34.181 -22.005 -18.027  0.00  0.00    -0.055 C 
ATOM      6  C   UNL     1      32.511 -20.594 -19.905  0.00  0.00    +0.068 C 
ATOM      7  C   UNL     1      34.752 -21.511 -19.359  0.00  0.00    +0.068 C 
ATOM      8  H   UNL     1      32.632 -23.035 -18.864  0.00  0.00    -0.080 HD
BRANCH   3  10
ATOM      9 CL   UNL     1      33.496 -17.859 -24.330  0.00  0.00    -0.082 Cl
ATOM     10  C   UNL     1      34.526 -19.518 -20.814  0.00  0.00    +0.049 C 
ATOM     11  C   UNL     1      33.821 -19.154 -21.978  0.00  0.00    +0.026 C 
ATOM     12  C   UNL     1      35.815 -18.980 -20.626  0.00  0.00    +0.015 C 
ATOM     13  C   UNL     1      34.380 -18.288 -22.916  0.00  0.00    +0.059 C 
ATOM     14  C   UNL     1      36.375 -18.113 -21.564  0.00  0.00    +0.002 C 
ATOM     15  C   UNL     1      35.658 -17.766 -22.709  0.00  0.00    +0.011 C 
ENDBRANCH   3  10
ENDBRANCH   1   2
BRANCH   1  16
ATOM     16  C   UNL     1      33.337 -23.441 -16.016  0.00  0.00    -0.001 C 
BRANCH  16  17
ATOM     17  C   UNL     1      33.738 -22.582 -14.819  0.00  0.00    +0.096 C 
BRANCH  17  19
ATOM     18  O   UNL     1      33.003 -23.836 -12.397  0.00  0.00    -0.275 OA
ATOM     19  N   UNL     1      34.671 -23.264 -13.927  0.00  0.00    -0.259 N 
ATOM     20  C   UNL     1      36.050 -23.359 -14.306  0.00  0.00    +0.053 C 
ATOM     21  C   UNL     1      36.906 -24.215 -13.590  0.00  0.00    +0.026 C 
ATOM     22  C   UNL     1      36.356 -25.060 -12.479  0.00  0.00    +0.040 C 
ATOM     23  C   UNL     1      35.247 -24.312 -11.769  0.00  0.00    +0.090 C 
ATOM     24  C   UNL     1      34.190 -23.815 -12.732  0.00  0.00    +0.230 C 
ATOM     25  C   UNL     1      36.576 -22.643 -15.393  0.00  0.00    +0.015 C 
ATOM     26  C   UNL     1      38.252 -24.345 -13.964  0.00  0.00    +0.136 C 
ATOM     27  C   UNL     1      37.920 -22.768 -15.751  0.00  0.00    +0.004 C 
ATOM     28  C   UNL     1      38.758 -23.618 -15.036  0.00  0.00    +0.037 C 
BRANCH  26  29
ATOM     29  O   UNL     1      39.097 -25.174 -13.284  0.00  0.00    -0.472 OA
ATOM     30  C   UNL     1      40.164 -25.759 -14.027  0.00  0.00    +0.252 C 
ENDBRANCH  26  29
ENDBRANCH  17  19
ENDBRANCH  16  17
ENDBRANCH   1  16
TORSDOF 6
ENDMDL
MODEL 4
REMARK VINA RESULT:     -11.8      2.011      3.324
REMARK  Name = 9892540
REMARK  6 active torsions:
REMARK  status: ('A' for Active; 'I' for Inactive)
REMARK    1  A    between atoms: C_1  and  N_2
REMARK    2  A    between atoms: C_1  and  C_16
REMARK    3  A    between atoms: N_3  and  C_10
REMARK    4  A    between atoms: C_16  and  C_17
REMARK    5  A    between atoms: C_17  and  N_19
REMARK    6  A    between atoms: C_26  and  O_29
REMARK                            x       y       z     vdW  Elec       q    Type
REMARK                         _______ _______ _______ _____ _____    ______ ____
ROOT
ATOM      1  C   UNL     1      34.942 -21.631 -18.947  0.00  0.00    -0.075 C 
ENDROOT
BRANCH   1   2
ATOM      2  N   UNL     1      34.927 -20.702 -20.077  0.00  0.00    +0.389 N 
ATOM      3  N   UNL     1      34.587 -18.180 -21.375  0.00  0.00    -0.312 N 
ATOM      4  C   UNL     1      33.585 -20.135 -20.258  0.00  0.00    -0.055 C 
ATOM      5  C   UNL     1      35.900 -19.623 -19.870  0.00  0.00    -0.055 C 
ATOM      6  C   UNL     1      33.541 -19.206 -21.474  0.00  0.00    +0.068 C 
ATOM      7  C   UNL     1      35.933 -18.675 -21.072  0.00  0.00    +0.068 C 
ATOM      8  H   UNL     1      35.182 -21.220 -20.918  0.00  0.00    -0.080 HD
BRANCH   3  10
ATOM      9 CL   UNL     1      33.903 -13.080 -21.430  0.00  0.00    -0.082 Cl
ATOM     10  C   UNL     1      34.431 -17.007 -22.121  0.00  0.00    +0.049 C 
ATOM     11  C   UNL     1      34.262 -15.760 -21.487  0.00  0.00    +0.026 C 
ATOM     12  C   UNL     1      34.437 -17.036 -23.530  0.00  0.00    +0.015 C 
ATOM     13  C   UNL     1      34.107 -14.591 -22.230  0.00  0.00    +0.059 C 
ATOM     14  C   UNL     1      34.282 -15.867 -24.274  0.00  0.00    +0.002 C 
ATOM     15  C   UNL     1      34.118 -14.644 -23.625  0.00  0.00    +0.011 C 
ENDBRANCH   3  10
ENDBRANCH   1   2
BRANCH   1  16
ATOM     16  C   UNL     1      33.568 -21.742 -18.280  0.00  0.00    -0.001 C 
BRANCH  16  17
ATOM     17  C   UNL     1      33.280 -23.105 -17.652  0.00  0.00    +0.096 C 
BRANCH  17  19
ATOM     18  O   UNL     1      30.684 -22.563 -16.680  0.00  0.00    -0.275 OA
ATOM     19  N   UNL     1      32.933 -23.007 -16.238  0.00  0.00    -0.259 N 
ATOM     20  C   UNL     1      33.949 -23.244 -15.255  0.00  0.00    +0.053 C 
ATOM     21  C   UNL     1      33.584 -23.395 -13.906  0.00  0.00    +0.026 C 
ATOM     22  C   UNL     1      32.135 -23.366 -13.519  0.00  0.00    +0.040 C 
ATOM     23  C   UNL     1      31.387 -22.401 -14.413  0.00  0.00    +0.090 C 
ATOM     24  C   UNL     1      31.615 -22.694 -15.881  0.00  0.00    +0.230 C 
ATOM     25  C   UNL     1      35.306 -23.359 -15.599  0.00  0.00    +0.015 C 
ATOM     26  C   UNL     1      34.560 -23.659 -12.934  0.00  0.00    +0.136 C 
ATOM     27  C   UNL     1      36.274 -23.607 -14.623  0.00  0.00    +0.004 C 
ATOM     28  C   UNL     1      35.901 -23.757 -13.291  0.00  0.00    +0.037 C 
BRANCH  26  29
ATOM     29  O   UNL     1      34.226 -23.813 -11.620  0.00  0.00    -0.472 OA
ATOM     30  C   UNL     1      35.288 -24.092 -10.710  0.00  0.00    +0.252 C 
ENDBRANCH  26  29
ENDBRANCH  17  19
ENDBRANCH  16  17
ENDBRANCH   1  16
TORSDOF 6
ENDMDL
MODEL 5
REMARK VINA RESULT:     -11.4      6.171     12.545
REMARK  Name = 9892540
REMARK  6 active torsions:
REMARK  status: ('A' for Active; 'I' for Inactive)
REMARK    1  A    between atoms: C_1  and  N_2
REMARK    2  A    between atoms: C_1  and  C_16
REMARK    3  A    between atoms: N_3  and  C_10
REMARK    4  A    between atoms: C_16  and  C_17
REMARK    5  A    between atoms: C_17  and  N_19
REMARK    6  A    between atoms: C_26  and  O_29
REMARK                            x       y       z     vdW  Elec       q    Type
REMARK                         _______ _______ _______ _____ _____    ______ ____
ROOT
ATOM      1  C   UNL     1      32.095 -11.007 -22.655  0.00  0.00    -0.075 C 
ENDROOT
BRANCH   1   2
ATOM      2  N   UNL     1      32.973 -12.173 -22.746  0.00  0.00    +0.389 N 
ATOM      3  N   UNL     1      33.610 -14.957 -22.826  0.00  0.00    -0.312 N 
ATOM      4  C   UNL     1      32.865 -12.995 -21.534  0.00  0.00    -0.055 C 
ATOM      5  C   UNL     1      32.637 -12.979 -23.926  0.00  0.00    -0.055 C 
ATOM      6  C   UNL     1      33.821 -14.189 -21.593  0.00  0.00    +0.068 C 
ATOM      7  C   UNL     1      33.585 -14.174 -24.065  0.00  0.00    +0.068 C 
ATOM      8  H   UNL     1      33.933 -11.843 -22.836  0.00  0.00    -0.080 HD
BRANCH   3  10
ATOM      9 CL   UNL     1      36.474 -18.677 -20.719  0.00  0.00    -0.082 Cl
ATOM     10  C   UNL     1      34.045 -16.287 -22.855  0.00  0.00    +0.049 C 
ATOM     11  C   UNL     1      34.944 -16.778 -21.887  0.00  0.00    +0.026 C 
ATOM     12  C   UNL     1      33.599 -17.175 -23.853  0.00  0.00    +0.015 C 
ATOM     13  C   UNL     1      35.377 -18.103 -21.915  0.00  0.00    +0.059 C 
ATOM     14  C   UNL     1      34.032 -18.501 -23.882  0.00  0.00    +0.002 C 
ATOM     15  C   UNL     1      34.920 -18.965 -22.912  0.00  0.00    +0.011 C 
ENDBRANCH   3  10
ENDBRANCH   1   2
BRANCH   1  16
ATOM     16  C   UNL     1      31.413 -10.911 -21.287  0.00  0.00    -0.001 C 
BRANCH  16  17
ATOM     17  C   UNL     1      30.456  -9.730 -21.140  0.00  0.00    +0.096 C 
BRANCH  17  19
ATOM     18  O   UNL     1      31.928  -8.813 -18.911  0.00  0.00    -0.275 OA
ATOM     19  N   UNL     1      31.153  -8.449 -21.082  0.00  0.00    -0.259 N 
ATOM     20  C   UNL     1      31.145  -7.601 -22.238  0.00  0.00    +0.053 C 
ATOM     21  C   UNL     1      32.004  -6.489 -22.286  0.00  0.00    +0.026 C 
ATOM     22  C   UNL     1      32.960  -6.238 -21.158  0.00  0.00    +0.040 C 
ATOM     23  C   UNL     1      32.329  -6.664 -19.849  0.00  0.00    +0.090 C 
ATOM     24  C   UNL     1      31.818  -8.089 -19.903  0.00  0.00    +0.230 C 
ATOM     25  C   UNL     1      30.320  -7.858 -23.345  0.00  0.00    +0.015 C 
ATOM     26  C   UNL     1      32.034  -5.665 -23.421  0.00  0.00    +0.136 C 
ATOM     27  C   UNL     1      30.345  -7.025 -24.466  0.00  0.00    +0.004 C 
ATOM     28  C   UNL     1      31.201  -5.929 -24.504  0.00  0.00    +0.037 C 
BRANCH  26  29
ATOM     29  O   UNL     1      32.864  -4.585 -23.489  0.00  0.00    -0.472 OA
ATOM     30  C   UNL     1      33.949  -4.660 -24.411  0.00  0.00    +0.252 C 
ENDBRANCH  26  29
ENDBRANCH  17  19
ENDBRANCH  16  17
ENDBRANCH   1  16
TORSDOF 6
ENDMDL
MODEL 6
REMARK VINA RESULT:     -11.3      4.909     11.580
REMARK  Name = 9892540
REMARK  6 active torsions:
REMARK  status: ('A' for Active; 'I' for Inactive)
REMARK    1  A    between atoms: C_1  and  N_2
REMARK    2  A    between atoms: C_1  and  C_16
REMARK    3  A    between atoms: N_3  and  C_10
REMARK    4  A    between atoms: C_16  and  C_17
REMARK    5  A    between atoms: C_17  and  N_19
REMARK    6  A    between atoms: C_26  and  O_29
REMARK                            x       y       z     vdW  Elec       q    Type
REMARK                         _______ _______ _______ _____ _____    ______ ____
ROOT
ATOM      1  C   UNL     1      33.409 -12.744 -24.016  0.00  0.00    -0.075 C 
ENDROOT
BRANCH   1   2
ATOM      2  N   UNL     1      33.360 -14.038 -23.335  0.00  0.00    +0.389 N 
ATOM      3  N   UNL     1      34.441 -16.384 -22.115  0.00  0.00    -0.312 N 
ATOM      4  C   UNL     1      33.997 -15.076 -24.156  0.00  0.00    -0.055 C 
ATOM      5  C   UNL     1      34.025 -13.958 -22.029  0.00  0.00    -0.055 C 
ATOM      6  C   UNL     1      33.902 -16.446 -23.480  0.00  0.00    +0.068 C 
ATOM      7  C   UNL     1      33.933 -15.291 -21.282  0.00  0.00    +0.068 C 
ATOM      8  H   UNL     1      32.381 -14.286 -23.192  0.00  0.00    -0.080 HD
BRANCH   3  10
ATOM      9 CL   UNL     1      33.147 -20.807 -19.824  0.00  0.00    -0.082 Cl
ATOM     10  C   UNL     1      34.851 -17.581 -21.516  0.00  0.00    +0.049 C 
ATOM     11  C   UNL     1      33.910 -18.504 -21.019  0.00  0.00    +0.026 C 
ATOM     12  C   UNL     1      36.219 -17.898 -21.391  0.00  0.00    +0.015 C 
ATOM     13  C   UNL     1      34.319 -19.696 -20.422  0.00  0.00    +0.059 C 
ATOM     14  C   UNL     1      36.628 -19.090 -20.794  0.00  0.00    +0.002 C 
ATOM     15  C   UNL     1      35.678 -19.990 -20.311  0.00  0.00    +0.011 C 
ENDBRANCH   3  10
ENDBRANCH   1   2
BRANCH   1  16
ATOM     16  C   UNL     1      33.156 -11.581 -23.053  0.00  0.00    -0.001 C 
BRANCH  16  17
ATOM     17  C   UNL     1      31.680 -11.275 -22.806  0.00  0.00    +0.096 C 
BRANCH  17  19
ATOM     18  O   UNL     1      31.683 -11.815 -20.034  0.00  0.00    -0.275 OA
ATOM     19  N   UNL     1      31.484 -10.267 -21.769  0.00  0.00    -0.259 N 
ATOM     20  C   UNL     1      31.323  -8.895 -22.155  0.00  0.00    +0.053 C 
ATOM     21  C   UNL     1      31.378  -7.890 -21.174  0.00  0.00    +0.026 C 
ATOM     22  C   UNL     1      31.662  -8.257 -19.747  0.00  0.00    +0.040 C 
ATOM     23  C   UNL     1      31.046  -9.603 -19.433  0.00  0.00    +0.090 C 
ATOM     24  C   UNL     1      31.467 -10.666 -20.427  0.00  0.00    +0.230 C 
ATOM     25  C   UNL     1      31.138  -8.515 -23.494  0.00  0.00    +0.015 C 
ATOM     26  C   UNL     1      31.254  -6.541 -21.535  0.00  0.00    +0.136 C 
ATOM     27  C   UNL     1      31.001  -7.170 -23.845  0.00  0.00    +0.004 C 
ATOM     28  C   UNL     1      31.059  -6.183 -22.865  0.00  0.00    +0.037 C 
BRANCH  26  29
ATOM     29  O   UNL     1      31.310  -5.550 -20.598  0.00  0.00    -0.472 OA
ATOM     30  C   UNL     1      30.317  -4.529 -20.676  0.00  0.00    +0.252 C 
ENDBRANCH  26  29
ENDBRANCH  17  19
ENDBRANCH  16  17
ENDBRANCH   1  16
TORSDOF 6
ENDMDL
MODEL 7
REMARK VINA RESULT:     -11.1      5.591      9.256
REMARK  Name = 9892540
REMARK  6 active torsions:
REMARK  status: ('A' for Active; 'I' for Inactive)
REMARK    1  A    between atoms: C_1  and  N_2
REMARK    2  A    between atoms: C_1  and  C_16
REMARK    3  A    between atoms: N_3  and  C_10
REMARK    4  A    between atoms: C_16  and  C_17
REMARK    5  A    between atoms: C_17  and  N_19
REMARK    6  A    between atoms: C_26  and  O_29
REMARK                            x       y       z     vdW  Elec       q    Type
REMARK                         _______ _______ _______ _____ _____    ______ ____
ROOT
ATOM      1  C   UNL     1      31.263 -10.947 -20.892  0.00  0.00    -0.075 C 
ENDROOT
BRANCH   1   2
ATOM      2  N   UNL     1      31.615  -9.575 -21.257  0.00  0.00    +0.389 N 
ATOM      3  N   UNL     1      31.122  -6.816 -21.809  0.00  0.00    -0.312 N 
ATOM      4  C   UNL     1      30.920  -9.176 -22.488  0.00  0.00    -0.055 C 
ATOM      5  C   UNL     1      31.275  -8.649 -20.171  0.00  0.00    -0.055 C 
ATOM      6  C   UNL     1      31.325  -7.762 -22.913  0.00  0.00    +0.068 C 
ATOM      7  C   UNL     1      31.689  -7.217 -20.518  0.00  0.00    +0.068 C 
ATOM      8  H   UNL     1      32.622  -9.537 -21.420  0.00  0.00    -0.080 HD
BRANCH   3  10
ATOM      9 CL   UNL     1      32.471  -2.878 -24.834  0.00  0.00    -0.082 Cl
ATOM     10  C   UNL     1      31.001  -5.457 -22.121  0.00  0.00    +0.049 C 
ATOM     11  C   UNL     1      31.712  -4.894 -23.199  0.00  0.00    +0.026 C 
ATOM     12  C   UNL     1      30.164  -4.611 -21.367  0.00  0.00    +0.015 C 
ATOM     13  C   UNL     1      31.591  -3.541 -23.511  0.00  0.00    +0.059 C 
ATOM     14  C   UNL     1      30.042  -3.257 -21.679  0.00  0.00    +0.002 C 
ATOM     15  C   UNL     1      30.755  -2.722 -22.751  0.00  0.00    +0.011 C 
ENDBRANCH   3  10
ENDBRANCH   1   2
BRANCH   1  16
ATOM     16  C   UNL     1      31.489 -11.923 -22.050  0.00  0.00    -0.001 C 
BRANCH  16  17
ATOM     17  C   UNL     1      32.948 -12.069 -22.478  0.00  0.00    +0.096 C 
BRANCH  17  19
ATOM     18  O   UNL     1      32.697 -12.483 -25.261  0.00  0.00    -0.275 OA
ATOM     19  N   UNL     1      33.210 -13.338 -23.150  0.00  0.00    -0.259 N 
ATOM     20  C   UNL     1      33.672 -14.452 -22.375  0.00  0.00    +0.053 C 
ATOM     21  C   UNL     1      34.158 -15.597 -23.031  0.00  0.00    +0.026 C 
ATOM     22  C   UNL     1      34.244 -15.616 -24.528  0.00  0.00    +0.040 C 
ATOM     23  C   UNL     1      33.096 -14.824 -25.117  0.00  0.00    +0.090 C 
ATOM     24  C   UNL     1      33.011 -13.429 -24.534  0.00  0.00    +0.230 C 
ATOM     25  C   UNL     1      33.680 -14.430 -20.971  0.00  0.00    +0.015 C 
ATOM     26  C   UNL     1      34.643 -16.684 -22.290  0.00  0.00    +0.136 C 
ATOM     27  C   UNL     1      34.152 -15.523 -20.240  0.00  0.00    +0.004 C 
ATOM     28  C   UNL     1      34.633 -16.650 -20.899  0.00  0.00    +0.037 C 
BRANCH  26  29
ATOM     29  O   UNL     1      35.124 -17.802 -22.909  0.00  0.00    -0.472 OA
ATOM     30  C   UNL     1      34.393 -19.011 -22.719  0.00  0.00    +0.252 C 
ENDBRANCH  26  29
ENDBRANCH  17  19
ENDBRANCH  16  17
ENDBRANCH   1  16
TORSDOF 6
ENDMDL
MODEL 8
REMARK VINA RESULT:     -10.9      2.298      3.965
REMARK  Name = 9892540
REMARK  6 active torsions:
REMARK  status: ('A' for Active; 'I' for Inactive)
REMARK    1  A    between atoms: C_1  and  N_2
REMARK    2  A    between atoms: C_1  and  C_16
REMARK    3  A    between atoms: N_3  and  C_10
REMARK    4  A    between atoms: C_16  and  C_17
REMARK    5  A    between atoms: C_17  and  N_19
REMARK    6  A    between atoms: C_26  and  O_29
REMARK                            x       y       z     vdW  Elec       q    Type
REMARK                         _______ _______ _______ _____ _____    ______ ____
ROOT
ATOM      1  C   UNL     1      35.785 -21.314 -19.379  0.00  0.00    -0.075 C 
ENDROOT
BRANCH   1   2
ATOM      2  N   UNL     1      35.373 -19.983 -19.826  0.00  0.00    +0.389 N 
ATOM      3  N   UNL     1      34.691 -17.968 -21.733  0.00  0.00    -0.312 N 
ATOM      4  C   UNL     1      36.410 -19.381 -20.673  0.00  0.00    -0.055 C 
ATOM      5  C   UNL     1      34.107 -20.057 -20.564  0.00  0.00    -0.055 C 
ATOM      6  C   UNL     1      36.016 -17.965 -21.100  0.00  0.00    +0.068 C 
ATOM      7  C   UNL     1      33.636 -18.664 -20.990  0.00  0.00    +0.068 C 
ATOM      8  H   UNL     1      35.240 -19.397 -19.002  0.00  0.00    -0.080 HD
BRANCH   3  10
ATOM      9 CL   UNL     1      33.908 -12.912 -22.280  0.00  0.00    -0.082 Cl
ATOM     10  C   UNL     1      34.360 -16.898 -22.571  0.00  0.00    +0.049 C 
ATOM     11  C   UNL     1      34.301 -15.580 -22.076  0.00  0.00    +0.026 C 
ATOM     12  C   UNL     1      34.074 -17.105 -23.935  0.00  0.00    +0.015 C 
ATOM     13  C   UNL     1      33.972 -14.513 -22.911  0.00  0.00    +0.059 C 
ATOM     14  C   UNL     1      33.744 -16.039 -24.771  0.00  0.00    +0.002 C 
ATOM     15  C   UNL     1      33.694 -14.742 -24.259  0.00  0.00    +0.011 C 
ENDBRANCH   3  10
ENDBRANCH   1   2
BRANCH   1  16
ATOM     16  C   UNL     1      35.125 -21.701 -18.052  0.00  0.00    -0.001 C 
BRANCH  16  17
ATOM     17  C   UNL     1      36.062 -21.662 -16.846  0.00  0.00    +0.096 C 
BRANCH  17  19
ATOM     18  O   UNL     1      37.815 -22.861 -14.984  0.00  0.00    -0.275 OA
ATOM     19  N   UNL     1      35.641 -22.567 -15.782  0.00  0.00    -0.259 N 
ATOM     20  C   UNL     1      34.244 -22.846 -15.619  0.00  0.00    +0.053 C 
ATOM     21  C   UNL     1      33.802 -23.512 -14.462  0.00  0.00    +0.026 C 
ATOM     22  C   UNL     1      34.785 -23.869 -13.387  0.00  0.00    +0.040 C 
ATOM     23  C   UNL     1      36.120 -24.217 -14.010  0.00  0.00    +0.090 C 
ATOM     24  C   UNL     1      36.612 -23.130 -14.944  0.00  0.00    +0.230 C 
ATOM     25  C   UNL     1      33.289 -22.451 -16.570  0.00  0.00    +0.015 C 
ATOM     26  C   UNL     1      32.436 -23.767 -14.270  0.00  0.00    +0.136 C 
ATOM     27  C   UNL     1      31.932 -22.720 -16.378  0.00  0.00    +0.004 C 
ATOM     28  C   UNL     1      31.506 -23.378 -15.229  0.00  0.00    +0.037 C 
BRANCH  26  29
ATOM     29  O   UNL     1      31.987 -24.407 -13.152  0.00  0.00    -0.472 OA
ATOM     30  C   UNL     1      30.576 -24.562 -13.018  0.00  0.00    +0.252 C 
ENDBRANCH  26  29
ENDBRANCH  17  19
ENDBRANCH  16  17
ENDBRANCH   1  16
TORSDOF 6
ENDMDL
MODEL 9
REMARK VINA RESULT:     -10.9      2.223      3.480
REMARK  Name = 9892540
REMARK  6 active torsions:
REMARK  status: ('A' for Active; 'I' for Inactive)
REMARK    1  A    between atoms: C_1  and  N_2
REMARK    2  A    between atoms: C_1  and  C_16
REMARK    3  A    between atoms: N_3  and  C_10
REMARK    4  A    between atoms: C_16  and  C_17
REMARK    5  A    between atoms: C_17  and  N_19
REMARK    6  A    between atoms: C_26  and  O_29
REMARK                            x       y       z     vdW  Elec       q    Type
REMARK                         _______ _______ _______ _____ _____    ______ ____
ROOT
ATOM      1  C   UNL     1      35.112 -21.760 -19.233  0.00  0.00    -0.075 C 
ENDROOT
BRANCH   1   2
ATOM      2  N   UNL     1      35.035 -20.669 -20.204  0.00  0.00    +0.389 N 
ATOM      3  N   UNL     1      34.586 -17.988 -21.083  0.00  0.00    -0.312 N 
ATOM      4  C   UNL     1      33.673 -20.123 -20.256  0.00  0.00    -0.055 C 
ATOM      5  C   UNL     1      35.985 -19.605 -19.860  0.00  0.00    -0.055 C 
ATOM      6  C   UNL     1      33.565 -19.018 -21.310  0.00  0.00    +0.068 C 
ATOM      7  C   UNL     1      35.954 -18.482 -20.900  0.00  0.00    +0.068 C 
ATOM      8  H   UNL     1      35.275 -21.042 -21.122  0.00  0.00    -0.080 HD
BRANCH   3  10
ATOM      9 CL   UNL     1      33.966 -15.082 -25.283  0.00  0.00    -0.082 Cl
ATOM     10  C   UNL     1      34.374 -16.719 -21.633  0.00  0.00    +0.049 C 
ATOM     11  C   UNL     1      34.284 -16.538 -23.028  0.00  0.00    +0.026 C 
ATOM     12  C   UNL     1      34.245 -15.583 -20.809  0.00  0.00    +0.015 C 
ATOM     13  C   UNL     1      34.072 -15.274 -23.576  0.00  0.00    +0.059 C 
ATOM     14  C   UNL     1      34.033 -14.318 -21.357  0.00  0.00    +0.002 C 
ATOM     15  C   UNL     1      33.946 -14.164 -22.741  0.00  0.00    +0.011 C 
ENDBRANCH   3  10
ENDBRANCH   1   2
BRANCH   1  16
ATOM     16  C   UNL     1      34.055 -21.623 -18.133  0.00  0.00    -0.001 C 
BRANCH  16  17
ATOM     17  C   UNL     1      33.422 -22.943 -17.698  0.00  0.00    +0.096 C 
BRANCH  17  19
ATOM     18  O   UNL     1      30.809 -22.425 -16.760  0.00  0.00    -0.275 OA
ATOM     19  N   UNL     1      33.036 -22.941 -16.290  0.00  0.00    -0.259 N 
ATOM     20  C   UNL     1      34.020 -23.266 -15.299  0.00  0.00    +0.053 C 
ATOM     21  C   UNL     1      33.614 -23.507 -13.975  0.00  0.00    +0.026 C 
ATOM     22  C   UNL     1      32.155 -23.479 -13.626  0.00  0.00    +0.040 C 
ATOM     23  C   UNL     1      31.448 -22.439 -14.469  0.00  0.00    +0.090 C 
ATOM     24  C   UNL     1      31.714 -22.630 -15.948  0.00  0.00    +0.230 C 
ATOM     25  C   UNL     1      35.384 -23.380 -15.613  0.00  0.00    +0.015 C 
ATOM     26  C   UNL     1      34.557 -23.857 -12.998  0.00  0.00    +0.136 C 
ATOM     27  C   UNL     1      36.319 -23.716 -14.632  0.00  0.00    +0.004 C 
ATOM     28  C   UNL     1      35.906 -23.954 -13.324  0.00  0.00    +0.037 C 
BRANCH  26  29
ATOM     29  O   UNL     1      34.183 -24.099 -11.708  0.00  0.00    -0.472 OA
ATOM     30  C   UNL     1      35.205 -24.039 -10.715  0.00  0.00    +0.252 C 
ENDBRANCH  26  29
ENDBRANCH  17  19
ENDBRANCH  16  17
ENDBRANCH   1  16
TORSDOF 6
ENDMDL
