MODEL 1
REMARK VINA RESULT:     -13.1      0.000      0.000
REMARK  Name = 5326866
REMARK  5 active torsions:
REMARK  status: ('A' for Active; 'I' for Inactive)
REMARK    1  A    between atoms: N_5  and  C_14
REMARK    2  A    between atoms: C_6  and  C_28
REMARK    3  A    between atoms: C_15  and  C_20
REMARK    4  A    between atoms: C_20  and  O_21
REMARK    5  A    between atoms: O_21  and  C_23
REMARK                            x       y       z     vdW  Elec       q    Type
REMARK                         _______ _______ _______ _____ _____    ______ ____
ROOT
ATOM      1  O   UNL     1      33.977 -20.655 -19.490  0.00  0.00    -0.252 OA
ATOM      2  N   UNL     1      35.004 -22.962 -16.116  0.00  0.00    -0.239 N 
ATOM      3  N   UNL     1      34.737 -22.202 -17.192  0.00  0.00    -0.166 NA
ATOM      4  N   UNL     1      36.067 -20.651 -18.428  0.00  0.00    -0.252 N 
ATOM      5  N   UNL     1      35.720 -19.307 -20.272  0.00  0.00    -0.268 N 
ATOM      6  C   UNL     1      36.250 -22.780 -15.703  0.00  0.00    +0.045 C 
ATOM      7  C   UNL     1      36.882 -21.902 -16.465  0.00  0.00    +0.048 C 
ATOM      8  C   UNL     1      35.887 -21.556 -17.401  0.00  0.00    +0.154 C 
ATOM      9  C   UNL     1      35.130 -20.246 -19.409  0.00  0.00    +0.309 C 
ATOM     10  H   UNL     1      34.359 -23.574 -15.692  0.00  0.00    +0.174 HD
ATOM     11  H   UNL     1      36.958 -20.237 -18.486  0.00  0.00    +0.158 HD
ATOM     12  H   UNL     1      36.658 -19.075 -20.081  0.00  0.00    +0.156 HD
ENDROOT
BRANCH   5  14
ATOM     13 CL   UNL     1      33.256 -16.615 -24.922  0.00  0.00    -0.082 Cl
ATOM     14  C   UNL     1      35.133 -18.654 -21.381  0.00  0.00    +0.051 C 
ATOM     15  C   UNL     1      34.523 -16.627 -22.509  0.00  0.00    +0.033 C 
ATOM     16  C   UNL     1      35.103 -17.270 -21.415  0.00  0.00    +0.015 C 
ATOM     17  C   UNL     1      34.598 -19.414 -22.408  0.00  0.00    +0.016 C 
ATOM     18  C   UNL     1      33.980 -17.377 -23.553  0.00  0.00    +0.057 C 
ATOM     19  C   UNL     1      34.018 -18.771 -23.502  0.00  0.00    +0.012 C 
BRANCH  15  20
ATOM     20  C   UNL     1      34.503 -15.132 -22.525  0.00  0.00    +0.233 C 
BRANCH  20  21
ATOM     21  O   UNL     1      33.735 -14.662 -21.425  0.00  0.00    -0.469 OA
BRANCH  21  23
ATOM     22  N   UNL     1      32.611 -11.561 -22.976  0.00  0.00    -0.239 NA
ATOM     23  C   UNL     1      33.051 -13.489 -21.607  0.00  0.00    +0.158 C 
ATOM     24  C   UNL     1      32.148 -13.049 -20.656  0.00  0.00    +0.040 C 
ATOM     25  C   UNL     1      33.252 -12.727 -22.737  0.00  0.00    +0.136 C 
ATOM     26  C   UNL     1      31.469 -11.854 -20.865  0.00  0.00    +0.024 C 
ATOM     27  C   UNL     1      31.734 -11.154 -22.032  0.00  0.00    +0.099 C 
ENDBRANCH  21  23
ENDBRANCH  20  21
ENDBRANCH  15  20
ENDBRANCH   5  14
BRANCH   6  28
ATOM     28  C   UNL     1      36.763 -23.563 -14.471  0.00  0.00    +0.033 C 
ATOM     29  C   UNL     1      38.259 -23.901 -14.649  0.00  0.00    +0.006 C 
ATOM     30  C   UNL     1      35.958 -24.871 -14.306  0.00  0.00    +0.006 C 
ATOM     31  C   UNL     1      36.629 -22.777 -13.148  0.00  0.00    +0.006 C 
ENDBRANCH   6  28
TORSDOF 5
ENDMDL
MODEL 2
REMARK VINA RESULT:     -11.9      3.200     11.413
REMARK  Name = 5326866
REMARK  5 active torsions:
REMARK  status: ('A' for Active; 'I' for Inactive)
REMARK    1  A    between atoms: N_5  and  C_14
REMARK    2  A    between atoms: C_6  and  C_28
REMARK    3  A    between atoms: C_15  and  C_20
REMARK    4  A    between atoms: C_20  and  O_21
REMARK    5  A    between atoms: O_21  and  C_23
REMARK                            x       y       z     vdW  Elec       q    Type
REMARK                         _______ _______ _______ _____ _____    ______ ____
ROOT
ATOM      1  O   UNL     1      31.862 -13.017 -22.461  0.00  0.00    -0.252 OA
ATOM      2  N   UNL     1      30.986  -8.933 -21.902  0.00  0.00    -0.239 N 
ATOM      3  N   UNL     1      31.320 -10.218 -22.111  0.00  0.00    -0.166 NA
ATOM      4  N   UNL     1      33.184 -11.232 -23.207  0.00  0.00    -0.252 N 
ATOM      5  N   UNL     1      33.856 -13.400 -23.620  0.00  0.00    -0.268 N 
ATOM      6  C   UNL     1      31.892  -8.116 -22.420  0.00  0.00    +0.045 C 
ATOM      7  C   UNL     1      32.871  -8.794 -22.998  0.00  0.00    +0.048 C 
ATOM      8  C   UNL     1      32.472 -10.128 -22.782  0.00  0.00    +0.154 C 
ATOM      9  C   UNL     1      32.862 -12.599 -23.035  0.00  0.00    +0.309 C 
ATOM     10  H   UNL     1      30.176  -8.638 -21.427  0.00  0.00    +0.174 HD
ATOM     11  H   UNL     1      34.021 -11.043 -23.691  0.00  0.00    +0.158 HD
ATOM     12  H   UNL     1      34.602 -12.920 -24.047  0.00  0.00    +0.156 HD
ENDROOT
BRANCH   5  14
ATOM     13 CL   UNL     1      34.102 -19.301 -23.873  0.00  0.00    -0.082 Cl
ATOM     14  C   UNL     1      33.919 -14.812 -23.671  0.00  0.00    +0.051 C 
ATOM     15  C   UNL     1      34.546 -16.899 -22.665  0.00  0.00    +0.033 C 
ATOM     16  C   UNL     1      34.484 -15.505 -22.613  0.00  0.00    +0.015 C 
ATOM     17  C   UNL     1      33.416 -15.473 -24.780  0.00  0.00    +0.016 C 
ATOM     18  C   UNL     1      34.043 -17.578 -23.775  0.00  0.00    +0.057 C 
ATOM     19  C   UNL     1      33.478 -16.865 -24.832  0.00  0.00    +0.012 C 
BRANCH  15  20
ATOM     20  C   UNL     1      35.159 -17.625 -21.512  0.00  0.00    +0.233 C 
BRANCH  20  21
ATOM     21  O   UNL     1      34.128 -18.114 -20.664  0.00  0.00    -0.469 OA
BRANCH  21  23
ATOM     22  N   UNL     1      33.162 -21.461 -19.594  0.00  0.00    -0.239 NA
ATOM     23  C   UNL     1      34.242 -19.411 -20.239  0.00  0.00    +0.158 C 
ATOM     24  C   UNL     1      35.488 -19.972 -20.025  0.00  0.00    +0.040 C 
ATOM     25  C   UNL     1      33.119 -20.177 -20.015  0.00  0.00    +0.136 C 
ATOM     26  C   UNL     1      35.574 -21.290 -19.591  0.00  0.00    +0.024 C 
ATOM     27  C   UNL     1      34.392 -21.986 -19.392  0.00  0.00    +0.099 C 
ENDBRANCH  21  23
ENDBRANCH  20  21
ENDBRANCH  15  20
ENDBRANCH   5  14
BRANCH   6  28
ATOM     28  C   UNL     1      31.698  -6.586 -22.291  0.00  0.00    +0.033 C 
ATOM     29  C   UNL     1      30.427  -6.153 -23.053  0.00  0.00    +0.006 C 
ATOM     30  C   UNL     1      32.923  -5.850 -22.877  0.00  0.00    +0.006 C 
ATOM     31  C   UNL     1      31.537  -6.111 -20.830  0.00  0.00    +0.006 C 
ENDBRANCH   6  28
TORSDOF 5
ENDMDL
MODEL 3
REMARK VINA RESULT:     -11.1      5.133      9.061
REMARK  Name = 5326866
REMARK  5 active torsions:
REMARK  status: ('A' for Active; 'I' for Inactive)
REMARK    1  A    between atoms: N_5  and  C_14
REMARK    2  A    between atoms: C_6  and  C_28
REMARK    3  A    between atoms: C_15  and  C_20
REMARK    4  A    between atoms: C_20  and  O_21
REMARK    5  A    between atoms: O_21  and  C_23
REMARK                            x       y       z     vdW  Elec       q    Type
REMARK                         _______ _______ _______ _____ _____    ______ ____
ROOT
ATOM      1  O   UNL     1      33.176 -12.365 -20.945  0.00  0.00    -0.252 OA
ATOM      2  N   UNL     1      34.522 -16.350 -20.690  0.00  0.00    -0.239 N 
ATOM      3  N   UNL     1      34.095 -15.084 -20.836  0.00  0.00    -0.166 NA
ATOM      4  N   UNL     1      33.669 -13.750 -22.770  0.00  0.00    -0.252 N 
ATOM      5  N   UNL     1      32.938 -11.592 -23.138  0.00  0.00    -0.268 N 
ATOM      6  C   UNL     1      34.732 -16.920 -21.869  0.00  0.00    +0.045 C 
ATOM      7  C   UNL     1      34.461 -16.084 -22.858  0.00  0.00    +0.048 C 
ATOM      8  C   UNL     1      34.060 -14.926 -22.162  0.00  0.00    +0.154 C 
ATOM      9  C   UNL     1      33.252 -12.545 -22.155  0.00  0.00    +0.309 C 
ATOM     10  H   UNL     1      34.661 -16.795 -19.823  0.00  0.00    +0.174 HD
ATOM     11  H   UNL     1      33.680 -13.750 -23.755  0.00  0.00    +0.158 HD
ATOM     12  H   UNL     1      33.048 -11.883 -24.072  0.00  0.00    +0.156 HD
ENDROOT
BRANCH   5  14
ATOM     13 CL   UNL     1      31.007  -6.062 -22.343  0.00  0.00    -0.082 Cl
ATOM     14  C   UNL     1      32.485 -10.265 -22.952  0.00  0.00    +0.051 C 
ATOM     15  C   UNL     1      32.897  -7.903 -23.026  0.00  0.00    +0.033 C 
ATOM     16  C   UNL     1      33.345  -9.211 -23.212  0.00  0.00    +0.015 C 
ATOM     17  C   UNL     1      31.190 -10.048 -22.509  0.00  0.00    +0.016 C 
ATOM     18  C   UNL     1      31.596  -7.667 -22.582  0.00  0.00    +0.057 C 
ATOM     19  C   UNL     1      30.743  -8.740 -22.324  0.00  0.00    +0.012 C 
BRANCH  15  20
ATOM     20  C   UNL     1      33.842  -6.782 -23.315  0.00  0.00    +0.233 C 
BRANCH  20  21
ATOM     21  O   UNL     1      34.062  -6.702 -24.717  0.00  0.00    -0.469 OA
BRANCH  21  23
ATOM     22  N   UNL     1      33.038  -4.449 -27.393  0.00  0.00    -0.239 NA
ATOM     23  C   UNL     1      33.633  -5.563 -25.346  0.00  0.00    +0.158 C 
ATOM     24  C   UNL     1      33.373  -4.416 -24.617  0.00  0.00    +0.040 C 
ATOM     25  C   UNL     1      33.456  -5.539 -26.712  0.00  0.00    +0.136 C 
ATOM     26  C   UNL     1      32.941  -3.273 -25.282  0.00  0.00    +0.024 C 
ATOM     27  C   UNL     1      32.790  -3.341 -26.658  0.00  0.00    +0.099 C 
ENDBRANCH  21  23
ENDBRANCH  20  21
ENDBRANCH  15  20
ENDBRANCH   5  14
BRANCH   6  28
ATOM     28  C   UNL     1      35.231 -18.384 -21.926  0.00  0.00    +0.033 C 
ATOM     29  C   UNL     1      36.774 -18.413 -21.916  0.00  0.00    +0.006 C 
ATOM     30  C   UNL     1      34.714 -19.064 -23.213  0.00  0.00    +0.006 C 
ATOM     31  C   UNL     1      34.750 -19.241 -20.735  0.00  0.00    +0.006 C 
ENDBRANCH   6  28
TORSDOF 5
ENDMDL
MODEL 4
REMARK VINA RESULT:     -11.1      1.793      2.528
REMARK  Name = 5326866
REMARK  5 active torsions:
REMARK  status: ('A' for Active; 'I' for Inactive)
REMARK    1  A    between atoms: N_5  and  C_14
REMARK    2  A    between atoms: C_6  and  C_28
REMARK    3  A    between atoms: C_15  and  C_20
REMARK    4  A    between atoms: C_20  and  O_21
REMARK    5  A    between atoms: O_21  and  C_23
REMARK                            x       y       z     vdW  Elec       q    Type
REMARK                         _______ _______ _______ _____ _____    ______ ____
ROOT
ATOM      1  O   UNL     1      34.402 -22.008 -18.073  0.00  0.00    -0.252 OA
ATOM      2  N   UNL     1      35.797 -24.000 -14.631  0.00  0.00    -0.239 N 
ATOM      3  N   UNL     1      35.408 -23.331 -15.731  0.00  0.00    -0.166 NA
ATOM      4  N   UNL     1      36.477 -21.650 -17.046  0.00  0.00    -0.252 N 
ATOM      5  N   UNL     1      35.914 -20.448 -18.934  0.00  0.00    -0.268 N 
ATOM      6  C   UNL     1      37.006 -23.617 -14.246  0.00  0.00    +0.045 C 
ATOM      7  C   UNL     1      37.491 -22.685 -15.050  0.00  0.00    +0.048 C 
ATOM      8  C   UNL     1      36.446 -22.529 -15.982  0.00  0.00    +0.154 C 
ATOM      9  C   UNL     1      35.481 -21.428 -18.027  0.00  0.00    +0.309 C 
ATOM     10  H   UNL     1      35.256 -24.683 -14.174  0.00  0.00    +0.174 HD
ATOM     11  H   UNL     1      37.296 -21.110 -17.134  0.00  0.00    +0.158 HD
ATOM     12  H   UNL     1      36.809 -20.071 -18.767  0.00  0.00    +0.156 HD
ENDROOT
BRANCH   5  14
ATOM     13 CL   UNL     1      33.002 -18.330 -23.621  0.00  0.00    -0.082 Cl
ATOM     14  C   UNL     1      35.225 -19.934 -20.057  0.00  0.00    +0.051 C 
ATOM     15  C   UNL     1      35.062 -18.335 -21.839  0.00  0.00    +0.033 C 
ATOM     16  C   UNL     1      35.744 -18.842 -20.731  0.00  0.00    +0.015 C 
ATOM     17  C   UNL     1      34.042 -20.534 -20.458  0.00  0.00    +0.016 C 
ATOM     18  C   UNL     1      33.871 -18.929 -22.256  0.00  0.00    +0.057 C 
ATOM     19  C   UNL     1      33.361 -20.029 -21.565  0.00  0.00    +0.012 C 
BRANCH  15  20
ATOM     20  C   UNL     1      35.643 -17.156 -22.550  0.00  0.00    +0.233 C 
BRANCH  20  21
ATOM     21  O   UNL     1      34.986 -15.974 -22.113  0.00  0.00    -0.469 OA
BRANCH  21  23
ATOM     22  N   UNL     1      33.519 -15.086 -25.329  0.00  0.00    -0.239 NA
ATOM     23  C   UNL     1      34.301 -15.261 -23.061  0.00  0.00    +0.158 C 
ATOM     24  C   UNL     1      33.721 -14.047 -22.742  0.00  0.00    +0.040 C 
ATOM     25  C   UNL     1      34.180 -15.740 -24.347  0.00  0.00    +0.136 C 
ATOM     26  C   UNL     1      33.033 -13.344 -23.725  0.00  0.00    +0.024 C 
ATOM     27  C   UNL     1      32.962 -13.902 -24.991  0.00  0.00    +0.099 C 
ENDBRANCH  21  23
ENDBRANCH  20  21
ENDBRANCH  15  20
ENDBRANCH   5  14
BRANCH   6  28
ATOM     28  C   UNL     1      37.644 -24.264 -12.993  0.00  0.00    +0.033 C 
ATOM     29  C   UNL     1      37.570 -23.285 -11.801  0.00  0.00    +0.006 C 
ATOM     30  C   UNL     1      39.120 -24.616 -13.277  0.00  0.00    +0.006 C 
ATOM     31  C   UNL     1      36.942 -25.568 -12.554  0.00  0.00    +0.006 C 
ENDBRANCH   6  28
TORSDOF 5
ENDMDL
MODEL 5
REMARK VINA RESULT:     -10.8      4.683     10.675
REMARK  Name = 5326866
REMARK  5 active torsions:
REMARK  status: ('A' for Active; 'I' for Inactive)
REMARK    1  A    between atoms: N_5  and  C_14
REMARK    2  A    between atoms: C_6  and  C_28
REMARK    3  A    between atoms: C_15  and  C_20
REMARK    4  A    between atoms: C_20  and  O_21
REMARK    5  A    between atoms: O_21  and  C_23
REMARK                            x       y       z     vdW  Elec       q    Type
REMARK                         _______ _______ _______ _____ _____    ______ ____
ROOT
ATOM      1  O   UNL     1      33.236 -22.150 -17.379  0.00  0.00    -0.252 OA
ATOM      2  N   UNL     1      35.335 -19.965 -20.308  0.00  0.00    -0.239 N 
ATOM      3  N   UNL     1      34.610 -20.638 -19.398  0.00  0.00    -0.166 NA
ATOM      4  N   UNL     1      32.259 -20.774 -19.005  0.00  0.00    -0.252 N 
ATOM      5  N   UNL     1      30.916 -21.887 -17.494  0.00  0.00    -0.268 N 
ATOM      6  C   UNL     1      34.552 -19.261 -21.112  0.00  0.00    +0.045 C 
ATOM      7  C   UNL     1      33.277 -19.417 -20.795  0.00  0.00    +0.048 C 
ATOM      8  C   UNL     1      33.354 -20.300 -19.699  0.00  0.00    +0.154 C 
ATOM      9  C   UNL     1      32.241 -21.658 -17.900  0.00  0.00    +0.309 C 
ATOM     10  H   UNL     1      36.318 -19.992 -20.368  0.00  0.00    +0.174 HD
ATOM     11  H   UNL     1      31.380 -20.458 -19.318  0.00  0.00    +0.158 HD
ATOM     12  H   UNL     1      30.219 -21.421 -18.011  0.00  0.00    +0.156 HD
ENDROOT
BRANCH   5  14
ATOM     13 CL   UNL     1      28.966 -25.300 -13.079  0.00  0.00    -0.082 Cl
ATOM     14  C   UNL     1      30.458 -22.703 -16.433  0.00  0.00    +0.051 C 
ATOM     15  C   UNL     1      30.906 -23.945 -14.429  0.00  0.00    +0.033 C 
ATOM     16  C   UNL     1      31.358 -23.138 -15.475  0.00  0.00    +0.015 C 
ATOM     17  C   UNL     1      29.119 -23.054 -16.377  0.00  0.00    +0.016 C 
ATOM     18  C   UNL     1      29.561 -24.305 -14.358  0.00  0.00    +0.057 C 
ATOM     19  C   UNL     1      28.668 -23.859 -15.333  0.00  0.00    +0.012 C 
BRANCH  15  20
ATOM     20  C   UNL     1      31.896 -24.400 -13.406  0.00  0.00    +0.233 C 
BRANCH  20  21
ATOM     21  O   UNL     1      32.982 -23.485 -13.363  0.00  0.00    -0.469 OA
BRANCH  21  23
ATOM     22  N   UNL     1      35.932 -24.910 -14.961  0.00  0.00    -0.239 NA
ATOM     23  C   UNL     1      34.239 -24.010 -13.508  0.00  0.00    +0.158 C 
ATOM     24  C   UNL     1      35.061 -24.176 -12.408  0.00  0.00    +0.040 C 
ATOM     25  C   UNL     1      34.704 -24.384 -14.750  0.00  0.00    +0.136 C 
ATOM     26  C   UNL     1      36.331 -24.713 -12.584  0.00  0.00    +0.024 C 
ATOM     27  C   UNL     1      36.715 -25.061 -13.869  0.00  0.00    +0.099 C 
ENDBRANCH  21  23
ENDBRANCH  20  21
ENDBRANCH  15  20
ENDBRANCH   5  14
BRANCH   6  28
ATOM     28  C   UNL     1      35.189 -18.407 -22.235  0.00  0.00    +0.033 C 
ATOM     29  C   UNL     1      34.828 -19.000 -23.614  0.00  0.00    +0.006 C 
ATOM     30  C   UNL     1      36.725 -18.387 -22.072  0.00  0.00    +0.006 C 
ATOM     31  C   UNL     1      34.713 -16.938 -22.232  0.00  0.00    +0.006 C 
ENDBRANCH   6  28
TORSDOF 5
ENDMDL
MODEL 6
REMARK VINA RESULT:     -10.3      3.420     12.251
REMARK  Name = 5326866
REMARK  5 active torsions:
REMARK  status: ('A' for Active; 'I' for Inactive)
REMARK    1  A    between atoms: N_5  and  C_14
REMARK    2  A    between atoms: C_6  and  C_28
REMARK    3  A    between atoms: C_15  and  C_20
REMARK    4  A    between atoms: C_20  and  O_21
REMARK    5  A    between atoms: O_21  and  C_23
REMARK                            x       y       z     vdW  Elec       q    Type
REMARK                         _______ _______ _______ _____ _____    ______ ____
ROOT
ATOM      1  O   UNL     1      33.892 -10.660 -23.751  0.00  0.00    -0.252 OA
ATOM      2  N   UNL     1      32.953  -6.602 -23.110  0.00  0.00    -0.239 N 
ATOM      3  N   UNL     1      33.200  -7.913 -23.280  0.00  0.00    -0.166 NA
ATOM      4  N   UNL     1      32.058  -9.869 -22.525  0.00  0.00    -0.252 N 
ATOM      5  N   UNL     1      32.383 -12.142 -22.755  0.00  0.00    -0.268 N 
ATOM      6  C   UNL     1      31.862  -6.415 -22.380  0.00  0.00    +0.045 C 
ATOM      7  C   UNL     1      31.322  -7.569 -22.024  0.00  0.00    +0.048 C 
ATOM      8  C   UNL     1      32.201  -8.499 -22.614  0.00  0.00    +0.154 C 
ATOM      9  C   UNL     1      32.886 -10.872 -23.082  0.00  0.00    +0.309 C 
ATOM     10  H   UNL     1      33.508  -5.878 -23.479  0.00  0.00    +0.174 HD
ATOM     11  H   UNL     1      31.282 -10.188 -22.009  0.00  0.00    +0.158 HD
ATOM     12  H   UNL     1      31.563 -12.154 -22.209  0.00  0.00    +0.156 HD
ENDROOT
BRANCH   5  14
ATOM     13 CL   UNL     1      34.570 -17.415 -24.289  0.00  0.00    -0.082 Cl
ATOM     14  C   UNL     1      32.908 -13.406 -23.112  0.00  0.00    +0.051 C 
ATOM     15  C   UNL     1      34.018 -15.441 -22.493  0.00  0.00    +0.033 C 
ATOM     16  C   UNL     1      33.499 -14.195 -22.139  0.00  0.00    +0.015 C 
ATOM     17  C   UNL     1      32.823 -13.827 -24.429  0.00  0.00    +0.016 C 
ATOM     18  C   UNL     1      33.940 -15.880 -23.815  0.00  0.00    +0.057 C 
ATOM     19  C   UNL     1      33.342 -15.072 -24.783  0.00  0.00    +0.012 C 
BRANCH  15  20
ATOM     20  C   UNL     1      34.650 -16.275 -21.426  0.00  0.00    +0.233 C 
BRANCH  20  21
ATOM     21  O   UNL     1      35.023 -17.533 -21.972  0.00  0.00    -0.469 OA
BRANCH  21  23
ATOM     22  N   UNL     1      35.991 -20.186 -19.667  0.00  0.00    -0.239 NA
ATOM     23  C   UNL     1      34.918 -18.621 -21.146  0.00  0.00    +0.158 C 
ATOM     24  C   UNL     1      33.696 -19.240 -20.954  0.00  0.00    +0.040 C 
ATOM     25  C   UNL     1      36.026 -19.116 -20.494  0.00  0.00    +0.136 C 
ATOM     26  C   UNL     1      33.619 -20.344 -20.112  0.00  0.00    +0.024 C 
ATOM     27  C   UNL     1      34.785 -20.773 -19.497  0.00  0.00    +0.099 C 
ENDBRANCH  21  23
ENDBRANCH  20  21
ENDBRANCH  15  20
ENDBRANCH   5  14
BRANCH   6  28
ATOM     28  C   UNL     1      31.399  -4.972 -22.063  0.00  0.00    +0.033 C 
ATOM     29  C   UNL     1      32.003  -3.990 -23.089  0.00  0.00    +0.006 C 
ATOM     30  C   UNL     1      31.857  -4.574 -20.642  0.00  0.00    +0.006 C 
ATOM     31  C   UNL     1      29.866  -4.797 -22.113  0.00  0.00    +0.006 C 
ENDBRANCH   6  28
TORSDOF 5
ENDMDL
MODEL 7
REMARK VINA RESULT:     -10.1      5.843     14.202
REMARK  Name = 5326866
REMARK  5 active torsions:
REMARK  status: ('A' for Active; 'I' for Inactive)
REMARK    1  A    between atoms: N_5  and  C_14
REMARK    2  A    between atoms: C_6  and  C_28
REMARK    3  A    between atoms: C_15  and  C_20
REMARK    4  A    between atoms: C_20  and  O_21
REMARK    5  A    between atoms: O_21  and  C_23
REMARK                            x       y       z     vdW  Elec       q    Type
REMARK                         _______ _______ _______ _____ _____    ______ ____
ROOT
ATOM      1  O   UNL     1      33.042  -7.948 -22.260  0.00  0.00    -0.252 OA
ATOM      2  N   UNL     1      32.774  -4.109 -23.977  0.00  0.00    -0.239 N 
ATOM      3  N   UNL     1      32.817  -5.355 -23.473  0.00  0.00    -0.166 NA
ATOM      4  N   UNL     1      31.693  -7.370 -24.086  0.00  0.00    -0.252 N 
ATOM      5  N   UNL     1      31.690  -9.542 -23.307  0.00  0.00    -0.268 N 
ATOM      6  C   UNL     1      31.938  -4.039 -25.002  0.00  0.00    +0.045 C 
ATOM      7  C   UNL     1      31.379  -5.215 -25.243  0.00  0.00    +0.048 C 
ATOM      8  C   UNL     1      31.963  -6.026 -24.250  0.00  0.00    +0.154 C 
ATOM      9  C   UNL     1      32.229  -8.258 -23.123  0.00  0.00    +0.309 C 
ATOM     10  H   UNL     1      33.296  -3.349 -23.629  0.00  0.00    +0.174 HD
ATOM     11  H   UNL     1      31.047  -7.760 -24.720  0.00  0.00    +0.158 HD
ATOM     12  H   UNL     1      31.046  -9.638 -24.045  0.00  0.00    +0.156 HD
ENDROOT
BRANCH   5  14
ATOM     13 CL   UNL     1      32.783 -14.429 -20.166  0.00  0.00    -0.082 Cl
ATOM     14  C   UNL     1      31.959 -10.714 -22.562  0.00  0.00    +0.051 C 
ATOM     15  C   UNL     1      33.133 -12.792 -22.316  0.00  0.00    +0.033 C 
ATOM     16  C   UNL     1      32.870 -11.635 -23.051  0.00  0.00    +0.015 C 
ATOM     17  C   UNL     1      31.302 -10.917 -21.359  0.00  0.00    +0.016 C 
ATOM     18  C   UNL     1      32.481 -13.011 -21.102  0.00  0.00    +0.057 C 
ATOM     19  C   UNL     1      31.566 -12.073 -20.624  0.00  0.00    +0.012 C 
BRANCH  15  20
ATOM     20  C   UNL     1      34.121 -13.771 -22.864  0.00  0.00    +0.233 C 
BRANCH  20  21
ATOM     21  O   UNL     1      33.449 -14.687 -23.719  0.00  0.00    -0.469 OA
BRANCH  21  23
ATOM     22  N   UNL     1      33.485 -18.282 -24.318  0.00  0.00    -0.239 NA
ATOM     23  C   UNL     1      33.759 -16.013 -23.568  0.00  0.00    +0.158 C 
ATOM     24  C   UNL     1      34.614 -16.423 -22.561  0.00  0.00    +0.040 C 
ATOM     25  C   UNL     1      33.222 -16.959 -24.414  0.00  0.00    +0.136 C 
ATOM     26  C   UNL     1      34.909 -17.775 -22.431  0.00  0.00    +0.024 C 
ATOM     27  C   UNL     1      34.324 -18.656 -23.327  0.00  0.00    +0.099 C 
ENDBRANCH  21  23
ENDBRANCH  20  21
ENDBRANCH  15  20
ENDBRANCH   5  14
BRANCH   6  28
ATOM     28  C   UNL     1      31.738  -2.688 -25.729  0.00  0.00    +0.033 C 
ATOM     29  C   UNL     1      32.972  -1.786 -25.510  0.00  0.00    +0.006 C 
ATOM     30  C   UNL     1      30.481  -1.978 -25.181  0.00  0.00    +0.006 C 
ATOM     31  C   UNL     1      31.548  -2.836 -27.254  0.00  0.00    +0.006 C 
ENDBRANCH   6  28
TORSDOF 5
ENDMDL
MODEL 8
REMARK VINA RESULT:     -10.1      5.587      9.036
REMARK  Name = 5326866
REMARK  5 active torsions:
REMARK  status: ('A' for Active; 'I' for Inactive)
REMARK    1  A    between atoms: N_5  and  C_14
REMARK    2  A    between atoms: C_6  and  C_28
REMARK    3  A    between atoms: C_15  and  C_20
REMARK    4  A    between atoms: C_20  and  O_21
REMARK    5  A    between atoms: O_21  and  C_23
REMARK                            x       y       z     vdW  Elec       q    Type
REMARK                         _______ _______ _______ _____ _____    ______ ____
ROOT
ATOM      1  O   UNL     1      33.453 -12.050 -22.543  0.00  0.00    -0.252 OA
ATOM      2  N   UNL     1      34.983 -15.953 -22.977  0.00  0.00    -0.239 N 
ATOM      3  N   UNL     1      34.470 -14.726 -22.782  0.00  0.00    -0.166 NA
ATOM      4  N   UNL     1      33.180 -13.793 -21.001  0.00  0.00    -0.252 N 
ATOM      5  N   UNL     1      32.258 -11.724 -20.561  0.00  0.00    -0.268 N 
ATOM      6  C   UNL     1      34.690 -16.757 -21.965  0.00  0.00    +0.045 C 
ATOM      7  C   UNL     1      33.975 -16.127 -21.046  0.00  0.00    +0.048 C 
ATOM      8  C   UNL     1      33.855 -14.838 -21.601  0.00  0.00    +0.154 C 
ATOM      9  C   UNL     1      33.009 -12.473 -21.482  0.00  0.00    +0.309 C 
ATOM     10  H   UNL     1      35.507 -16.218 -23.767  0.00  0.00    +0.174 HD
ATOM     11  H   UNL     1      32.767 -13.992 -20.130  0.00  0.00    +0.158 HD
ATOM     12  H   UNL     1      31.970 -12.202 -19.749  0.00  0.00    +0.156 HD
ENDROOT
BRANCH   5  14
ATOM     13 CL   UNL     1      30.620  -6.056 -20.916  0.00  0.00    -0.082 Cl
ATOM     14  C   UNL     1      31.864 -10.369 -20.656  0.00  0.00    +0.051 C 
ATOM     15  C   UNL     1      31.161  -8.502 -21.988  0.00  0.00    +0.033 C 
ATOM     16  C   UNL     1      31.549  -9.839 -21.896  0.00  0.00    +0.015 C 
ATOM     17  C   UNL     1      31.805  -9.599 -19.505  0.00  0.00    +0.016 C 
ATOM     18  C   UNL     1      31.096  -7.713 -20.839  0.00  0.00    +0.057 C 
ATOM     19  C   UNL     1      31.418  -8.263 -19.598  0.00  0.00    +0.012 C 
BRANCH  15  20
ATOM     20  C   UNL     1      30.824  -7.953 -23.337  0.00  0.00    +0.233 C 
BRANCH  20  21
ATOM     21  O   UNL     1      32.025  -7.622 -24.022  0.00  0.00    -0.469 OA
BRANCH  21  23
ATOM     22  N   UNL     1      31.355  -4.098 -24.665  0.00  0.00    -0.239 NA
ATOM     23  C   UNL     1      32.252  -6.293 -24.263  0.00  0.00    +0.158 C 
ATOM     24  C   UNL     1      33.544  -5.807 -24.352  0.00  0.00    +0.040 C 
ATOM     25  C   UNL     1      31.199  -5.419 -24.424  0.00  0.00    +0.136 C 
ATOM     26  C   UNL     1      33.745  -4.454 -24.600  0.00  0.00    +0.024 C 
ATOM     27  C   UNL     1      32.627  -3.648 -24.747  0.00  0.00    +0.099 C 
ENDBRANCH  21  23
ENDBRANCH  20  21
ENDBRANCH  15  20
ENDBRANCH   5  14
BRANCH   6  28
ATOM     28  C   UNL     1      35.187 -18.223 -21.992  0.00  0.00    +0.033 C 
ATOM     29  C   UNL     1      34.623 -18.990 -20.777  0.00  0.00    +0.006 C 
ATOM     30  C   UNL     1      36.731 -18.255 -21.947  0.00  0.00    +0.006 C 
ATOM     31  C   UNL     1      34.753 -18.992 -23.259  0.00  0.00    +0.006 C 
ENDBRANCH   6  28
TORSDOF 5
ENDMDL
