MODEL 1
REMARK VINA RESULT:     -12.4      0.000      0.000
REMARK  Name = 6433122
REMARK  5 active torsions:
REMARK  status: ('A' for Active; 'I' for Inactive)
REMARK    1  A    between atoms: N_2  and  C_22
REMARK    2  A    between atoms: C_8  and  C_11
REMARK    3  A    between atoms: C_16  and  C_21
REMARK    4  A    between atoms: C_22  and  C_23
REMARK    5  A    between atoms: C_23  and  C_25
REMARK                            x       y       z     vdW  Elec       q    Type
REMARK                         _______ _______ _______ _____ _____    ______ ____
ROOT
ATOM      1  O   UNL     1      32.909 -22.223 -16.774  0.00  0.00    -0.270 OA
ATOM      2  N   UNL     1      34.125 -19.961 -21.060  0.00  0.00    +0.389 N 
ATOM      3  N   UNL     1      34.062 -21.597 -18.709  0.00  0.00    -0.280 N 
ATOM      4  C   UNL     1      32.907 -20.042 -20.239  0.00  0.00    -0.055 C 
ATOM      5  C   UNL     1      35.321 -20.096 -20.216  0.00  0.00    -0.055 C 
ATOM      6  C   UNL     1      32.849 -21.373 -19.492  0.00  0.00    +0.071 C 
ATOM      7  C   UNL     1      35.314 -21.423 -19.456  0.00  0.00    +0.071 C 
ATOM      8  C   UNL     1      33.959 -22.015 -17.380  0.00  0.00    +0.250 C 
ATOM      9  H   UNL     1      34.114 -20.730 -21.729  0.00  0.00    -0.080 HD
ENDROOT
BRANCH   8  11
ATOM     10  N   UNL     1      34.392 -24.208 -15.282  0.00  0.00    -0.311 N 
ATOM     11  C   UNL     1      35.199 -22.237 -16.626  0.00  0.00    +0.067 C 
ATOM     12  C   UNL     1      35.310 -23.264 -15.687  0.00  0.00    +0.053 C 
ATOM     13  C   UNL     1      36.481 -23.492 -14.961  0.00  0.00    +0.024 C 
ATOM     14  C   UNL     1      36.308 -21.419 -16.835  0.00  0.00    +0.006 C 
ATOM     15  C   UNL     1      37.591 -22.654 -15.184  0.00  0.00    +0.002 C 
ATOM     16  C   UNL     1      36.234 -24.605 -14.109  0.00  0.00    +0.084 C 
ATOM     17  C   UNL     1      37.490 -21.622 -16.125  0.00  0.00    +0.000 C 
ATOM     18  C   UNL     1      34.941 -25.023 -14.329  0.00  0.00    +0.072 C 
ATOM     19  H   UNL     1      33.475 -24.287 -15.630  0.00  0.00    +0.152 HD
BRANCH  16  21
ATOM     20  N   UNL     1      37.866 -25.702 -12.419  0.00  0.00    -0.191 NA
ATOM     21  C   UNL     1      37.131 -25.208 -13.180  0.00  0.00    +0.102 C 
ENDBRANCH  16  21
ENDBRANCH   8  11
BRANCH   2  22
ATOM     22  C   UNL     1      34.160 -18.702 -21.803  0.00  0.00    -0.072 C 
BRANCH  22  23
ATOM     23  C   UNL     1      34.911 -17.624 -21.020  0.00  0.00    +0.004 C 
BRANCH  23  25
ATOM     24  F   UNL     1      33.432 -12.462 -22.678  0.00  0.00    -0.204 F 
ATOM     25  C   UNL     1      34.514 -16.239 -21.465  0.00  0.00    -0.024 C 
ATOM     26  C   UNL     1      34.580 -15.912 -22.811  0.00  0.00    -0.002 C 
ATOM     27  C   UNL     1      34.089 -15.317 -20.521  0.00  0.00    -0.002 C 
ATOM     28  C   UNL     1      34.212 -14.630 -23.222  0.00  0.00    +0.029 C 
ATOM     29  C   UNL     1      33.721 -14.036 -20.932  0.00  0.00    +0.029 C 
ATOM     30  C   UNL     1      33.783 -13.692 -22.283  0.00  0.00    +0.140 C 
ENDBRANCH  23  25
ENDBRANCH  22  23
ENDBRANCH   2  22
TORSDOF 5
ENDMDL
MODEL 2
REMARK VINA RESULT:     -12.2      4.350      9.901
REMARK  Name = 6433122
REMARK  5 active torsions:
REMARK  status: ('A' for Active; 'I' for Inactive)
REMARK    1  A    between atoms: N_2  and  C_22
REMARK    2  A    between atoms: C_8  and  C_11
REMARK    3  A    between atoms: C_16  and  C_21
REMARK    4  A    between atoms: C_22  and  C_23
REMARK    5  A    between atoms: C_23  and  C_25
REMARK                            x       y       z     vdW  Elec       q    Type
REMARK                         _______ _______ _______ _____ _____    ______ ____
ROOT
ATOM      1  O   UNL     1      36.663 -18.060 -20.989  0.00  0.00    -0.270 OA
ATOM      2  N   UNL     1      33.136 -21.244 -19.446  0.00  0.00    +0.389 N 
ATOM      3  N   UNL     1      34.758 -19.415 -20.938  0.00  0.00    -0.280 N 
ATOM      4  C   UNL     1      34.455 -20.834 -18.941  0.00  0.00    -0.055 C 
ATOM      5  C   UNL     1      32.515 -20.150 -20.206  0.00  0.00    -0.055 C 
ATOM      6  C   UNL     1      35.373 -20.438 -20.096  0.00  0.00    +0.071 C 
ATOM      7  C   UNL     1      33.395 -19.727 -21.383  0.00  0.00    +0.071 C 
ATOM      8  C   UNL     1      35.498 -18.290 -21.310  0.00  0.00    +0.250 C 
ATOM      9  H   UNL     1      33.263 -22.040 -20.071  0.00  0.00    -0.080 HD
ENDROOT
BRANCH   8  11
ATOM     10  N   UNL     1      34.378 -15.601 -20.352  0.00  0.00    -0.311 N 
ATOM     11  C   UNL     1      34.850 -17.285 -22.163  0.00  0.00    +0.067 C 
ATOM     12  C   UNL     1      34.368 -16.084 -21.642  0.00  0.00    +0.053 C 
ATOM     13  C   UNL     1      33.751 -15.116 -22.438  0.00  0.00    +0.024 C 
ATOM     14  C   UNL     1      34.702 -17.513 -23.531  0.00  0.00    +0.006 C 
ATOM     15  C   UNL     1      33.608 -15.363 -23.818  0.00  0.00    +0.002 C 
ATOM     16  C   UNL     1      33.392 -14.037 -21.581  0.00  0.00    +0.084 C 
ATOM     17  C   UNL     1      34.089 -16.566 -24.349  0.00  0.00    +0.000 C 
ATOM     18  C   UNL     1      33.791 -14.365 -20.306  0.00  0.00    +0.072 C 
ATOM     19  H   UNL     1      34.755 -16.075 -19.577  0.00  0.00    +0.152 HD
BRANCH  16  21
ATOM     20  N   UNL     1      32.202 -11.827 -22.228  0.00  0.00    -0.191 NA
ATOM     21  C   UNL     1      32.738 -12.823 -21.936  0.00  0.00    +0.102 C 
ENDBRANCH  16  21
ENDBRANCH   8  11
BRANCH   2  22
ATOM     22  C   UNL     1      32.270 -21.660 -18.343  0.00  0.00    -0.072 C 
BRANCH  22  23
ATOM     23  C   UNL     1      33.007 -22.609 -17.396  0.00  0.00    +0.004 C 
BRANCH  23  25
ATOM     24  F   UNL     1      30.247 -23.231 -12.540  0.00  0.00    -0.204 F 
ATOM     25  C   UNL     1      32.267 -22.775 -16.093  0.00  0.00    -0.024 C 
ATOM     26  C   UNL     1      32.971 -23.117 -14.949  0.00  0.00    -0.002 C 
ATOM     27  C   UNL     1      30.894 -22.584 -16.061  0.00  0.00    -0.002 C 
ATOM     28  C   UNL     1      32.286 -23.272 -13.744  0.00  0.00    +0.029 C 
ATOM     29  C   UNL     1      30.209 -22.738 -14.856  0.00  0.00    +0.029 C 
ATOM     30  C   UNL     1      30.904 -23.082 -13.697  0.00  0.00    +0.140 C 
ENDBRANCH  23  25
ENDBRANCH  22  23
ENDBRANCH   2  22
TORSDOF 5
ENDMDL
MODEL 3
REMARK VINA RESULT:     -11.9      4.141      6.899
REMARK  Name = 6433122
REMARK  5 active torsions:
REMARK  status: ('A' for Active; 'I' for Inactive)
REMARK    1  A    between atoms: N_2  and  C_22
REMARK    2  A    between atoms: C_8  and  C_11
REMARK    3  A    between atoms: C_16  and  C_21
REMARK    4  A    between atoms: C_22  and  C_23
REMARK    5  A    between atoms: C_23  and  C_25
REMARK                            x       y       z     vdW  Elec       q    Type
REMARK                         _______ _______ _______ _____ _____    ______ ____
ROOT
ATOM      1  O   UNL     1      33.974 -18.355 -24.455  0.00  0.00    -0.270 OA
ATOM      2  N   UNL     1      33.195 -13.579 -23.211  0.00  0.00    +0.389 N 
ATOM      3  N   UNL     1      34.194 -16.252 -23.455  0.00  0.00    -0.280 N 
ATOM      4  C   UNL     1      32.681 -14.475 -24.257  0.00  0.00    -0.055 C 
ATOM      5  C   UNL     1      33.562 -14.347 -22.012  0.00  0.00    -0.055 C 
ATOM      6  C   UNL     1      33.728 -15.522 -24.631  0.00  0.00    +0.071 C 
ATOM      7  C   UNL     1      34.620 -15.403 -22.337  0.00  0.00    +0.071 C 
ATOM      8  C   UNL     1      34.271 -17.647 -23.493  0.00  0.00    +0.250 C 
ATOM      9  H   UNL     1      34.031 -13.116 -23.565  0.00  0.00    -0.080 HD
ENDROOT
BRANCH   8  11
ATOM     10  N   UNL     1      32.573 -19.457 -21.694  0.00  0.00    -0.311 N 
ATOM     11  C   UNL     1      34.751 -18.347 -22.295  0.00  0.00    +0.067 C 
ATOM     12  C   UNL     1      33.907 -19.155 -21.533  0.00  0.00    +0.053 C 
ATOM     13  C   UNL     1      34.345 -19.830 -20.391  0.00  0.00    +0.024 C 
ATOM     14  C   UNL     1      36.079 -18.221 -21.890  0.00  0.00    +0.006 C 
ATOM     15  C   UNL     1      35.690 -19.689 -19.995  0.00  0.00    +0.002 C 
ATOM     16  C   UNL     1      33.229 -20.547 -19.876  0.00  0.00    +0.084 C 
ATOM     17  C   UNL     1      36.545 -18.882 -20.755  0.00  0.00    +0.000 C 
ATOM     18  C   UNL     1      32.154 -20.298 -20.698  0.00  0.00    +0.072 C 
ATOM     19  H   UNL     1      32.003 -19.119 -22.422  0.00  0.00    +0.152 HD
BRANCH  16  21
ATOM     20  N   UNL     1      33.152 -22.065 -17.775  0.00  0.00    -0.191 NA
ATOM     21  C   UNL     1      33.187 -21.381 -18.722  0.00  0.00    +0.102 C 
ENDBRANCH  16  21
ENDBRANCH   8  11
BRANCH   2  22
ATOM     22  C   UNL     1      32.206 -12.554 -22.881  0.00  0.00    -0.072 C 
BRANCH  22  23
ATOM     23  C   UNL     1      31.962 -12.493 -21.372  0.00  0.00    +0.004 C 
BRANCH  23  25
ATOM     24  F   UNL     1      31.032  -7.229 -19.640  0.00  0.00    -0.204 F 
ATOM     25  C   UNL     1      31.712 -11.081 -20.907  0.00  0.00    -0.024 C 
ATOM     26  C   UNL     1      31.575 -10.070 -21.846  0.00  0.00    -0.002 C 
ATOM     27  C   UNL     1      31.624 -10.817 -19.549  0.00  0.00    -0.002 C 
ATOM     28  C   UNL     1      31.344  -8.763 -21.416  0.00  0.00    +0.029 C 
ATOM     29  C   UNL     1      31.392  -9.511 -19.119  0.00  0.00    +0.029 C 
ATOM     30  C   UNL     1      31.253  -8.483 -20.052  0.00  0.00    +0.140 C 
ENDBRANCH  23  25
ENDBRANCH  22  23
ENDBRANCH   2  22
TORSDOF 5
ENDMDL
MODEL 4
REMARK VINA RESULT:     -11.8      4.299     10.045
REMARK  Name = 6433122
REMARK  5 active torsions:
REMARK  status: ('A' for Active; 'I' for Inactive)
REMARK    1  A    between atoms: N_2  and  C_22
REMARK    2  A    between atoms: C_8  and  C_11
REMARK    3  A    between atoms: C_16  and  C_21
REMARK    4  A    between atoms: C_22  and  C_23
REMARK    5  A    between atoms: C_23  and  C_25
REMARK                            x       y       z     vdW  Elec       q    Type
REMARK                         _______ _______ _______ _____ _____    ______ ____
ROOT
ATOM      1  O   UNL     1      36.645 -17.947 -20.725  0.00  0.00    -0.270 OA
ATOM      2  N   UNL     1      33.120 -21.317 -19.639  0.00  0.00    +0.389 N 
ATOM      3  N   UNL     1      34.649 -19.165 -20.749  0.00  0.00    -0.280 N 
ATOM      4  C   UNL     1      34.537 -21.150 -19.287  0.00  0.00    -0.055 C 
ATOM      5  C   UNL     1      32.494 -20.009 -19.881  0.00  0.00    -0.055 C 
ATOM      6  C   UNL     1      35.289 -20.432 -20.407  0.00  0.00    +0.071 C 
ATOM      7  C   UNL     1      33.207 -19.257 -21.006  0.00  0.00    +0.071 C 
ATOM      8  C   UNL     1      35.425 -18.010 -20.877  0.00  0.00    +0.250 C 
ATOM      9  H   UNL     1      33.063 -21.866 -20.496  0.00  0.00    -0.080 HD
ENDROOT
BRANCH   8  11
ATOM     10  N   UNL     1      34.688 -17.129 -23.719  0.00  0.00    -0.311 N 
ATOM     11  C   UNL     1      34.749 -16.755 -21.230  0.00  0.00    +0.067 C 
ATOM     12  C   UNL     1      34.450 -16.433 -22.554  0.00  0.00    +0.053 C 
ATOM     13  C   UNL     1      33.807 -15.245 -22.909  0.00  0.00    +0.024 C 
ATOM     14  C   UNL     1      34.386 -15.848 -20.236  0.00  0.00    +0.006 C 
ATOM     15  C   UNL     1      33.448 -14.339 -21.892  0.00  0.00    +0.002 C 
ATOM     16  C   UNL     1      33.666 -15.254 -24.326  0.00  0.00    +0.084 C 
ATOM     17  C   UNL     1      33.743 -14.654 -20.561  0.00  0.00    +0.000 C 
ATOM     18  C   UNL     1      34.217 -16.425 -24.795  0.00  0.00    +0.072 C 
ATOM     19  H   UNL     1      35.130 -18.007 -23.771  0.00  0.00    +0.152 HD
BRANCH  16  21
ATOM     20  N   UNL     1      32.585 -13.434 -25.824  0.00  0.00    -0.191 NA
ATOM     21  C   UNL     1      33.072 -14.254 -25.149  0.00  0.00    +0.102 C 
ENDBRANCH  16  21
ENDBRANCH   8  11
BRANCH   2  22
ATOM     22  C   UNL     1      32.410 -22.038 -18.583  0.00  0.00    -0.072 C 
BRANCH  22  23
ATOM     23  C   UNL     1      33.362 -22.432 -17.453  0.00  0.00    +0.004 C 
BRANCH  23  25
ATOM     24  F   UNL     1      30.582 -23.491 -12.685  0.00  0.00    -0.204 F 
ATOM     25  C   UNL     1      32.616 -22.716 -16.174  0.00  0.00    -0.024 C 
ATOM     26  C   UNL     1      31.238 -22.572 -16.144  0.00  0.00    -0.002 C 
ATOM     27  C   UNL     1      33.322 -23.117 -15.049  0.00  0.00    -0.002 C 
ATOM     28  C   UNL     1      30.548 -22.835 -14.960  0.00  0.00    +0.029 C 
ATOM     29  C   UNL     1      32.632 -23.381 -13.866  0.00  0.00    +0.029 C 
ATOM     30  C   UNL     1      31.245 -23.239 -13.821  0.00  0.00    +0.140 C 
ENDBRANCH  23  25
ENDBRANCH  22  23
ENDBRANCH   2  22
TORSDOF 5
ENDMDL
MODEL 5
REMARK VINA RESULT:     -11.8      8.126     14.720
REMARK  Name = 6433122
REMARK  5 active torsions:
REMARK  status: ('A' for Active; 'I' for Inactive)
REMARK    1  A    between atoms: N_2  and  C_22
REMARK    2  A    between atoms: C_8  and  C_11
REMARK    3  A    between atoms: C_16  and  C_21
REMARK    4  A    between atoms: C_22  and  C_23
REMARK    5  A    between atoms: C_23  and  C_25
REMARK                            x       y       z     vdW  Elec       q    Type
REMARK                         _______ _______ _______ _____ _____    ______ ____
ROOT
ATOM      1  O   UNL     1      33.758  -7.914 -23.663  0.00  0.00    -0.270 OA
ATOM      2  N   UNL     1      31.995 -12.301 -22.049  0.00  0.00    +0.389 N 
ATOM      3  N   UNL     1      32.340  -9.557 -22.794  0.00  0.00    -0.280 N 
ATOM      4  C   UNL     1      33.190 -11.874 -22.791  0.00  0.00    -0.055 C 
ATOM      5  C   UNL     1      31.532 -11.226 -21.159  0.00  0.00    -0.055 C 
ATOM      6  C   UNL     1      32.891 -10.627 -23.621  0.00  0.00    +0.071 C 
ATOM      7  C   UNL     1      31.208  -9.957 -21.950  0.00  0.00    +0.071 C 
ATOM      8  C   UNL     1      32.852  -8.262 -22.907  0.00  0.00    +0.250 C 
ATOM      9  H   UNL     1      31.254 -12.505 -22.720  0.00  0.00    -0.080 HD
ENDROOT
BRANCH   8  11
ATOM     10  N   UNL     1      31.607  -5.655 -23.932  0.00  0.00    -0.311 N 
ATOM     11  C   UNL     1      32.268  -7.210 -22.065  0.00  0.00    +0.067 C 
ATOM     12  C   UNL     1      31.720  -6.051 -22.618  0.00  0.00    +0.053 C 
ATOM     13  C   UNL     1      31.160  -5.040 -21.834  0.00  0.00    +0.024 C 
ATOM     14  C   UNL     1      32.246  -7.348 -20.678  0.00  0.00    +0.006 C 
ATOM     15  C   UNL     1      31.148  -5.196 -20.433  0.00  0.00    +0.002 C 
ATOM     16  C   UNL     1      30.707  -4.026 -22.723  0.00  0.00    +0.084 C 
ATOM     17  C   UNL     1      31.694  -6.356 -19.871  0.00  0.00    +0.000 C 
ATOM     18  C   UNL     1      30.996  -4.432 -24.005  0.00  0.00    +0.072 C 
ATOM     19  H   UNL     1      31.919  -6.176 -24.706  0.00  0.00    +0.152 HD
BRANCH  16  21
ATOM     20  N   UNL     1      29.542  -1.790 -22.117  0.00  0.00    -0.191 NA
ATOM     21  C   UNL     1      30.067  -2.797 -22.390  0.00  0.00    +0.102 C 
ENDBRANCH  16  21
ENDBRANCH   8  11
BRANCH   2  22
ATOM     22  C   UNL     1      32.271 -13.517 -21.285  0.00  0.00    -0.072 C 
BRANCH  22  23
ATOM     23  C   UNL     1      33.774 -13.800 -21.231  0.00  0.00    +0.004 C 
BRANCH  23  25
ATOM     24  F   UNL     1      34.984 -18.904 -23.247  0.00  0.00    -0.204 F 
ATOM     25  C   UNL     1      34.099 -15.169 -21.772  0.00  0.00    -0.024 C 
ATOM     26  C   UNL     1      33.995 -15.405 -23.134  0.00  0.00    -0.002 C 
ATOM     27  C   UNL     1      34.495 -16.170 -20.897  0.00  0.00    -0.002 C 
ATOM     28  C   UNL     1      34.296 -16.672 -23.634  0.00  0.00    +0.029 C 
ATOM     29  C   UNL     1      34.796 -17.436 -21.397  0.00  0.00    +0.029 C 
ATOM     30  C   UNL     1      34.697 -17.688 -22.766  0.00  0.00    +0.140 C 
ENDBRANCH  23  25
ENDBRANCH  22  23
ENDBRANCH   2  22
TORSDOF 5
ENDMDL
MODEL 6
REMARK VINA RESULT:     -11.4      1.664      2.196
REMARK  Name = 6433122
REMARK  5 active torsions:
REMARK  status: ('A' for Active; 'I' for Inactive)
REMARK    1  A    between atoms: N_2  and  C_22
REMARK    2  A    between atoms: C_8  and  C_11
REMARK    3  A    between atoms: C_16  and  C_21
REMARK    4  A    between atoms: C_22  and  C_23
REMARK    5  A    between atoms: C_23  and  C_25
REMARK                            x       y       z     vdW  Elec       q    Type
REMARK                         _______ _______ _______ _____ _____    ______ ____
ROOT
ATOM      1  O   UNL     1      32.776 -21.838 -18.995  0.00  0.00    -0.270 OA
ATOM      2  N   UNL     1      35.528 -18.593 -21.615  0.00  0.00    +0.389 N 
ATOM      3  N   UNL     1      34.602 -20.726 -19.942  0.00  0.00    -0.280 N 
ATOM      4  C   UNL     1      34.096 -18.922 -21.549  0.00  0.00    -0.055 C 
ATOM      5  C   UNL     1      36.175 -18.857 -20.322  0.00  0.00    -0.055 C 
ATOM      6  C   UNL     1      33.898 -20.390 -21.177  0.00  0.00    +0.071 C 
ATOM      7  C   UNL     1      36.013 -20.322 -19.913  0.00  0.00    +0.071 C 
ATOM      8  C   UNL     1      33.940 -21.443 -18.942  0.00  0.00    +0.250 C 
ATOM      9  H   UNL     1      35.963 -19.187 -22.320  0.00  0.00    -0.080 HD
ENDROOT
BRANCH   8  11
ATOM     10  N   UNL     1      32.733 -22.691 -16.416  0.00  0.00    -0.311 N 
ATOM     11  C   UNL     1      34.682 -21.769 -17.717  0.00  0.00    +0.067 C 
ATOM     12  C   UNL     1      34.051 -22.339 -16.610  0.00  0.00    +0.053 C 
ATOM     13  C   UNL     1      34.739 -22.657 -15.438  0.00  0.00    +0.024 C 
ATOM     14  C   UNL     1      36.050 -21.516 -17.633  0.00  0.00    +0.006 C 
ATOM     15  C   UNL     1      36.121 -22.394 -15.370  0.00  0.00    +0.002 C 
ATOM     16  C   UNL     1      33.789 -23.213 -14.535  0.00  0.00    +0.084 C 
ATOM     17  C   UNL     1      36.763 -21.824 -16.476  0.00  0.00    +0.000 C 
ATOM     18  C   UNL     1      32.566 -23.221 -15.164  0.00  0.00    +0.072 C 
ATOM     19  H   UNL     1      32.016 -22.580 -17.080  0.00  0.00    +0.152 HD
BRANCH  16  21
ATOM     20  N   UNL     1      34.208 -24.076 -12.126  0.00  0.00    -0.191 NA
ATOM     21  C   UNL     1      34.019 -23.687 -13.211  0.00  0.00    +0.102 C 
ENDBRANCH  16  21
ENDBRANCH   8  11
BRANCH   2  22
ATOM     22  C   UNL     1      35.717 -17.197 -22.008  0.00  0.00    -0.072 C 
BRANCH  22  23
ATOM     23  C   UNL     1      34.658 -16.766 -23.024  0.00  0.00    +0.004 C 
BRANCH  23  25
ATOM     24  F   UNL     1      32.523 -11.722 -21.766  0.00  0.00    -0.204 F 
ATOM     25  C   UNL     1      34.085 -15.413 -22.686  0.00  0.00    -0.024 C 
ATOM     26  C   UNL     1      34.080 -14.986 -21.367  0.00  0.00    -0.002 C 
ATOM     27  C   UNL     1      33.574 -14.618 -23.701  0.00  0.00    -0.002 C 
ATOM     28  C   UNL     1      33.551 -13.733 -21.055  0.00  0.00    +0.029 C 
ATOM     29  C   UNL     1      33.045 -13.366 -23.389  0.00  0.00    +0.029 C 
ATOM     30  C   UNL     1      33.033 -12.923 -22.066  0.00  0.00    +0.140 C 
ENDBRANCH  23  25
ENDBRANCH  22  23
ENDBRANCH   2  22
TORSDOF 5
ENDMDL
MODEL 7
REMARK VINA RESULT:     -11.4      6.085     12.435
REMARK  Name = 6433122
REMARK  5 active torsions:
REMARK  status: ('A' for Active; 'I' for Inactive)
REMARK    1  A    between atoms: N_2  and  C_22
REMARK    2  A    between atoms: C_8  and  C_11
REMARK    3  A    between atoms: C_16  and  C_21
REMARK    4  A    between atoms: C_22  and  C_23
REMARK    5  A    between atoms: C_23  and  C_25
REMARK                            x       y       z     vdW  Elec       q    Type
REMARK                         _______ _______ _______ _____ _____    ______ ____
ROOT
ATOM      1  O   UNL     1      32.618 -11.249 -24.063  0.00  0.00    -0.270 OA
ATOM      2  N   UNL     1      33.858 -15.544 -21.833  0.00  0.00    +0.389 N 
ATOM      3  N   UNL     1      32.640 -13.065 -22.591  0.00  0.00    -0.280 N 
ATOM      4  C   UNL     1      34.219 -14.892 -23.100  0.00  0.00    -0.055 C 
ATOM      5  C   UNL     1      33.527 -14.538 -20.815  0.00  0.00    -0.055 C 
ATOM      6  C   UNL     1      33.068 -14.025 -23.606  0.00  0.00    +0.071 C 
ATOM      7  C   UNL     1      32.368 -13.650 -21.273  0.00  0.00    +0.071 C 
ATOM      8  C   UNL     1      32.452 -11.726 -22.941  0.00  0.00    +0.250 C 
ATOM      9  H   UNL     1      33.035 -16.125 -21.992  0.00  0.00    -0.080 HD
ENDROOT
BRANCH   8  11
ATOM     10  N   UNL     1      32.120  -8.699 -23.292  0.00  0.00    -0.311 N 
ATOM     11  C   UNL     1      32.013 -10.792 -21.897  0.00  0.00    +0.067 C 
ATOM     12  C   UNL     1      31.888  -9.424 -22.145  0.00  0.00    +0.053 C 
ATOM     13  C   UNL     1      31.471  -8.520 -21.165  0.00  0.00    +0.024 C 
ATOM     14  C   UNL     1      31.706 -11.257 -20.619  0.00  0.00    +0.006 C 
ATOM     15  C   UNL     1      31.166  -9.008 -19.879  0.00  0.00    +0.002 C 
ATOM     16  C   UNL     1      31.459  -7.230 -21.765  0.00  0.00    +0.084 C 
ATOM     17  C   UNL     1      31.288 -10.378 -19.621  0.00  0.00    +0.000 C 
ATOM     18  C   UNL     1      31.863  -7.372 -23.073  0.00  0.00    +0.072 C 
ATOM     19  H   UNL     1      32.424  -9.080 -24.148  0.00  0.00    +0.152 HD
BRANCH  16  21
ATOM     20  N   UNL     1      30.812  -4.974 -20.664  0.00  0.00    -0.191 NA
ATOM     21  C   UNL     1      31.104  -5.990 -21.160  0.00  0.00    +0.102 C 
ENDBRANCH  16  21
ENDBRANCH   8  11
BRANCH   2  22
ATOM     22  C   UNL     1      34.946 -16.405 -21.370  0.00  0.00    -0.072 C 
BRANCH  22  23
ATOM     23  C   UNL     1      34.922 -17.754 -22.090  0.00  0.00    +0.004 C 
BRANCH  23  25
ATOM     24  F   UNL     1      34.457 -22.020 -18.461  0.00  0.00    -0.204 F 
ATOM     25  C   UNL     1      34.798 -18.899 -21.117  0.00  0.00    -0.024 C 
ATOM     26  C   UNL     1      33.541 -19.403 -20.817  0.00  0.00    -0.002 C 
ATOM     27  C   UNL     1      35.941 -19.427 -20.538  0.00  0.00    -0.002 C 
ATOM     28  C   UNL     1      33.426 -20.462 -19.916  0.00  0.00    +0.029 C 
ATOM     29  C   UNL     1      35.826 -20.487 -19.638  0.00  0.00    +0.029 C 
ATOM     30  C   UNL     1      34.569 -21.004 -19.326  0.00  0.00    +0.140 C 
ENDBRANCH  23  25
ENDBRANCH  22  23
ENDBRANCH   2  22
TORSDOF 5
ENDMDL
MODEL 8
REMARK VINA RESULT:     -11.3      3.011      4.562
REMARK  Name = 6433122
REMARK  5 active torsions:
REMARK  status: ('A' for Active; 'I' for Inactive)
REMARK    1  A    between atoms: N_2  and  C_22
REMARK    2  A    between atoms: C_8  and  C_11
REMARK    3  A    between atoms: C_16  and  C_21
REMARK    4  A    between atoms: C_22  and  C_23
REMARK    5  A    between atoms: C_23  and  C_25
REMARK                            x       y       z     vdW  Elec       q    Type
REMARK                         _______ _______ _______ _____ _____    ______ ____
ROOT
ATOM      1  O   UNL     1      33.002 -24.066 -12.368  0.00  0.00    -0.270 OA
ATOM      2  N   UNL     1      32.614 -22.595 -17.127  0.00  0.00    +0.389 N 
ATOM      3  N   UNL     1      33.466 -23.717 -14.633  0.00  0.00    -0.280 N 
ATOM      4  C   UNL     1      31.696 -22.647 -15.980  0.00  0.00    -0.055 C 
ATOM      5  C   UNL     1      33.999 -22.418 -16.667  0.00  0.00    -0.055 C 
ATOM      6  C   UNL     1      32.067 -23.797 -15.046  0.00  0.00    +0.071 C 
ATOM      7  C   UNL     1      34.421 -23.556 -15.736  0.00  0.00    +0.071 C 
ATOM      8  C   UNL     1      33.798 -23.866 -13.285  0.00  0.00    +0.250 C 
ATOM      9  H   UNL     1      32.552 -23.479 -17.631  0.00  0.00    -0.080 HD
ENDROOT
BRANCH   8  11
ATOM     10  N   UNL     1      36.018 -25.706 -14.325  0.00  0.00    -0.311 N 
ATOM     11  C   UNL     1      35.215 -23.787 -12.907  0.00  0.00    +0.067 C 
ATOM     12  C   UNL     1      36.162 -24.668 -13.432  0.00  0.00    +0.053 C 
ATOM     13  C   UNL     1      37.514 -24.608 -13.085  0.00  0.00    +0.024 C 
ATOM     14  C   UNL     1      35.651 -22.817 -12.006  0.00  0.00    +0.006 C 
ATOM     15  C   UNL     1      37.937 -23.622 -12.172  0.00  0.00    +0.002 C 
ATOM     16  C   UNL     1      38.175 -25.645 -13.803  0.00  0.00    +0.084 C 
ATOM     17  C   UNL     1      36.994 -22.734 -11.642  0.00  0.00    +0.000 C 
ATOM     18  C   UNL     1      37.229 -26.302 -14.556  0.00  0.00    +0.072 C 
ATOM     19  H   UNL     1      35.168 -25.979 -14.740  0.00  0.00    +0.152 HD
BRANCH  16  21
ATOM     20  N   UNL     1      40.695 -26.250 -13.753  0.00  0.00    -0.191 NA
ATOM     21  C   UNL     1      39.559 -25.978 -13.775  0.00  0.00    +0.102 C 
ENDBRANCH  16  21
ENDBRANCH   8  11
BRANCH   2  22
ATOM     22  C   UNL     1      32.235 -21.518 -18.041  0.00  0.00    -0.072 C 
BRANCH  22  23
ATOM     23  C   UNL     1      32.733 -21.801 -19.459  0.00  0.00    +0.004 C 
BRANCH  23  25
ATOM     24  F   UNL     1      36.691 -18.133 -21.027  0.00  0.00    -0.204 F 
ATOM     25  C   UNL     1      33.795 -20.817 -19.880  0.00  0.00    -0.024 C 
ATOM     26  C   UNL     1      35.108 -21.025 -19.489  0.00  0.00    -0.002 C 
ATOM     27  C   UNL     1      33.439 -19.721 -20.650  0.00  0.00    -0.002 C 
ATOM     28  C   UNL     1      36.091 -20.115 -19.878  0.00  0.00    +0.029 C 
ATOM     29  C   UNL     1      34.422 -18.811 -21.040  0.00  0.00    +0.029 C 
ATOM     30  C   UNL     1      35.748 -19.007 -20.654  0.00  0.00    +0.140 C 
ENDBRANCH  23  25
ENDBRANCH  22  23
ENDBRANCH   2  22
TORSDOF 5
ENDMDL
MODEL 9
REMARK VINA RESULT:     -11.3      4.257      9.935
REMARK  Name = 6433122
REMARK  5 active torsions:
REMARK  status: ('A' for Active; 'I' for Inactive)
REMARK    1  A    between atoms: N_2  and  C_22
REMARK    2  A    between atoms: C_8  and  C_11
REMARK    3  A    between atoms: C_16  and  C_21
REMARK    4  A    between atoms: C_22  and  C_23
REMARK    5  A    between atoms: C_23  and  C_25
REMARK                            x       y       z     vdW  Elec       q    Type
REMARK                         _______ _______ _______ _____ _____    ______ ____
ROOT
ATOM      1  O   UNL     1      36.721 -18.435 -20.335  0.00  0.00    -0.270 OA
ATOM      2  N   UNL     1      33.422 -21.815 -18.705  0.00  0.00    +0.389 N 
ATOM      3  N   UNL     1      34.989 -20.005 -20.277  0.00  0.00    -0.280 N 
ATOM      4  C   UNL     1      34.617 -21.174 -18.136  0.00  0.00    -0.055 C 
ATOM      5  C   UNL     1      32.774 -20.921 -19.675  0.00  0.00    -0.055 C 
ATOM      6  C   UNL     1      35.614 -20.820 -19.238  0.00  0.00    +0.071 C 
ATOM      7  C   UNL     1      33.732 -20.547 -20.807  0.00  0.00    +0.071 C 
ATOM      8  C   UNL     1      35.635 -18.853 -20.734  0.00  0.00    +0.250 C 
ATOM      9  H   UNL     1      33.712 -22.663 -19.191  0.00  0.00    -0.080 HD
ENDROOT
BRANCH   8  11
ATOM     10  N   UNL     1      34.616 -15.979 -20.421  0.00  0.00    -0.311 N 
ATOM     11  C   UNL     1      34.982 -18.063 -21.785  0.00  0.00    +0.067 C 
ATOM     12  C   UNL     1      34.548 -16.756 -21.556  0.00  0.00    +0.053 C 
ATOM     13  C   UNL     1      33.927 -15.989 -22.544  0.00  0.00    +0.024 C 
ATOM     14  C   UNL     1      34.780 -18.608 -23.053  0.00  0.00    +0.006 C 
ATOM     15  C   UNL     1      33.729 -16.556 -23.818  0.00  0.00    +0.002 C 
ATOM     16  C   UNL     1      33.626 -14.725 -21.962  0.00  0.00    +0.084 C 
ATOM     17  C   UNL     1      34.161 -17.866 -24.058  0.00  0.00    +0.000 C 
ATOM     18  C   UNL     1      34.061 -14.749 -20.657  0.00  0.00    +0.072 C 
ATOM     19  H   UNL     1      35.009 -16.264 -19.565  0.00  0.00    +0.152 HD
BRANCH  16  21
ATOM     20  N   UNL     1      32.466 -12.698 -23.088  0.00  0.00    -0.191 NA
ATOM     21  C   UNL     1      32.989 -13.611 -22.581  0.00  0.00    +0.102 C 
ENDBRANCH  16  21
ENDBRANCH   8  11
BRANCH   2  22
ATOM     22  C   UNL     1      32.486 -22.188 -17.645  0.00  0.00    -0.072 C 
BRANCH  22  23
ATOM     23  C   UNL     1      33.230 -22.714 -16.417  0.00  0.00    +0.004 C 
BRANCH  23  25
ATOM     24  F   UNL     1      29.672 -24.212 -12.333  0.00  0.00    -0.204 F 
ATOM     25  C   UNL     1      32.275 -23.116 -15.322  0.00  0.00    -0.024 C 
ATOM     26  C   UNL     1      30.993 -22.590 -15.310  0.00  0.00    -0.002 C 
ATOM     27  C   UNL     1      32.697 -24.005 -14.344  0.00  0.00    -0.002 C 
ATOM     28  C   UNL     1      30.110 -22.963 -14.296  0.00  0.00    +0.029 C 
ATOM     29  C   UNL     1      31.814 -24.378 -13.331  0.00  0.00    +0.029 C 
ATOM     30  C   UNL     1      30.520 -23.856 -13.306  0.00  0.00    +0.140 C 
ENDBRANCH  23  25
ENDBRANCH  22  23
ENDBRANCH   2  22
TORSDOF 5
ENDMDL
