MODEL 1
REMARK VINA RESULT:     -11.3      0.000      0.000
REMARK  Name = 448793
REMARK  3 active torsions:
REMARK  status: ('A' for Active; 'I' for Inactive)
REMARK    1  A    between atoms: C_1  and  C_17
REMARK    2  A    between atoms: C_2  and  N_7
REMARK    3  A    between atoms: C_17  and  N_20
REMARK                            x       y       z     vdW  Elec       q    Type
REMARK                         _______ _______ _______ _____ _____    ______ ____
ROOT
ATOM      1  C   UNL     1      31.137 -10.247 -21.986  0.00  0.00    +0.001 C 
ATOM      2  C   UNL     1      32.430 -12.530 -22.897  0.00  0.00    +0.058 C 
ATOM      3  C   UNL     1      32.087 -10.140 -22.994  0.00  0.00    -0.001 C 
ATOM      4  C   UNL     1      30.825 -11.479 -21.427  0.00  0.00    -0.001 C 
ATOM      5  C   UNL     1      32.736 -11.287 -23.452  0.00  0.00    +0.015 C 
ATOM      6  C   UNL     1      31.474 -12.626 -21.885  0.00  0.00    +0.015 C 
ENDROOT
BRANCH   2   7
ATOM      7  N   UNL     1      33.074 -13.666 -23.351  0.00  0.00    -0.243 N 
ATOM      8  N   UNL     1      33.906 -15.175 -24.775  0.00  0.00    -0.392 NA
ATOM      9  N   UNL     1      34.972 -16.867 -21.657  0.00  0.00    -0.261 NA
ATOM     10  C   UNL     1      33.661 -14.643 -22.573  0.00  0.00    +0.086 C 
ATOM     11  C   UNL     1      33.253 -14.041 -24.662  0.00  0.00    +0.168 C 
ATOM     12  C   UNL     1      34.168 -15.565 -23.483  0.00  0.00    +0.149 C 
ATOM     13  C   UNL     1      33.783 -14.787 -21.199  0.00  0.00    +0.038 C 
ATOM     14  C   UNL     1      32.748 -13.226 -25.789  0.00  0.00    +0.084 C 
ATOM     15  C   UNL     1      34.832 -16.691 -22.994  0.00  0.00    +0.185 C 
ATOM     16  C   UNL     1      34.459 -15.937 -20.814  0.00  0.00    +0.095 C 
ENDBRANCH   2   7
BRANCH   1  17
ATOM     17  C   UNL     1      30.437  -9.011 -21.494  0.00  0.00    +0.136 C 
BRANCH  17  20
ATOM     18  S   UNL     1      33.127  -6.158 -20.665  0.00  0.00    -0.026 S 
ATOM     19  O   UNL     1      32.200  -8.197 -19.266  0.00  0.00    -0.259 OA
ATOM     20  N   UNL     1      31.355  -7.892 -21.444  0.00  0.00    -0.286 N 
ATOM     21  C   UNL     1      31.512  -7.010 -22.537  0.00  0.00    +0.069 A 
ATOM     22  C   UNL     1      32.441  -6.000 -22.291  0.00  0.00    +0.050 A 
ATOM     23  C   UNL     1      32.143  -7.602 -20.332  0.00  0.00    +0.293 A 
ATOM     24  C   UNL     1      30.850  -7.075 -23.758  0.00  0.00    +0.018 C 
ATOM     25  C   UNL     1      32.733  -5.037 -23.244  0.00  0.00    +0.008 C 
ATOM     26  C   UNL     1      31.136  -6.109 -24.726  0.00  0.00    +0.002 C 
ATOM     27  C   UNL     1      32.070  -5.097 -24.471  0.00  0.00    +0.001 C 
ENDBRANCH  17  20
ENDBRANCH   1  17
TORSDOF 3
ENDMDL
MODEL 2
REMARK VINA RESULT:     -11.0      1.625      2.001
REMARK  Name = 448793
REMARK  3 active torsions:
REMARK  status: ('A' for Active; 'I' for Inactive)
REMARK    1  A    between atoms: C_1  and  C_17
REMARK    2  A    between atoms: C_2  and  N_7
REMARK    3  A    between atoms: C_17  and  N_20
REMARK                            x       y       z     vdW  Elec       q    Type
REMARK                         _______ _______ _______ _____ _____    ______ ____
ROOT
ATOM      1  C   UNL     1      32.050  -9.900 -22.208  0.00  0.00    +0.001 C 
ATOM      2  C   UNL     1      32.773 -12.381 -23.226  0.00  0.00    +0.058 C 
ATOM      3  C   UNL     1      33.069  -9.984 -23.148  0.00  0.00    -0.001 C 
ATOM      4  C   UNL     1      31.388 -11.039 -21.770  0.00  0.00    -0.001 C 
ATOM      5  C   UNL     1      33.431 -11.231 -23.660  0.00  0.00    +0.015 C 
ATOM      6  C   UNL     1      31.750 -12.286 -22.282  0.00  0.00    +0.015 C 
ENDROOT
BRANCH   2   7
ATOM      7  N   UNL     1      33.132 -13.616 -23.734  0.00  0.00    -0.243 N 
ATOM      8  N   UNL     1      33.456 -15.259 -25.216  0.00  0.00    -0.392 NA
ATOM      9  N   UNL     1      34.707 -17.083 -22.244  0.00  0.00    -0.261 NA
ATOM     10  C   UNL     1      33.662 -14.673 -23.024  0.00  0.00    +0.086 C 
ATOM     11  C   UNL     1      33.031 -14.027 -25.042  0.00  0.00    +0.168 C 
ATOM     12  C   UNL     1      33.853 -15.677 -23.967  0.00  0.00    +0.149 C 
ATOM     13  C   UNL     1      33.978 -14.824 -21.681  0.00  0.00    +0.038 C 
ATOM     14  C   UNL     1      32.498 -13.147 -26.105  0.00  0.00    +0.084 C 
ATOM     15  C   UNL     1      34.385 -16.897 -23.548  0.00  0.00    +0.185 C 
ATOM     16  C   UNL     1      34.501 -16.070 -21.366  0.00  0.00    +0.095 C 
ENDBRANCH   2   7
BRANCH   1  17
ATOM     17  C   UNL     1      31.659  -8.557 -21.657  0.00  0.00    +0.136 C 
BRANCH  17  20
ATOM     18  S   UNL     1      30.336  -6.242 -24.649  0.00  0.00    -0.026 S 
ATOM     19  O   UNL     1      29.186  -8.144 -23.222  0.00  0.00    -0.259 OA
ATOM     20  N   UNL     1      31.429  -7.614 -22.732  0.00  0.00    -0.286 N 
ATOM     21  C   UNL     1      32.440  -6.731 -23.175  0.00  0.00    +0.069 A 
ATOM     22  C   UNL     1      32.020  -5.905 -24.217  0.00  0.00    +0.050 A 
ATOM     23  C   UNL     1      30.213  -7.507 -23.404  0.00  0.00    +0.293 A 
ATOM     24  C   UNL     1      33.735  -6.634 -22.677  0.00  0.00    +0.018 C 
ATOM     25  C   UNL     1      32.871  -4.971 -24.787  0.00  0.00    +0.008 C 
ATOM     26  C   UNL     1      34.600  -5.696 -23.244  0.00  0.00    +0.002 C 
ATOM     27  C   UNL     1      34.172  -4.870 -24.291  0.00  0.00    +0.001 C 
ENDBRANCH  17  20
ENDBRANCH   1  17
TORSDOF 3
ENDMDL
MODEL 3
REMARK VINA RESULT:     -10.8      5.268      9.005
REMARK  Name = 448793
REMARK  3 active torsions:
REMARK  status: ('A' for Active; 'I' for Inactive)
REMARK    1  A    between atoms: C_1  and  C_17
REMARK    2  A    between atoms: C_2  and  N_7
REMARK    3  A    between atoms: C_17  and  N_20
REMARK                            x       y       z     vdW  Elec       q    Type
REMARK                         _______ _______ _______ _____ _____    ______ ____
ROOT
ATOM      1  C   UNL     1      34.844 -18.544 -21.748  0.00  0.00    +0.001 C 
ATOM      2  C   UNL     1      34.777 -20.337 -19.628  0.00  0.00    +0.058 C 
ATOM      3  C   UNL     1      33.626 -19.058 -21.324  0.00  0.00    -0.001 C 
ATOM      4  C   UNL     1      36.029 -18.914 -21.127  0.00  0.00    -0.001 C 
ATOM      5  C   UNL     1      33.592 -19.959 -20.259  0.00  0.00    +0.015 C 
ATOM      6  C   UNL     1      35.996 -19.815 -20.061  0.00  0.00    +0.015 C 
ENDROOT
BRANCH   2   7
ATOM      7  N   UNL     1      34.743 -21.230 -18.572  0.00  0.00    -0.243 N 
ATOM      8  N   UNL     1      34.044 -22.904 -17.265  0.00  0.00    -0.392 NA
ATOM      9  N   UNL     1      37.015 -21.978 -15.257  0.00  0.00    -0.261 NA
ATOM     10  C   UNL     1      35.644 -21.304 -17.531  0.00  0.00    +0.086 C 
ATOM     11  C   UNL     1      33.806 -22.213 -18.358  0.00  0.00    +0.168 C 
ATOM     12  C   UNL     1      35.186 -22.350 -16.737  0.00  0.00    +0.149 C 
ATOM     13  C   UNL     1      36.781 -20.566 -17.232  0.00  0.00    +0.038 C 
ATOM     14  C   UNL     1      32.672 -22.435 -19.283  0.00  0.00    +0.084 C 
ATOM     15  C   UNL     1      35.899 -22.676 -15.582  0.00  0.00    +0.185 C 
ATOM     16  C   UNL     1      37.418 -20.968 -16.067  0.00  0.00    +0.095 C 
ENDBRANCH   2   7
BRANCH   1  17
ATOM     17  C   UNL     1      34.880 -17.573 -22.895  0.00  0.00    +0.136 C 
BRANCH  17  20
ATOM     18  S   UNL     1      33.705 -14.209 -21.061  0.00  0.00    -0.026 S 
ATOM     19  O   UNL     1      34.797 -16.441 -20.166  0.00  0.00    -0.259 OA
ATOM     20  N   UNL     1      34.385 -16.277 -22.480  0.00  0.00    -0.286 N 
ATOM     21  C   UNL     1      33.850 -15.354 -23.407  0.00  0.00    +0.069 A 
ATOM     22  C   UNL     1      33.429 -14.166 -22.809  0.00  0.00    +0.050 A 
ATOM     23  C   UNL     1      34.395 -15.846 -21.155  0.00  0.00    +0.293 A 
ATOM     24  C   UNL     1      33.725 -15.534 -24.780  0.00  0.00    +0.018 C 
ATOM     25  C   UNL     1      32.876 -13.137 -23.556  0.00  0.00    +0.008 C 
ATOM     26  C   UNL     1      33.169 -14.503 -25.542  0.00  0.00    +0.002 C 
ATOM     27  C   UNL     1      32.747 -13.313 -24.935  0.00  0.00    +0.001 C 
ENDBRANCH  17  20
ENDBRANCH   1  17
TORSDOF 3
ENDMDL
MODEL 4
REMARK VINA RESULT:     -10.5      0.975      2.100
REMARK  Name = 448793
REMARK  3 active torsions:
REMARK  status: ('A' for Active; 'I' for Inactive)
REMARK    1  A    between atoms: C_1  and  C_17
REMARK    2  A    between atoms: C_2  and  N_7
REMARK    3  A    between atoms: C_17  and  N_20
REMARK                            x       y       z     vdW  Elec       q    Type
REMARK                         _______ _______ _______ _____ _____    ______ ____
ROOT
ATOM      1  C   UNL     1      31.214 -10.025 -22.437  0.00  0.00    +0.001 C 
ATOM      2  C   UNL     1      32.553 -12.453 -22.295  0.00  0.00    +0.058 C 
ATOM      3  C   UNL     1      32.297 -10.259 -23.273  0.00  0.00    -0.001 C 
ATOM      4  C   UNL     1      30.791 -10.987 -21.530  0.00  0.00    -0.001 C 
ATOM      5  C   UNL     1      32.970 -11.480 -23.202  0.00  0.00    +0.015 C 
ATOM      6  C   UNL     1      31.463 -12.208 -21.459  0.00  0.00    +0.015 C 
ENDROOT
BRANCH   2   7
ATOM      7  N   UNL     1      33.220 -13.663 -22.225  0.00  0.00    -0.243 N 
ATOM      8  N   UNL     1      34.408 -15.354 -21.372  0.00  0.00    -0.392 NA
ATOM      9  N   UNL     1      34.000 -16.763 -24.774  0.00  0.00    -0.261 NA
ATOM     10  C   UNL     1      33.362 -14.582 -23.243  0.00  0.00    +0.086 C 
ATOM     11  C   UNL     1      33.869 -14.180 -21.129  0.00  0.00    +0.168 C 
ATOM     12  C   UNL     1      34.102 -15.620 -22.686  0.00  0.00    +0.149 C 
ATOM     13  C   UNL     1      32.917 -14.588 -24.558  0.00  0.00    +0.038 C 
ATOM     14  C   UNL     1      33.928 -13.462 -19.837  0.00  0.00    +0.084 C 
ATOM     15  C   UNL     1      34.417 -16.721 -23.484  0.00  0.00    +0.185 C 
ATOM     16  C   UNL     1      33.280 -15.725 -25.266  0.00  0.00    +0.095 C 
ENDBRANCH   2   7
BRANCH   1  17
ATOM     17  C   UNL     1      30.488  -8.710 -22.515  0.00  0.00    +0.136 C 
BRANCH  17  20
ATOM     18  S   UNL     1      33.042  -5.907 -21.216  0.00  0.00    -0.026 S 
ATOM     19  O   UNL     1      31.833  -7.919 -20.004  0.00  0.00    -0.259 OA
ATOM     20  N   UNL     1      31.405  -7.610 -22.300  0.00  0.00    -0.286 N 
ATOM     21  C   UNL     1      31.778  -6.737 -23.349  0.00  0.00    +0.069 A 
ATOM     22  C   UNL     1      32.668  -5.745 -22.939  0.00  0.00    +0.050 A 
ATOM     23  C   UNL     1      31.983  -7.329 -21.064  0.00  0.00    +0.293 A 
ATOM     24  C   UNL     1      31.348  -6.796 -24.670  0.00  0.00    +0.018 C 
ATOM     25  C   UNL     1      33.149  -4.794 -23.825  0.00  0.00    +0.008 C 
ATOM     26  C   UNL     1      31.826  -5.842 -25.571  0.00  0.00    +0.002 C 
ATOM     27  C   UNL     1      32.720  -4.848 -25.153  0.00  0.00    +0.001 C 
ENDBRANCH  17  20
ENDBRANCH   1  17
TORSDOF 3
ENDMDL
MODEL 5
REMARK VINA RESULT:     -10.4      6.238     11.609
REMARK  Name = 448793
REMARK  3 active torsions:
REMARK  status: ('A' for Active; 'I' for Inactive)
REMARK    1  A    between atoms: C_1  and  C_17
REMARK    2  A    between atoms: C_2  and  N_7
REMARK    3  A    between atoms: C_17  and  N_20
REMARK                            x       y       z     vdW  Elec       q    Type
REMARK                         _______ _______ _______ _____ _____    ______ ____
ROOT
ATOM      1  C   UNL     1      35.467 -20.160 -20.298  0.00  0.00    +0.001 C 
ATOM      2  C   UNL     1      34.646 -17.892 -21.675  0.00  0.00    +0.058 C 
ATOM      3  C   UNL     1      34.127 -20.007 -20.629  0.00  0.00    -0.001 C 
ATOM      4  C   UNL     1      36.402 -19.195 -20.646  0.00  0.00    -0.001 C 
ATOM      5  C   UNL     1      33.714 -18.867 -21.321  0.00  0.00    +0.015 C 
ATOM      6  C   UNL     1      35.991 -18.056 -21.339  0.00  0.00    +0.015 C 
ENDROOT
BRANCH   2   7
ATOM      7  N   UNL     1      34.237 -16.763 -22.361  0.00  0.00    -0.243 N 
ATOM      8  N   UNL     1      33.596 -15.463 -24.064  0.00  0.00    -0.392 NA
ATOM      9  N   UNL     1      33.439 -12.863 -21.430  0.00  0.00    -0.261 NA
ATOM     10  C   UNL     1      34.024 -15.510 -21.827  0.00  0.00    +0.086 C 
ATOM     11  C   UNL     1      33.965 -16.673 -23.706  0.00  0.00    +0.168 C 
ATOM     12  C   UNL     1      33.628 -14.725 -22.904  0.00  0.00    +0.149 C 
ATOM     13  C   UNL     1      34.142 -15.019 -20.534  0.00  0.00    +0.038 C 
ATOM     14  C   UNL     1      34.087 -17.835 -24.613  0.00  0.00    +0.084 C 
ATOM     15  C   UNL     1      33.335 -13.379 -22.680  0.00  0.00    +0.185 C 
ATOM     16  C   UNL     1      33.829 -13.672 -20.415  0.00  0.00    +0.095 C 
ENDBRANCH   2   7
BRANCH   1  17
ATOM     17  C   UNL     1      35.911 -21.388 -19.553  0.00  0.00    +0.136 C 
BRANCH  17  20
ATOM     18  S   UNL     1      32.734 -22.413 -17.334  0.00  0.00    -0.026 S 
ATOM     19  O   UNL     1      33.035 -21.968 -19.920  0.00  0.00    -0.259 OA
ATOM     20  N   UNL     1      34.936 -21.751 -18.545  0.00  0.00    -0.286 N 
ATOM     21  C   UNL     1      35.288 -21.873 -17.181  0.00  0.00    +0.069 A 
ATOM     22  C   UNL     1      34.210 -22.229 -16.372  0.00  0.00    +0.050 A 
ATOM     23  C   UNL     1      33.597 -22.003 -18.835  0.00  0.00    +0.293 A 
ATOM     24  C   UNL     1      36.549 -21.676 -16.628  0.00  0.00    +0.018 C 
ATOM     25  C   UNL     1      34.356 -22.397 -15.004  0.00  0.00    +0.008 C 
ATOM     26  C   UNL     1      36.708 -21.843 -15.250  0.00  0.00    +0.002 C 
ATOM     27  C   UNL     1      35.620 -22.200 -14.443  0.00  0.00    +0.001 C 
ENDBRANCH  17  20
ENDBRANCH   1  17
TORSDOF 3
ENDMDL
MODEL 6
REMARK VINA RESULT:      -9.8      4.817     10.200
REMARK  Name = 448793
REMARK  3 active torsions:
REMARK  status: ('A' for Active; 'I' for Inactive)
REMARK    1  A    between atoms: C_1  and  C_17
REMARK    2  A    between atoms: C_2  and  N_7
REMARK    3  A    between atoms: C_17  and  N_20
REMARK                            x       y       z     vdW  Elec       q    Type
REMARK                         _______ _______ _______ _____ _____    ______ ____
ROOT
ATOM      1  C   UNL     1      34.920 -17.575 -21.730  0.00  0.00    +0.001 C 
ATOM      2  C   UNL     1      33.789 -15.156 -22.495  0.00  0.00    +0.058 C 
ATOM      3  C   UNL     1      34.668 -16.602 -20.771  0.00  0.00    -0.001 C 
ATOM      4  C   UNL     1      34.614 -17.354 -23.066  0.00  0.00    -0.001 C 
ATOM      5  C   UNL     1      34.100 -15.387 -21.155  0.00  0.00    +0.015 C 
ATOM      6  C   UNL     1      34.045 -16.139 -23.451  0.00  0.00    +0.015 C 
ENDROOT
BRANCH   2   7
ATOM      7  N   UNL     1      33.225 -13.952 -22.875  0.00  0.00    -0.243 N 
ATOM      8  N   UNL     1      32.541 -12.283 -24.197  0.00  0.00    -0.392 NA
ATOM      9  N   UNL     1      31.404 -10.812 -20.993  0.00  0.00    -0.261 NA
ATOM     10  C   UNL     1      32.649 -13.016 -22.042  0.00  0.00    +0.086 C 
ATOM     11  C   UNL     1      33.131 -13.457 -24.155  0.00  0.00    +0.168 C 
ATOM     12  C   UNL     1      32.233 -11.993 -22.888  0.00  0.00    +0.149 C 
ATOM     13  C   UNL     1      32.464 -12.985 -20.667  0.00  0.00    +0.038 C 
ATOM     14  C   UNL     1      33.651 -14.197 -25.325  0.00  0.00    +0.084 C 
ATOM     15  C   UNL     1      31.602 -10.879 -22.333  0.00  0.00    +0.185 C 
ATOM     16  C   UNL     1      31.828 -11.837 -20.213  0.00  0.00    +0.095 C 
ENDBRANCH   2   7
BRANCH   1  17
ATOM     17  C   UNL     1      35.531 -18.884 -21.316  0.00  0.00    +0.136 C 
BRANCH  17  20
ATOM     18  S   UNL     1      32.367 -20.905 -19.913  0.00  0.00    -0.026 S 
ATOM     19  O   UNL     1      32.678 -19.284 -21.975  0.00  0.00    -0.259 OA
ATOM     20  N   UNL     1      34.560 -19.701 -20.620  0.00  0.00    -0.286 N 
ATOM     21  C   UNL     1      34.903 -20.445 -19.468  0.00  0.00    +0.069 A 
ATOM     22  C   UNL     1      33.829 -21.165 -18.947  0.00  0.00    +0.050 A 
ATOM     23  C   UNL     1      33.231 -19.816 -21.024  0.00  0.00    +0.293 A 
ATOM     24  C   UNL     1      36.152 -20.506 -18.860  0.00  0.00    +0.018 C 
ATOM     25  C   UNL     1      33.968 -21.957 -17.817  0.00  0.00    +0.008 C 
ATOM     26  C   UNL     1      36.304 -21.300 -17.721  0.00  0.00    +0.002 C 
ATOM     27  C   UNL     1      35.220 -22.020 -17.202  0.00  0.00    +0.001 C 
ENDBRANCH  17  20
ENDBRANCH   1  17
TORSDOF 3
ENDMDL
MODEL 7
REMARK VINA RESULT:      -9.7      6.483     11.647
REMARK  Name = 448793
REMARK  3 active torsions:
REMARK  status: ('A' for Active; 'I' for Inactive)
REMARK    1  A    between atoms: C_1  and  C_17
REMARK    2  A    between atoms: C_2  and  N_7
REMARK    3  A    between atoms: C_17  and  N_20
REMARK                            x       y       z     vdW  Elec       q    Type
REMARK                         _______ _______ _______ _____ _____    ______ ____
ROOT
ATOM      1  C   UNL     1      35.320 -20.048 -20.329  0.00  0.00    +0.001 C 
ATOM      2  C   UNL     1      34.537 -17.578 -21.329  0.00  0.00    +0.058 C 
ATOM      3  C   UNL     1      33.970 -19.782 -20.518  0.00  0.00    -0.001 C 
ATOM      4  C   UNL     1      36.283 -19.096 -20.633  0.00  0.00    -0.001 C 
ATOM      5  C   UNL     1      33.577 -18.541 -21.021  0.00  0.00    +0.015 C 
ATOM      6  C   UNL     1      35.891 -17.855 -21.136  0.00  0.00    +0.015 C 
ENDROOT
BRANCH   2   7
ATOM      7  N   UNL     1      34.147 -16.348 -21.827  0.00  0.00    -0.243 N 
ATOM      8  N   UNL     1      33.558 -14.191 -21.858  0.00  0.00    -0.392 NA
ATOM      9  N   UNL     1      33.310 -14.777 -25.507  0.00  0.00    -0.261 NA
ATOM     10  C   UNL     1      33.914 -16.034 -23.149  0.00  0.00    +0.086 C 
ATOM     11  C   UNL     1      33.916 -15.204 -21.100  0.00  0.00    +0.168 C 
ATOM     12  C   UNL     1      33.551 -14.692 -23.139  0.00  0.00    +0.149 C 
ATOM     13  C   UNL     1      33.991 -16.790 -24.311  0.00  0.00    +0.038 C 
ATOM     14  C   UNL     1      34.068 -15.161 -19.629  0.00  0.00    +0.084 C 
ATOM     15  C   UNL     1      33.246 -14.071 -24.351  0.00  0.00    +0.185 C 
ATOM     16  C   UNL     1      33.670 -16.083 -25.461  0.00  0.00    +0.095 C 
ENDBRANCH   2   7
BRANCH   1  17
ATOM     17  C   UNL     1      35.743 -21.386 -19.789  0.00  0.00    +0.136 C 
BRANCH  17  20
ATOM     18  S   UNL     1      32.897 -22.521 -17.206  0.00  0.00    -0.026 S 
ATOM     19  O   UNL     1      32.892 -22.164 -19.823  0.00  0.00    -0.259 OA
ATOM     20  N   UNL     1      34.908 -21.769 -18.670  0.00  0.00    -0.286 N 
ATOM     21  C   UNL     1      35.409 -21.812 -17.349  0.00  0.00    +0.069 A 
ATOM     22  C   UNL     1      34.450 -22.204 -16.416  0.00  0.00    +0.050 A 
ATOM     23  C   UNL     1      33.566 -22.119 -18.804  0.00  0.00    +0.293 A 
ATOM     24  C   UNL     1      36.705 -21.512 -16.942  0.00  0.00    +0.018 C 
ATOM     25  C   UNL     1      34.752 -22.306 -15.067  0.00  0.00    +0.008 C 
ATOM     26  C   UNL     1      37.020 -21.612 -15.585  0.00  0.00    +0.002 C 
ATOM     27  C   UNL     1      36.051 -22.005 -14.653  0.00  0.00    +0.001 C 
ENDBRANCH  17  20
ENDBRANCH   1  17
TORSDOF 3
ENDMDL
MODEL 8
REMARK VINA RESULT:      -9.6     10.729     15.399
REMARK  Name = 448793
REMARK  3 active torsions:
REMARK  status: ('A' for Active; 'I' for Inactive)
REMARK    1  A    between atoms: C_1  and  C_17
REMARK    2  A    between atoms: C_2  and  N_7
REMARK    3  A    between atoms: C_17  and  N_20
REMARK                            x       y       z     vdW  Elec       q    Type
REMARK                         _______ _______ _______ _____ _____    ______ ____
ROOT
ATOM      1  C   UNL     1      36.914 -22.619 -15.662  0.00  0.00    +0.001 C 
ATOM      2  C   UNL     1      34.981 -21.780 -17.472  0.00  0.00    +0.058 C 
ATOM      3  C   UNL     1      37.241 -21.672 -16.624  0.00  0.00    -0.001 C 
ATOM      4  C   UNL     1      35.634 -23.152 -15.593  0.00  0.00    -0.001 C 
ATOM      5  C   UNL     1      36.270 -21.250 -17.533  0.00  0.00    +0.015 C 
ATOM      6  C   UNL     1      34.662 -22.730 -16.501  0.00  0.00    +0.015 C 
ENDROOT
BRANCH   2   7
ATOM      7  N   UNL     1      34.019 -21.361 -18.373  0.00  0.00    -0.243 N 
ATOM      8  N   UNL     1      32.013 -21.094 -19.322  0.00  0.00    -0.392 NA
ATOM      9  N   UNL     1      33.946 -19.134 -21.801  0.00  0.00    -0.261 NA
ATOM     10  C   UNL     1      34.228 -20.589 -19.497  0.00  0.00    +0.086 C 
ATOM     11  C   UNL     1      32.673 -21.633 -18.321  0.00  0.00    +0.168 C 
ATOM     12  C   UNL     1      32.967 -20.440 -20.065  0.00  0.00    +0.149 C 
ATOM     13  C   UNL     1      35.376 -20.031 -20.040  0.00  0.00    +0.038 C 
ATOM     14  C   UNL     1      32.075 -22.447 -17.240  0.00  0.00    +0.084 C 
ATOM     15  C   UNL     1      32.847 -19.695 -21.239  0.00  0.00    +0.185 C 
ATOM     16  C   UNL     1      35.151 -19.310 -21.205  0.00  0.00    +0.095 C 
ENDBRANCH   2   7
BRANCH   1  17
ATOM     17  C   UNL     1      37.960 -23.073 -14.682  0.00  0.00    +0.136 C 
BRANCH  17  20
ATOM     18  S   UNL     1      36.751 -26.438 -12.872  0.00  0.00    -0.026 S 
ATOM     19  O   UNL     1      37.956 -25.987 -15.178  0.00  0.00    -0.259 OA
ATOM     20  N   UNL     1      37.440 -24.123 -13.833  0.00  0.00    -0.286 N 
ATOM     21  C   UNL     1      36.835 -23.840 -12.587  0.00  0.00    +0.069 A 
ATOM     22  C   UNL     1      36.399 -24.986 -11.922  0.00  0.00    +0.050 A 
ATOM     23  C   UNL     1      37.492 -25.473 -14.171  0.00  0.00    +0.293 A 
ATOM     24  C   UNL     1      36.657 -22.584 -12.017  0.00  0.00    +0.018 C 
ATOM     25  C   UNL     1      35.780 -24.912 -10.684  0.00  0.00    +0.008 C 
ATOM     26  C   UNL     1      36.034 -22.499 -10.769  0.00  0.00    +0.002 C 
ATOM     27  C   UNL     1      35.598 -23.654 -10.107  0.00  0.00    +0.001 C 
ENDBRANCH  17  20
ENDBRANCH   1  17
TORSDOF 3
ENDMDL
MODEL 9
REMARK VINA RESULT:      -9.4      3.010      5.333
REMARK  Name = 448793
REMARK  3 active torsions:
REMARK  status: ('A' for Active; 'I' for Inactive)
REMARK    1  A    between atoms: C_1  and  C_17
REMARK    2  A    between atoms: C_2  and  N_7
REMARK    3  A    between atoms: C_17  and  N_20
REMARK                            x       y       z     vdW  Elec       q    Type
REMARK                         _______ _______ _______ _____ _____    ______ ____
ROOT
ATOM      1  C   UNL     1      31.718  -5.336 -22.314  0.00  0.00    +0.001 C 
ATOM      2  C   UNL     1      31.641  -8.067 -21.818  0.00  0.00    +0.058 C 
ATOM      3  C   UNL     1      32.687  -5.913 -21.504  0.00  0.00    -0.001 C 
ATOM      4  C   UNL     1      30.711  -6.106 -22.880  0.00  0.00    -0.001 C 
ATOM      5  C   UNL     1      32.648  -7.285 -21.255  0.00  0.00    +0.015 C 
ATOM      6  C   UNL     1      30.672  -7.479 -22.631  0.00  0.00    +0.015 C 
ENDROOT
BRANCH   2   7
ATOM      7  N   UNL     1      31.603  -9.428 -21.570  0.00  0.00    -0.243 N 
ATOM      8  N   UNL     1      31.214 -11.353 -20.503  0.00  0.00    -0.392 NA
ATOM      9  N   UNL     1      32.717 -12.826 -23.551  0.00  0.00    -0.261 NA
ATOM     10  C   UNL     1      32.050 -10.427 -22.409  0.00  0.00    +0.086 C 
ATOM     11  C   UNL     1      31.113 -10.044 -20.443  0.00  0.00    +0.168 C 
ATOM     12  C   UNL     1      31.796 -11.609 -21.722  0.00  0.00    +0.149 C 
ATOM     13  C   UNL     1      32.633 -10.392 -23.668  0.00  0.00    +0.038 C 
ATOM     14  C   UNL     1      30.544  -9.279 -19.312  0.00  0.00    +0.084 C 
ATOM     15  C   UNL     1      32.145 -12.820 -22.321  0.00  0.00    +0.185 C 
ATOM     16  C   UNL     1      32.942 -11.646 -24.177  0.00  0.00    +0.095 C 
ENDBRANCH   2   7
BRANCH   1  17
ATOM     17  C   UNL     1      31.761  -3.857 -22.584  0.00  0.00    +0.136 C 
BRANCH  17  20
ATOM     18  S   UNL     1      31.179  -2.808 -26.408  0.00  0.00    -0.026 S 
ATOM     19  O   UNL     1      29.752  -2.431 -24.217  0.00  0.00    -0.259 OA
ATOM     20  N   UNL     1      31.787  -3.600 -24.008  0.00  0.00    -0.286 N 
ATOM     21  C   UNL     1      32.855  -4.040 -24.823  0.00  0.00    +0.069 A 
ATOM     22  C   UNL     1      32.693  -3.694 -26.164  0.00  0.00    +0.050 A 
ATOM     23  C   UNL     1      30.777  -2.913 -24.677  0.00  0.00    +0.293 A 
ATOM     24  C   UNL     1      33.981  -4.743 -24.409  0.00  0.00    +0.018 C 
ATOM     25  C   UNL     1      33.637  -4.037 -27.119  0.00  0.00    +0.008 C 
ATOM     26  C   UNL     1      34.939  -5.094 -25.363  0.00  0.00    +0.002 C 
ATOM     27  C   UNL     1      34.769  -4.745 -26.708  0.00  0.00    +0.001 C 
ENDBRANCH  17  20
ENDBRANCH   1  17
TORSDOF 3
ENDMDL
