MODEL 1
REMARK VINA RESULT:     -11.6      0.000      0.000
REMARK  Name = 195347
REMARK  6 active torsions:
REMARK  status: ('A' for Active; 'I' for Inactive)
REMARK    1  A    between atoms: N_2  and  C_18
REMARK    2  A    between atoms: N_3  and  C_9
REMARK    3  A    between atoms: C_15  and  O_21
REMARK    4  A    between atoms: O_21  and  C_22
REMARK    5  A    between atoms: C_22  and  C_26
REMARK    6  A    between atoms: C_26  and  O_27
REMARK                            x       y       z     vdW  Elec       q    Type
REMARK                         _______ _______ _______ _____ _____    ______ ____
ROOT
ATOM      1  O   UNL     1      36.716 -21.307 -16.608  0.00  0.00    -0.252 OA
ATOM      2  N   UNL     1      34.708 -22.068 -17.545  0.00  0.00    -0.268 N 
ATOM      3  N   UNL     1      35.510 -23.043 -15.610  0.00  0.00    -0.268 N 
ATOM      4  C   UNL     1      35.749 -22.062 -16.585  0.00  0.00    +0.308 C 
ATOM      5  H   UNL     1      33.996 -22.732 -17.397  0.00  0.00    +0.156 HD
ATOM      6  H   UNL     1      34.689 -23.575 -15.725  0.00  0.00    +0.156 HD
ENDROOT
BRANCH   3   9
ATOM      7 CL   UNL     1      39.828 -25.082 -13.770  0.00  0.00    -0.082 Cl
ATOM      8 CL   UNL     1      36.066 -22.976 -10.523  0.00  0.00    -0.082 Cl
ATOM      9  C   UNL     1      36.303 -23.365 -14.483  0.00  0.00    +0.053 C 
ATOM     10  C   UNL     1      35.840 -23.046 -13.217  0.00  0.00    +0.026 C 
ATOM     11  C   UNL     1      37.525 -23.989 -14.669  0.00  0.00    +0.026 C 
ATOM     12  C   UNL     1      38.306 -24.305 -13.559  0.00  0.00    +0.060 C 
ATOM     13  C   UNL     1      36.622 -23.362 -12.105  0.00  0.00    +0.060 C 
ATOM     14  C   UNL     1      37.855 -23.992 -12.277  0.00  0.00    +0.023 C 
ENDBRANCH   3   9
BRANCH   2  18
ATOM     15  C   UNL     1      34.255 -19.643 -20.916  0.00  0.00    +0.139 C 
ATOM     16  C   UNL     1      35.530 -19.998 -20.487  0.00  0.00    +0.038 C 
ATOM     17  C   UNL     1      33.130 -20.090 -20.231  0.00  0.00    +0.038 C 
ATOM     18  C   UNL     1      34.557 -21.259 -18.671  0.00  0.00    +0.052 C 
ATOM     19  C   UNL     1      35.682 -20.808 -19.362  0.00  0.00    +0.018 C 
ATOM     20  C   UNL     1      33.282 -20.901 -19.106  0.00  0.00    +0.018 C 
BRANCH  15  21
ATOM     21  O   UNL     1      34.107 -18.850 -22.020  0.00  0.00    -0.472 OA
BRANCH  21  22
ATOM     22  C   UNL     1      34.889 -17.655 -22.059  0.00  0.00    +0.221 C 
ATOM     23  C   UNL     1      36.360 -18.055 -22.116  0.00  0.00    +0.055 C 
ATOM     24  C   UNL     1      34.558 -16.834 -20.817  0.00  0.00    +0.055 C 
BRANCH  22  26
ATOM     25  O   UNL     1      33.783 -17.428 -24.217  0.00  0.00    -0.246 OA
ATOM     26  C   UNL     1      34.465 -16.929 -23.330  0.00  0.00    +0.350 C 
BRANCH  26  27
ATOM     27  O   UNL     1      34.919 -15.651 -23.396  0.00  0.00    -0.478 OA
ATOM     28  H   UNL     1      35.570 -15.418 -24.029  0.00  0.00    +0.295 HD
ENDBRANCH  26  27
ENDBRANCH  22  26
ENDBRANCH  21  22
ENDBRANCH  15  21
ENDBRANCH   2  18
TORSDOF 6
ENDMDL
MODEL 2
REMARK VINA RESULT:     -11.6      0.053      1.808
REMARK  Name = 195347
REMARK  6 active torsions:
REMARK  status: ('A' for Active; 'I' for Inactive)
REMARK    1  A    between atoms: N_2  and  C_18
REMARK    2  A    between atoms: N_3  and  C_9
REMARK    3  A    between atoms: C_15  and  O_21
REMARK    4  A    between atoms: O_21  and  C_22
REMARK    5  A    between atoms: C_22  and  C_26
REMARK    6  A    between atoms: C_26  and  O_27
REMARK                            x       y       z     vdW  Elec       q    Type
REMARK                         _______ _______ _______ _____ _____    ______ ____
ROOT
ATOM      1  O   UNL     1      36.741 -21.386 -16.627  0.00  0.00    -0.252 OA
ATOM      2  N   UNL     1      34.684 -22.073 -17.513  0.00  0.00    -0.268 N 
ATOM      3  N   UNL     1      35.481 -23.053 -15.579  0.00  0.00    -0.268 N 
ATOM      4  C   UNL     1      35.743 -22.098 -16.573  0.00  0.00    +0.308 C 
ATOM      5  H   UNL     1      33.947 -22.703 -17.341  0.00  0.00    +0.156 HD
ATOM      6  H   UNL     1      34.636 -23.550 -15.670  0.00  0.00    +0.156 HD
ENDROOT
BRANCH   3   9
ATOM      7 CL   UNL     1      36.077 -23.051 -10.496  0.00  0.00    -0.082 Cl
ATOM      8 CL   UNL     1      39.803 -25.136 -13.798  0.00  0.00    -0.082 Cl
ATOM      9  C   UNL     1      36.281 -23.391 -14.462  0.00  0.00    +0.053 C 
ATOM     10  C   UNL     1      37.498 -24.021 -14.666  0.00  0.00    +0.026 C 
ATOM     11  C   UNL     1      35.831 -23.087 -13.188  0.00  0.00    +0.026 C 
ATOM     12  C   UNL     1      36.620 -23.420 -12.087  0.00  0.00    +0.060 C 
ATOM     13  C   UNL     1      38.288 -24.354 -13.565  0.00  0.00    +0.060 C 
ATOM     14  C   UNL     1      37.848 -24.054 -12.276  0.00  0.00    +0.023 C 
ENDBRANCH   3   9
BRANCH   2  18
ATOM     15  C   UNL     1      34.271 -19.682 -20.914  0.00  0.00    +0.139 C 
ATOM     16  C   UNL     1      35.541 -20.026 -20.462  0.00  0.00    +0.038 C 
ATOM     17  C   UNL     1      33.138 -20.129 -20.242  0.00  0.00    +0.038 C 
ATOM     18  C   UNL     1      34.547 -21.276 -18.649  0.00  0.00    +0.052 C 
ATOM     19  C   UNL     1      35.679 -20.825 -19.327  0.00  0.00    +0.018 C 
ATOM     20  C   UNL     1      33.276 -20.928 -19.107  0.00  0.00    +0.018 C 
BRANCH  15  21
ATOM     21  O   UNL     1      34.135 -18.900 -22.027  0.00  0.00    -0.472 OA
BRANCH  21  22
ATOM     22  C   UNL     1      34.914 -17.704 -22.067  0.00  0.00    +0.221 C 
ATOM     23  C   UNL     1      36.385 -18.102 -22.156  0.00  0.00    +0.055 C 
ATOM     24  C   UNL     1      34.606 -16.897 -20.810  0.00  0.00    +0.055 C 
BRANCH  22  26
ATOM     25  O   UNL     1      33.746 -17.446 -24.189  0.00  0.00    -0.246 OA
ATOM     26  C   UNL     1      34.467 -16.965 -23.322  0.00  0.00    +0.350 C 
BRANCH  26  27
ATOM     27  O   UNL     1      34.945 -15.697 -23.399  0.00  0.00    -0.478 OA
ATOM     28  H   UNL     1      34.377 -14.997 -23.655  0.00  0.00    +0.295 HD
ENDBRANCH  26  27
ENDBRANCH  22  26
ENDBRANCH  21  22
ENDBRANCH  15  21
ENDBRANCH   2  18
TORSDOF 6
ENDMDL
MODEL 3
REMARK VINA RESULT:     -10.6      4.662      9.925
REMARK  Name = 195347
REMARK  6 active torsions:
REMARK  status: ('A' for Active; 'I' for Inactive)
REMARK    1  A    between atoms: N_2  and  C_18
REMARK    2  A    between atoms: N_3  and  C_9
REMARK    3  A    between atoms: C_15  and  O_21
REMARK    4  A    between atoms: O_21  and  C_22
REMARK    5  A    between atoms: C_22  and  C_26
REMARK    6  A    between atoms: C_26  and  O_27
REMARK                            x       y       z     vdW  Elec       q    Type
REMARK                         _______ _______ _______ _____ _____    ______ ____
ROOT
ATOM      1  O   UNL     1      34.423 -20.923 -19.338  0.00  0.00    -0.252 OA
ATOM      2  N   UNL     1      36.384 -20.603 -18.097  0.00  0.00    -0.268 N 
ATOM      3  N   UNL     1      35.984 -19.296 -19.960  0.00  0.00    -0.268 N 
ATOM      4  C   UNL     1      35.484 -20.333 -19.156  0.00  0.00    +0.308 C 
ATOM      5  H   UNL     1      37.198 -20.048 -18.078  0.00  0.00    +0.156 HD
ATOM      6  H   UNL     1      36.852 -18.920 -19.687  0.00  0.00    +0.156 HD
ENDROOT
BRANCH   3   9
ATOM      7 CL   UNL     1      34.014 -19.994 -24.631  0.00  0.00    -0.082 Cl
ATOM      8 CL   UNL     1      34.337 -15.098 -22.380  0.00  0.00    -0.082 Cl
ATOM      9  C   UNL     1      35.396 -18.727 -21.114  0.00  0.00    +0.053 C 
ATOM     10  C   UNL     1      35.186 -17.358 -21.162  0.00  0.00    +0.026 C 
ATOM     11  C   UNL     1      35.041 -19.549 -22.171  0.00  0.00    +0.026 C 
ATOM     12  C   UNL     1      34.461 -18.988 -23.308  0.00  0.00    +0.060 C 
ATOM     13  C   UNL     1      34.606 -16.796 -22.300  0.00  0.00    +0.060 C 
ATOM     14  C   UNL     1      34.244 -17.612 -23.372  0.00  0.00    +0.023 C 
ENDBRANCH   3   9
BRANCH   2  18
ATOM     15  C   UNL     1      36.050 -23.436 -15.045  0.00  0.00    +0.139 C 
ATOM     16  C   UNL     1      34.914 -23.034 -15.742  0.00  0.00    +0.038 C 
ATOM     17  C   UNL     1      37.295 -22.901 -15.357  0.00  0.00    +0.038 C 
ATOM     18  C   UNL     1      36.272 -21.549 -17.079  0.00  0.00    +0.052 C 
ATOM     19  C   UNL     1      35.026 -22.089 -16.761  0.00  0.00    +0.018 C 
ATOM     20  C   UNL     1      37.407 -21.956 -16.377  0.00  0.00    +0.018 C 
BRANCH  15  21
ATOM     21  O   UNL     1      35.940 -24.363 -14.046  0.00  0.00    -0.472 OA
BRANCH  21  22
ATOM     22  C   UNL     1      35.787 -23.859 -12.719  0.00  0.00    +0.221 C 
ATOM     23  C   UNL     1      34.298 -23.845 -12.388  0.00  0.00    +0.055 C 
ATOM     24  C   UNL     1      36.406 -22.466 -12.669  0.00  0.00    +0.055 C 
BRANCH  22  26
ATOM     25  O   UNL     1      37.201 -24.500 -10.842  0.00  0.00    -0.246 OA
ATOM     26  C   UNL     1      36.542 -24.831 -11.821  0.00  0.00    +0.350 C 
BRANCH  26  27
ATOM     27  O   UNL     1      36.420 -26.126 -12.207  0.00  0.00    -0.478 OA
ATOM     28  H   UNL     1      37.100 -26.532 -12.707  0.00  0.00    +0.295 HD
ENDBRANCH  26  27
ENDBRANCH  22  26
ENDBRANCH  21  22
ENDBRANCH  15  21
ENDBRANCH   2  18
TORSDOF 6
ENDMDL
MODEL 4
REMARK VINA RESULT:     -10.6      4.660     10.016
REMARK  Name = 195347
REMARK  6 active torsions:
REMARK  status: ('A' for Active; 'I' for Inactive)
REMARK    1  A    between atoms: N_2  and  C_18
REMARK    2  A    between atoms: N_3  and  C_9
REMARK    3  A    between atoms: C_15  and  O_21
REMARK    4  A    between atoms: O_21  and  C_22
REMARK    5  A    between atoms: C_22  and  C_26
REMARK    6  A    between atoms: C_26  and  O_27
REMARK                            x       y       z     vdW  Elec       q    Type
REMARK                         _______ _______ _______ _____ _____    ______ ____
ROOT
ATOM      1  O   UNL     1      34.425 -20.908 -19.323  0.00  0.00    -0.252 OA
ATOM      2  N   UNL     1      36.393 -20.604 -18.088  0.00  0.00    -0.268 N 
ATOM      3  N   UNL     1      35.995 -19.292 -19.947  0.00  0.00    -0.268 N 
ATOM      4  C   UNL     1      35.491 -20.326 -19.143  0.00  0.00    +0.308 C 
ATOM      5  H   UNL     1      37.210 -20.055 -18.070  0.00  0.00    +0.156 HD
ATOM      6  H   UNL     1      36.867 -18.922 -19.677  0.00  0.00    +0.156 HD
ENDROOT
BRANCH   3   9
ATOM      7 CL   UNL     1      34.341 -15.084 -22.344  0.00  0.00    -0.082 Cl
ATOM      8 CL   UNL     1      34.039 -19.965 -24.628  0.00  0.00    -0.082 Cl
ATOM      9  C   UNL     1      35.408 -18.717 -21.098  0.00  0.00    +0.053 C 
ATOM     10  C   UNL     1      35.059 -19.534 -22.161  0.00  0.00    +0.026 C 
ATOM     11  C   UNL     1      35.194 -17.349 -21.140  0.00  0.00    +0.026 C 
ATOM     12  C   UNL     1      34.615 -16.782 -22.274  0.00  0.00    +0.060 C 
ATOM     13  C   UNL     1      34.479 -18.967 -23.297  0.00  0.00    +0.060 C 
ATOM     14  C   UNL     1      34.258 -17.591 -23.353  0.00  0.00    +0.023 C 
ENDBRANCH   3   9
BRANCH   2  18
ATOM     15  C   UNL     1      36.048 -23.438 -15.038  0.00  0.00    +0.139 C 
ATOM     16  C   UNL     1      34.916 -23.040 -15.742  0.00  0.00    +0.038 C 
ATOM     17  C   UNL     1      37.294 -22.900 -15.343  0.00  0.00    +0.038 C 
ATOM     18  C   UNL     1      36.277 -21.551 -17.070  0.00  0.00    +0.052 C 
ATOM     19  C   UNL     1      35.030 -22.094 -16.760  0.00  0.00    +0.018 C 
ATOM     20  C   UNL     1      37.409 -21.955 -16.362  0.00  0.00    +0.018 C 
BRANCH  15  21
ATOM     21  O   UNL     1      35.935 -24.366 -14.040  0.00  0.00    -0.472 OA
BRANCH  21  22
ATOM     22  C   UNL     1      35.774 -23.863 -12.714  0.00  0.00    +0.221 C 
ATOM     23  C   UNL     1      34.283 -23.857 -12.389  0.00  0.00    +0.055 C 
ATOM     24  C   UNL     1      36.384 -22.466 -12.661  0.00  0.00    +0.055 C 
BRANCH  22  26
ATOM     25  O   UNL     1      37.186 -24.495 -10.833  0.00  0.00    -0.246 OA
ATOM     26  C   UNL     1      36.530 -24.831 -11.812  0.00  0.00    +0.350 C 
BRANCH  26  27
ATOM     27  O   UNL     1      36.413 -26.127 -12.196  0.00  0.00    -0.478 OA
ATOM     28  H   UNL     1      37.095 -26.532 -12.694  0.00  0.00    +0.295 HD
ENDBRANCH  26  27
ENDBRANCH  22  26
ENDBRANCH  21  22
ENDBRANCH  15  21
ENDBRANCH   2  18
TORSDOF 6
ENDMDL
MODEL 5
REMARK VINA RESULT:     -10.6      4.637      9.867
REMARK  Name = 195347
REMARK  6 active torsions:
REMARK  status: ('A' for Active; 'I' for Inactive)
REMARK    1  A    between atoms: N_2  and  C_18
REMARK    2  A    between atoms: N_3  and  C_9
REMARK    3  A    between atoms: C_15  and  O_21
REMARK    4  A    between atoms: O_21  and  C_22
REMARK    5  A    between atoms: C_22  and  C_26
REMARK    6  A    between atoms: C_26  and  O_27
REMARK                            x       y       z     vdW  Elec       q    Type
REMARK                         _______ _______ _______ _____ _____    ______ ____
ROOT
ATOM      1  O   UNL     1      34.380 -20.890 -19.210  0.00  0.00    -0.252 OA
ATOM      2  N   UNL     1      36.396 -20.675 -18.037  0.00  0.00    -0.268 N 
ATOM      3  N   UNL     1      36.013 -19.366 -19.901  0.00  0.00    -0.268 N 
ATOM      4  C   UNL     1      35.479 -20.362 -19.069  0.00  0.00    +0.308 C 
ATOM      5  H   UNL     1      37.241 -20.170 -18.050  0.00  0.00    +0.156 HD
ATOM      6  H   UNL     1      36.911 -19.039 -19.661  0.00  0.00    +0.156 HD
ENDROOT
BRANCH   3   9
ATOM      7 CL   UNL     1      34.063 -19.966 -24.594  0.00  0.00    -0.082 Cl
ATOM      8 CL   UNL     1      34.332 -15.125 -22.221  0.00  0.00    -0.082 Cl
ATOM      9  C   UNL     1      35.423 -18.774 -21.042  0.00  0.00    +0.053 C 
ATOM     10  C   UNL     1      35.200 -17.406 -21.057  0.00  0.00    +0.026 C 
ATOM     11  C   UNL     1      35.079 -19.573 -22.120  0.00  0.00    +0.026 C 
ATOM     12  C   UNL     1      34.497 -18.989 -23.244  0.00  0.00    +0.060 C 
ATOM     13  C   UNL     1      34.617 -16.822 -22.182  0.00  0.00    +0.060 C 
ATOM     14  C   UNL     1      34.266 -17.614 -23.276  0.00  0.00    +0.023 C 
ENDBRANCH   3   9
BRANCH   2  18
ATOM     15  C   UNL     1      35.993 -23.452 -14.942  0.00  0.00    +0.139 C 
ATOM     16  C   UNL     1      34.865 -23.014 -15.627  0.00  0.00    +0.038 C 
ATOM     17  C   UNL     1      37.254 -22.973 -15.279  0.00  0.00    +0.038 C 
ATOM     18  C   UNL     1      36.261 -21.603 -17.004  0.00  0.00    +0.052 C 
ATOM     19  C   UNL     1      34.999 -22.087 -16.661  0.00  0.00    +0.018 C 
ATOM     20  C   UNL     1      37.389 -22.047 -16.314  0.00  0.00    +0.018 C 
BRANCH  15  21
ATOM     21  O   UNL     1      35.861 -24.362 -13.929  0.00  0.00    -0.472 OA
BRANCH  21  22
ATOM     22  C   UNL     1      36.303 -23.947 -12.636  0.00  0.00    +0.221 C 
ATOM     23  C   UNL     1      36.392 -22.424 -12.633  0.00  0.00    +0.055 C 
ATOM     24  C   UNL     1      37.650 -24.608 -12.363  0.00  0.00    +0.055 C 
BRANCH  22  26
ATOM     25  O   UNL     1      35.481 -24.944 -10.571  0.00  0.00    -0.246 OA
ATOM     26  C   UNL     1      35.240 -24.440 -11.662  0.00  0.00    +0.350 C 
BRANCH  26  27
ATOM     27  O   UNL     1      33.972 -24.267 -12.116  0.00  0.00    -0.478 OA
ATOM     28  H   UNL     1      33.821 -23.801 -12.915  0.00  0.00    +0.295 HD
ENDBRANCH  26  27
ENDBRANCH  22  26
ENDBRANCH  21  22
ENDBRANCH  15  21
ENDBRANCH   2  18
TORSDOF 6
ENDMDL
MODEL 6
REMARK VINA RESULT:     -10.6      8.860     13.174
REMARK  Name = 195347
REMARK  6 active torsions:
REMARK  status: ('A' for Active; 'I' for Inactive)
REMARK    1  A    between atoms: N_2  and  C_18
REMARK    2  A    between atoms: N_3  and  C_9
REMARK    3  A    between atoms: C_15  and  O_21
REMARK    4  A    between atoms: O_21  and  C_22
REMARK    5  A    between atoms: C_22  and  C_26
REMARK    6  A    between atoms: C_26  and  O_27
REMARK                            x       y       z     vdW  Elec       q    Type
REMARK                         _______ _______ _______ _____ _____    ______ ____
ROOT
ATOM      1  O   UNL     1      33.456 -10.810 -23.268  0.00  0.00    -0.252 OA
ATOM      2  N   UNL     1      32.248 -12.468 -22.135  0.00  0.00    -0.268 N 
ATOM      3  N   UNL     1      31.469 -10.293 -22.149  0.00  0.00    -0.268 N 
ATOM      4  C   UNL     1      32.491 -11.149 -22.589  0.00  0.00    +0.308 C 
ATOM      5  H   UNL     1      31.431 -12.590 -21.599  0.00  0.00    +0.156 HD
ATOM      6  H   UNL     1      30.759 -10.711 -21.610  0.00  0.00    +0.156 HD
ENDROOT
BRANCH   3   9
ATOM      7 CL   UNL     1      31.128  -5.570 -20.207  0.00  0.00    -0.082 Cl
ATOM      8 CL   UNL     1      30.982  -6.479 -25.526  0.00  0.00    -0.082 Cl
ATOM      9  C   UNL     1      31.334  -8.904 -22.382  0.00  0.00    +0.053 C 
ATOM     10  C   UNL     1      31.237  -8.442 -23.685  0.00  0.00    +0.026 C 
ATOM     11  C   UNL     1      31.302  -8.035 -21.304  0.00  0.00    +0.026 C 
ATOM     12  C   UNL     1      31.169  -6.666 -21.534  0.00  0.00    +0.060 C 
ATOM     13  C   UNL     1      31.104  -7.073 -23.915  0.00  0.00    +0.060 C 
ATOM     14  C   UNL     1      31.071  -6.185 -22.839  0.00  0.00    +0.023 C 
ENDBRANCH   3   9
BRANCH   2  18
ATOM     15  C   UNL     1      34.531 -15.908 -22.770  0.00  0.00    +0.139 C 
ATOM     16  C   UNL     1      33.866 -15.314 -23.838  0.00  0.00    +0.038 C 
ATOM     17  C   UNL     1      34.441 -15.365 -21.492  0.00  0.00    +0.038 C 
ATOM     18  C   UNL     1      33.011 -13.616 -22.348  0.00  0.00    +0.052 C 
ATOM     19  C   UNL     1      33.104 -14.165 -23.626  0.00  0.00    +0.018 C 
ATOM     20  C   UNL     1      33.680 -14.216 -21.281  0.00  0.00    +0.018 C 
BRANCH  15  21
ATOM     21  O   UNL     1      35.278 -17.034 -22.978  0.00  0.00    -0.472 OA
BRANCH  21  22
ATOM     22  C   UNL     1      35.068 -18.118 -22.072  0.00  0.00    +0.221 C 
ATOM     23  C   UNL     1      34.708 -19.354 -22.890  0.00  0.00    +0.055 C 
ATOM     24  C   UNL     1      33.958 -17.718 -21.106  0.00  0.00    +0.055 C 
BRANCH  22  26
ATOM     25  O   UNL     1      36.495 -18.660 -20.173  0.00  0.00    -0.246 OA
ATOM     26  C   UNL     1      36.393 -18.306 -21.343  0.00  0.00    +0.350 C 
BRANCH  26  27
ATOM     27  O   UNL     1      37.476 -18.043 -22.117  0.00  0.00    -0.478 OA
ATOM     28  H   UNL     1      37.388 -18.010 -23.050  0.00  0.00    +0.295 HD
ENDBRANCH  26  27
ENDBRANCH  22  26
ENDBRANCH  21  22
ENDBRANCH  15  21
ENDBRANCH   2  18
TORSDOF 6
ENDMDL
MODEL 7
REMARK VINA RESULT:     -10.5      8.861     13.096
REMARK  Name = 195347
REMARK  6 active torsions:
REMARK  status: ('A' for Active; 'I' for Inactive)
REMARK    1  A    between atoms: N_2  and  C_18
REMARK    2  A    between atoms: N_3  and  C_9
REMARK    3  A    between atoms: C_15  and  O_21
REMARK    4  A    between atoms: O_21  and  C_22
REMARK    5  A    between atoms: C_22  and  C_26
REMARK    6  A    between atoms: C_26  and  O_27
REMARK                            x       y       z     vdW  Elec       q    Type
REMARK                         _______ _______ _______ _____ _____    ______ ____
ROOT
ATOM      1  O   UNL     1      33.447 -10.813 -23.272  0.00  0.00    -0.252 OA
ATOM      2  N   UNL     1      32.247 -12.467 -22.125  0.00  0.00    -0.268 N 
ATOM      3  N   UNL     1      31.466 -10.293 -22.144  0.00  0.00    -0.268 N 
ATOM      4  C   UNL     1      32.486 -11.150 -22.587  0.00  0.00    +0.308 C 
ATOM      5  H   UNL     1      31.434 -12.588 -21.583  0.00  0.00    +0.156 HD
ATOM      6  H   UNL     1      30.759 -10.709 -21.599  0.00  0.00    +0.156 HD
ENDROOT
BRANCH   3   9
ATOM      7 CL   UNL     1      30.969  -6.492 -25.535  0.00  0.00    -0.082 Cl
ATOM      8 CL   UNL     1      31.112  -5.564 -20.220  0.00  0.00    -0.082 Cl
ATOM      9  C   UNL     1      31.328  -8.905 -22.383  0.00  0.00    +0.053 C 
ATOM     10  C   UNL     1      31.293  -8.033 -21.307  0.00  0.00    +0.026 C 
ATOM     11  C   UNL     1      31.229  -8.448 -23.686  0.00  0.00    +0.026 C 
ATOM     12  C   UNL     1      31.093  -7.080 -23.921  0.00  0.00    +0.060 C 
ATOM     13  C   UNL     1      31.157  -6.665 -21.542  0.00  0.00    +0.060 C 
ATOM     14  C   UNL     1      31.056  -6.189 -22.850  0.00  0.00    +0.023 C 
ENDBRANCH   3   9
BRANCH   2  18
ATOM     15  C   UNL     1      34.530 -15.908 -22.758  0.00  0.00    +0.139 C 
ATOM     16  C   UNL     1      33.865 -15.315 -23.826  0.00  0.00    +0.038 C 
ATOM     17  C   UNL     1      34.441 -15.363 -21.481  0.00  0.00    +0.038 C 
ATOM     18  C   UNL     1      33.010 -13.615 -22.337  0.00  0.00    +0.052 C 
ATOM     19  C   UNL     1      33.102 -14.166 -23.615  0.00  0.00    +0.018 C 
ATOM     20  C   UNL     1      33.680 -14.214 -21.270  0.00  0.00    +0.018 C 
BRANCH  15  21
ATOM     21  O   UNL     1      35.278 -17.034 -22.965  0.00  0.00    -0.472 OA
BRANCH  21  22
ATOM     22  C   UNL     1      35.063 -18.120 -22.062  0.00  0.00    +0.221 C 
ATOM     23  C   UNL     1      34.708 -19.354 -22.886  0.00  0.00    +0.055 C 
ATOM     24  C   UNL     1      33.946 -17.722 -21.103  0.00  0.00    +0.055 C 
BRANCH  22  26
ATOM     25  O   UNL     1      36.478 -18.684 -20.162  0.00  0.00    -0.246 OA
ATOM     26  C   UNL     1      36.383 -18.309 -21.325  0.00  0.00    +0.350 C 
BRANCH  26  27
ATOM     27  O   UNL     1      37.469 -18.020 -22.085  0.00  0.00    -0.478 OA
ATOM     28  H   UNL     1      37.425 -17.338 -22.726  0.00  0.00    +0.295 HD
ENDBRANCH  26  27
ENDBRANCH  22  26
ENDBRANCH  21  22
ENDBRANCH  15  21
ENDBRANCH   2  18
TORSDOF 6
ENDMDL
MODEL 8
REMARK VINA RESULT:     -10.4      4.773     10.034
REMARK  Name = 195347
REMARK  6 active torsions:
REMARK  status: ('A' for Active; 'I' for Inactive)
REMARK    1  A    between atoms: N_2  and  C_18
REMARK    2  A    between atoms: N_3  and  C_9
REMARK    3  A    between atoms: C_15  and  O_21
REMARK    4  A    between atoms: O_21  and  C_22
REMARK    5  A    between atoms: C_22  and  C_26
REMARK    6  A    between atoms: C_26  and  O_27
REMARK                            x       y       z     vdW  Elec       q    Type
REMARK                         _______ _______ _______ _____ _____    ______ ____
ROOT
ATOM      1  O   UNL     1      33.984 -20.228 -19.334  0.00  0.00    -0.252 OA
ATOM      2  N   UNL     1      36.176 -20.553 -18.576  0.00  0.00    -0.268 N 
ATOM      3  N   UNL     1      35.799 -19.299 -20.478  0.00  0.00    -0.268 N 
ATOM      4  C   UNL     1      35.191 -20.043 -19.455  0.00  0.00    +0.308 C 
ATOM      5  H   UNL     1      37.107 -20.323 -18.799  0.00  0.00    +0.156 HD
ATOM      6  H   UNL     1      36.781 -19.239 -20.443  0.00  0.00    +0.156 HD
ENDROOT
BRANCH   3   9
ATOM      7 CL   UNL     1      34.381 -14.860 -22.594  0.00  0.00    -0.082 Cl
ATOM      8 CL   UNL     1      33.385 -19.597 -24.981  0.00  0.00    -0.082 Cl
ATOM      9  C   UNL     1      35.175 -18.625 -21.555  0.00  0.00    +0.053 C 
ATOM     10  C   UNL     1      34.654 -19.363 -22.605  0.00  0.00    +0.026 C 
ATOM     11  C   UNL     1      35.099 -17.242 -21.537  0.00  0.00    +0.026 C 
ATOM     12  C   UNL     1      34.485 -16.578 -22.598  0.00  0.00    +0.060 C 
ATOM     13  C   UNL     1      34.039 -18.699 -23.667  0.00  0.00    +0.060 C 
ATOM     14  C   UNL     1      33.955 -17.306 -23.663  0.00  0.00    +0.023 C 
ENDBRANCH   3   9
BRANCH   2  18
ATOM     15  C   UNL     1      35.660 -22.903 -15.160  0.00  0.00    +0.139 C 
ATOM     16  C   UNL     1      34.669 -22.876 -16.136  0.00  0.00    +0.038 C 
ATOM     17  C   UNL     1      36.821 -22.153 -15.313  0.00  0.00    +0.038 C 
ATOM     18  C   UNL     1      36.004 -21.338 -17.436  0.00  0.00    +0.052 C 
ATOM     19  C   UNL     1      34.841 -22.092 -17.277  0.00  0.00    +0.018 C 
ATOM     20  C   UNL     1      36.994 -21.369 -16.454  0.00  0.00    +0.018 C 
BRANCH  15  21
ATOM     21  O   UNL     1      35.491 -23.672 -14.042  0.00  0.00    -0.472 OA
BRANCH  21  22
ATOM     22  C   UNL     1      36.408 -24.751 -13.864  0.00  0.00    +0.221 C 
ATOM     23  C   UNL     1      37.820 -24.210 -14.070  0.00  0.00    +0.055 C 
ATOM     24  C   UNL     1      36.053 -25.844 -14.868  0.00  0.00    +0.055 C 
BRANCH  22  26
ATOM     25  O   UNL     1      36.965 -25.990 -11.842  0.00  0.00    -0.246 OA
ATOM     26  C   UNL     1      36.205 -25.230 -12.432  0.00  0.00    +0.350 C 
BRANCH  26  27
ATOM     27  O   UNL     1      35.084 -24.732 -11.852  0.00  0.00    -0.478 OA
ATOM     28  H   UNL     1      34.949 -24.832 -10.930  0.00  0.00    +0.295 HD
ENDBRANCH  26  27
ENDBRANCH  22  26
ENDBRANCH  21  22
ENDBRANCH  15  21
ENDBRANCH   2  18
TORSDOF 6
ENDMDL
MODEL 9
REMARK VINA RESULT:     -10.3      4.807      9.940
REMARK  Name = 195347
REMARK  6 active torsions:
REMARK  status: ('A' for Active; 'I' for Inactive)
REMARK    1  A    between atoms: N_2  and  C_18
REMARK    2  A    between atoms: N_3  and  C_9
REMARK    3  A    between atoms: C_15  and  O_21
REMARK    4  A    between atoms: O_21  and  C_22
REMARK    5  A    between atoms: C_22  and  C_26
REMARK    6  A    between atoms: C_26  and  O_27
REMARK                            x       y       z     vdW  Elec       q    Type
REMARK                         _______ _______ _______ _____ _____    ______ ____
ROOT
ATOM      1  O   UNL     1      33.908 -20.113 -19.490  0.00  0.00    -0.252 OA
ATOM      2  N   UNL     1      36.107 -20.448 -18.755  0.00  0.00    -0.268 N 
ATOM      3  N   UNL     1      35.714 -19.185 -20.649  0.00  0.00    -0.268 N 
ATOM      4  C   UNL     1      35.114 -19.931 -19.622  0.00  0.00    +0.308 C 
ATOM      5  H   UNL     1      37.037 -20.219 -18.987  0.00  0.00    +0.156 HD
ATOM      6  H   UNL     1      36.697 -19.129 -20.624  0.00  0.00    +0.156 HD
ENDROOT
BRANCH   3   9
ATOM      7 CL   UNL     1      33.130 -19.463 -25.058  0.00  0.00    -0.082 Cl
ATOM      8 CL   UNL     1      34.410 -14.729 -22.803  0.00  0.00    -0.082 Cl
ATOM      9  C   UNL     1      35.082 -18.506 -21.717  0.00  0.00    +0.053 C 
ATOM     10  C   UNL     1      35.065 -17.120 -21.723  0.00  0.00    +0.026 C 
ATOM     11  C   UNL     1      34.492 -19.239 -22.733  0.00  0.00    +0.026 C 
ATOM     12  C   UNL     1      33.869 -18.569 -23.785  0.00  0.00    +0.060 C 
ATOM     13  C   UNL     1      34.442 -16.450 -22.776  0.00  0.00    +0.060 C 
ATOM     14  C   UNL     1      33.843 -17.175 -23.807  0.00  0.00    +0.023 C 
ENDBRANCH   3   9
BRANCH   2  18
ATOM     15  C   UNL     1      35.617 -22.812 -15.346  0.00  0.00    +0.139 C 
ATOM     16  C   UNL     1      36.779 -22.065 -15.506  0.00  0.00    +0.038 C 
ATOM     17  C   UNL     1      34.617 -22.778 -16.312  0.00  0.00    +0.038 C 
ATOM     18  C   UNL     1      35.943 -21.236 -17.616  0.00  0.00    +0.052 C 
ATOM     19  C   UNL     1      36.943 -21.275 -16.644  0.00  0.00    +0.018 C 
ATOM     20  C   UNL     1      34.780 -21.987 -17.449  0.00  0.00    +0.018 C 
BRANCH  15  21
ATOM     21  O   UNL     1      35.456 -23.585 -14.230  0.00  0.00    -0.472 OA
BRANCH  21  22
ATOM     22  C   UNL     1      36.361 -24.679 -14.073  0.00  0.00    +0.221 C 
ATOM     23  C   UNL     1      37.769 -24.173 -14.373  0.00  0.00    +0.055 C 
ATOM     24  C   UNL     1      35.928 -25.789 -15.025  0.00  0.00    +0.055 C 
BRANCH  22  26
ATOM     25  O   UNL     1      35.849 -24.388 -11.710  0.00  0.00    -0.246 OA
ATOM     26  C   UNL     1      36.230 -25.116 -12.620  0.00  0.00    +0.350 C 
BRANCH  26  27
ATOM     27  O   UNL     1      36.579 -26.411 -12.413  0.00  0.00    -0.478 OA
ATOM     28  H   UNL     1      36.583 -26.763 -11.545  0.00  0.00    +0.295 HD
ENDBRANCH  26  27
ENDBRANCH  22  26
ENDBRANCH  21  22
ENDBRANCH  15  21
ENDBRANCH   2  18
TORSDOF 6
ENDMDL
