MODEL 1
REMARK VINA RESULT:     -12.2      0.000      0.000
REMARK  Name = 9812416
REMARK  5 active torsions:
REMARK  status: ('A' for Active; 'I' for Inactive)
REMARK    1  A    between atoms: N_1  and  C_3
REMARK    2  A    between atoms: N_1  and  S_18
REMARK    3  A    between atoms: C_5  and  N_10
REMARK    4  A    between atoms: C_7  and  O_16
REMARK    5  A    between atoms: S_18  and  C_26
REMARK                            x       y       z     vdW  Elec       q    Type
REMARK                         _______ _______ _______ _____ _____    ______ ____
ROOT
ATOM      1  N   UNL     1      34.016 -18.959 -21.591  0.00  0.00    -0.215 N 
ATOM      2  H   UNL     1      33.374 -18.979 -22.337  0.00  0.00    +0.174 HD
ENDROOT
BRANCH   1   3
ATOM      3  C   UNL     1      33.912 -19.894 -20.517  0.00  0.00    +0.066 C 
ATOM      4  C   UNL     1      35.061 -20.331 -19.858  0.00  0.00    +0.034 C 
ATOM      5  C   UNL     1      34.959 -21.245 -18.810  0.00  0.00    +0.087 C 
ATOM      6  C   UNL     1      32.660 -20.372 -20.128  0.00  0.00    +0.019 C 
ATOM      7  C   UNL     1      33.708 -21.723 -18.421  0.00  0.00    +0.152 C 
ATOM      8  C   UNL     1      32.558 -21.286 -19.080  0.00  0.00    +0.039 C 
BRANCH   5  10
ATOM      9  O   UNL     1      35.804 -20.959 -15.936  0.00  0.00    -0.253 OA
ATOM     10  N   UNL     1      36.118 -21.673 -18.159  0.00  0.00    -0.266 N 
ATOM     11  N   UNL     1      37.707 -22.077 -16.532  0.00  0.00    -0.313 N 
ATOM     12  C   UNL     1      36.467 -21.514 -16.808  0.00  0.00    +0.301 C 
ATOM     13  H   UNL     1      36.775 -22.147 -18.719  0.00  0.00    +0.156 HD
ATOM     14  H   UNL     1      38.073 -22.035 -15.619  0.00  0.00    +0.146 HD
ATOM     15  H   UNL     1      38.219 -22.516 -17.249  0.00  0.00    +0.146 HD
ENDBRANCH   5  10
BRANCH   7  16
ATOM     16  O   UNL     1      33.585 -22.616 -17.398  0.00  0.00    -0.470 OA
ATOM     17  C   UNL     1      32.283 -22.798 -16.849  0.00  0.00    +0.253 C 
ENDBRANCH   7  16
ENDBRANCH   1   3
BRANCH   1  18
ATOM     18  S   UNL     1      35.285 -17.794 -21.556  0.00  0.00    +0.078 S 
ATOM     19  O   UNL     1      36.353 -18.194 -22.452  0.00  0.00    -0.150 OA
ATOM     20  O   UNL     1      35.587 -17.468 -20.174  0.00  0.00    -0.150 OA
BRANCH  18  26
ATOM     21  F   UNL     1      34.519 -17.398 -24.399  0.00  0.00    -0.200 F 
ATOM     22  F   UNL     1      34.457 -15.325 -20.125  0.00  0.00    -0.200 F 
ATOM     23  F   UNL     1      33.243 -13.141 -21.211  0.00  0.00    -0.199 F 
ATOM     24  F   UNL     1      33.305 -15.209 -25.471  0.00  0.00    -0.199 F 
ATOM     25  F   UNL     1      32.663 -13.079 -23.881  0.00  0.00    -0.199 F 
ATOM     26  C   UNL     1      34.495 -16.373 -22.256  0.00  0.00    +0.184 A 
ATOM     27  C   UNL     1      34.210 -16.360 -23.610  0.00  0.00    +0.191 A 
ATOM     28  C   UNL     1      34.179 -15.305 -21.436  0.00  0.00    +0.191 A 
ATOM     29  C   UNL     1      33.557 -14.186 -21.988  0.00  0.00    +0.198 A 
ATOM     30  C   UNL     1      33.588 -15.241 -24.162  0.00  0.00    +0.198 A 
ATOM     31  C   UNL     1      33.261 -14.154 -23.351  0.00  0.00    +0.199 A 
ENDBRANCH  18  26
ENDBRANCH   1  18
TORSDOF 5
ENDMDL
MODEL 2
REMARK VINA RESULT:     -12.2      0.009      2.049
REMARK  Name = 9812416
REMARK  5 active torsions:
REMARK  status: ('A' for Active; 'I' for Inactive)
REMARK    1  A    between atoms: N_1  and  C_3
REMARK    2  A    between atoms: N_1  and  S_18
REMARK    3  A    between atoms: C_5  and  N_10
REMARK    4  A    between atoms: C_7  and  O_16
REMARK    5  A    between atoms: S_18  and  C_26
REMARK                            x       y       z     vdW  Elec       q    Type
REMARK                         _______ _______ _______ _____ _____    ______ ____
ROOT
ATOM      1  N   UNL     1      34.013 -18.961 -21.594  0.00  0.00    -0.215 N 
ATOM      2  H   UNL     1      33.370 -18.981 -22.339  0.00  0.00    +0.174 HD
ENDROOT
BRANCH   1   3
ATOM      3  C   UNL     1      33.908 -19.894 -20.518  0.00  0.00    +0.066 C 
ATOM      4  C   UNL     1      35.057 -20.332 -19.860  0.00  0.00    +0.034 C 
ATOM      5  C   UNL     1      34.954 -21.245 -18.810  0.00  0.00    +0.087 C 
ATOM      6  C   UNL     1      32.656 -20.369 -20.128  0.00  0.00    +0.019 C 
ATOM      7  C   UNL     1      33.703 -21.719 -18.419  0.00  0.00    +0.152 C 
ATOM      8  C   UNL     1      32.553 -21.282 -19.078  0.00  0.00    +0.039 C 
BRANCH   5  10
ATOM      9  O   UNL     1      35.803 -20.956 -15.937  0.00  0.00    -0.253 OA
ATOM     10  N   UNL     1      36.113 -21.674 -18.159  0.00  0.00    -0.266 N 
ATOM     11  N   UNL     1      37.703 -22.077 -16.533  0.00  0.00    -0.313 N 
ATOM     12  C   UNL     1      36.464 -21.513 -16.809  0.00  0.00    +0.301 C 
ATOM     13  H   UNL     1      36.769 -22.149 -18.719  0.00  0.00    +0.156 HD
ATOM     14  H   UNL     1      38.070 -22.035 -15.621  0.00  0.00    +0.146 HD
ATOM     15  H   UNL     1      38.213 -22.519 -17.250  0.00  0.00    +0.146 HD
ENDBRANCH   5  10
BRANCH   7  16
ATOM     16  O   UNL     1      33.580 -22.611 -17.395  0.00  0.00    -0.470 OA
ATOM     17  C   UNL     1      32.277 -22.790 -16.845  0.00  0.00    +0.253 C 
ENDBRANCH   7  16
ENDBRANCH   1   3
BRANCH   1  18
ATOM     18  S   UNL     1      35.284 -17.799 -21.562  0.00  0.00    +0.078 S 
ATOM     19  O   UNL     1      36.347 -18.200 -22.465  0.00  0.00    -0.150 OA
ATOM     20  O   UNL     1      35.595 -17.477 -20.182  0.00  0.00    -0.150 OA
BRANCH  18  26
ATOM     21  F   UNL     1      34.459 -15.336 -20.121  0.00  0.00    -0.200 F 
ATOM     22  F   UNL     1      34.516 -17.392 -24.402  0.00  0.00    -0.200 F 
ATOM     23  F   UNL     1      33.297 -15.198 -25.464  0.00  0.00    -0.199 F 
ATOM     24  F   UNL     1      33.241 -13.149 -21.194  0.00  0.00    -0.199 F 
ATOM     25  F   UNL     1      32.660 -13.074 -23.865  0.00  0.00    -0.199 F 
ATOM     26  C   UNL     1      34.494 -16.375 -22.256  0.00  0.00    +0.184 A 
ATOM     27  C   UNL     1      34.179 -15.311 -21.431  0.00  0.00    +0.191 A 
ATOM     28  C   UNL     1      34.207 -16.357 -23.609  0.00  0.00    +0.191 A 
ATOM     29  C   UNL     1      33.584 -15.235 -24.156  0.00  0.00    +0.198 A 
ATOM     30  C   UNL     1      33.555 -14.189 -21.978  0.00  0.00    +0.198 A 
ATOM     31  C   UNL     1      33.258 -14.151 -23.340  0.00  0.00    +0.199 A 
ENDBRANCH  18  26
ENDBRANCH   1  18
TORSDOF 5
ENDMDL
MODEL 3
REMARK VINA RESULT:     -11.7      4.090      8.195
REMARK  Name = 9812416
REMARK  5 active torsions:
REMARK  status: ('A' for Active; 'I' for Inactive)
REMARK    1  A    between atoms: N_1  and  C_3
REMARK    2  A    between atoms: N_1  and  S_18
REMARK    3  A    between atoms: C_5  and  N_10
REMARK    4  A    between atoms: C_7  and  O_16
REMARK    5  A    between atoms: S_18  and  C_26
REMARK                            x       y       z     vdW  Elec       q    Type
REMARK                         _______ _______ _______ _____ _____    ______ ____
ROOT
ATOM      1  N   UNL     1      34.694 -17.137 -20.813  0.00  0.00    -0.215 N 
ATOM      2  H   UNL     1      34.904 -17.129 -19.851  0.00  0.00    +0.174 HD
ENDROOT
BRANCH   1   3
ATOM      3  C   UNL     1      34.387 -15.924 -21.500  0.00  0.00    +0.066 C 
ATOM      4  C   UNL     1      33.858 -14.840 -20.799  0.00  0.00    +0.034 C 
ATOM      5  C   UNL     1      33.557 -13.655 -21.470  0.00  0.00    +0.087 C 
ATOM      6  C   UNL     1      34.615 -15.823 -22.873  0.00  0.00    +0.019 C 
ATOM      7  C   UNL     1      33.785 -13.553 -22.842  0.00  0.00    +0.152 C 
ATOM      8  C   UNL     1      34.314 -14.637 -23.544  0.00  0.00    +0.039 C 
BRANCH   5  10
ATOM      9  O   UNL     1      30.902 -12.260 -21.715  0.00  0.00    -0.253 OA
ATOM     10  N   UNL     1      33.029 -12.578 -20.755  0.00  0.00    -0.266 N 
ATOM     11  N   UNL     1      31.610 -10.915 -20.009  0.00  0.00    -0.313 N 
ATOM     12  C   UNL     1      31.778 -11.960 -20.908  0.00  0.00    +0.301 C 
ATOM     13  H   UNL     1      33.609 -12.203 -20.053  0.00  0.00    +0.156 HD
ATOM     14  H   UNL     1      30.774 -10.395 -20.009  0.00  0.00    +0.146 HD
ATOM     15  H   UNL     1      32.327 -10.695 -19.372  0.00  0.00    +0.146 HD
ENDBRANCH   5  10
BRANCH   7  16
ATOM     16  O   UNL     1      33.499 -12.404 -23.517  0.00  0.00    -0.470 OA
ATOM     17  C   UNL     1      32.776 -12.533 -24.739  0.00  0.00    +0.253 C 
ENDBRANCH   7  16
ENDBRANCH   1   3
BRANCH   1  18
ATOM     18  S   UNL     1      34.690 -18.615 -21.699  0.00  0.00    +0.078 S 
ATOM     19  O   UNL     1      35.983 -18.823 -22.324  0.00  0.00    -0.150 OA
ATOM     20  O   UNL     1      33.483 -18.681 -22.501  0.00  0.00    -0.150 OA
BRANCH  18  26
ATOM     21  F   UNL     1      32.164 -19.848 -20.740  0.00  0.00    -0.200 F 
ATOM     22  F   UNL     1      36.864 -19.797 -20.054  0.00  0.00    -0.200 F 
ATOM     23  F   UNL     1      36.587 -21.639 -18.066  0.00  0.00    -0.199 F 
ATOM     24  F   UNL     1      31.901 -21.689 -18.750  0.00  0.00    -0.199 F 
ATOM     25  F   UNL     1      34.109 -22.590 -17.412  0.00  0.00    -0.199 F 
ATOM     26  C   UNL     1      34.515 -19.813 -20.408  0.00  0.00    +0.184 A 
ATOM     27  C   UNL     1      33.253 -20.281 -20.090  0.00  0.00    +0.191 A 
ATOM     28  C   UNL     1      35.644 -20.255 -19.741  0.00  0.00    +0.191 A 
ATOM     29  C   UNL     1      35.506 -21.198 -18.723  0.00  0.00    +0.198 A 
ATOM     30  C   UNL     1      33.115 -21.225 -19.072  0.00  0.00    +0.198 A 
ATOM     31  C   UNL     1      34.241 -21.683 -18.389  0.00  0.00    +0.199 A 
ENDBRANCH  18  26
ENDBRANCH   1  18
TORSDOF 5
ENDMDL
MODEL 4
REMARK VINA RESULT:     -11.7      4.090      8.224
REMARK  Name = 9812416
REMARK  5 active torsions:
REMARK  status: ('A' for Active; 'I' for Inactive)
REMARK    1  A    between atoms: N_1  and  C_3
REMARK    2  A    between atoms: N_1  and  S_18
REMARK    3  A    between atoms: C_5  and  N_10
REMARK    4  A    between atoms: C_7  and  O_16
REMARK    5  A    between atoms: S_18  and  C_26
REMARK                            x       y       z     vdW  Elec       q    Type
REMARK                         _______ _______ _______ _____ _____    ______ ____
ROOT
ATOM      1  N   UNL     1      34.706 -17.133 -20.820  0.00  0.00    -0.215 N 
ATOM      2  H   UNL     1      34.927 -17.124 -19.860  0.00  0.00    +0.174 HD
ENDROOT
BRANCH   1   3
ATOM      3  C   UNL     1      34.391 -15.920 -21.504  0.00  0.00    +0.066 C 
ATOM      4  C   UNL     1      33.867 -14.837 -20.799  0.00  0.00    +0.034 C 
ATOM      5  C   UNL     1      33.558 -13.653 -21.467  0.00  0.00    +0.087 C 
ATOM      6  C   UNL     1      34.606 -15.819 -22.879  0.00  0.00    +0.019 C 
ATOM      7  C   UNL     1      33.774 -13.551 -22.842  0.00  0.00    +0.152 C 
ATOM      8  C   UNL     1      34.297 -14.635 -23.548  0.00  0.00    +0.039 C 
BRANCH   5  10
ATOM      9  O   UNL     1      30.907 -12.248 -21.703  0.00  0.00    -0.253 OA
ATOM     10  N   UNL     1      33.035 -12.576 -20.748  0.00  0.00    -0.266 N 
ATOM     11  N   UNL     1      31.623 -10.911 -19.994  0.00  0.00    -0.313 N 
ATOM     12  C   UNL     1      31.786 -11.954 -20.897  0.00  0.00    +0.301 C 
ATOM     13  H   UNL     1      33.617 -12.205 -20.046  0.00  0.00    +0.156 HD
ATOM     14  H   UNL     1      30.790 -10.388 -19.991  0.00  0.00    +0.146 HD
ATOM     15  H   UNL     1      32.343 -10.695 -19.358  0.00  0.00    +0.146 HD
ENDBRANCH   5  10
BRANCH   7  16
ATOM     16  O   UNL     1      33.480 -12.403 -23.514  0.00  0.00    -0.470 OA
ATOM     17  C   UNL     1      32.784 -12.536 -24.751  0.00  0.00    +0.253 C 
ENDBRANCH   7  16
ENDBRANCH   1   3
BRANCH   1  18
ATOM     18  S   UNL     1      34.691 -18.612 -21.703  0.00  0.00    +0.078 S 
ATOM     19  O   UNL     1      35.979 -18.827 -22.335  0.00  0.00    -0.150 OA
ATOM     20  O   UNL     1      33.479 -18.674 -22.498  0.00  0.00    -0.150 OA
BRANCH  18  26
ATOM     21  F   UNL     1      36.867 -19.794 -20.063  0.00  0.00    -0.200 F 
ATOM     22  F   UNL     1      32.165 -19.840 -20.736  0.00  0.00    -0.200 F 
ATOM     23  F   UNL     1      31.905 -21.682 -18.744  0.00  0.00    -0.199 F 
ATOM     24  F   UNL     1      36.593 -21.636 -18.075  0.00  0.00    -0.199 F 
ATOM     25  F   UNL     1      34.115 -22.581 -17.410  0.00  0.00    -0.199 F 
ATOM     26  C   UNL     1      34.517 -19.807 -20.410  0.00  0.00    +0.184 A 
ATOM     27  C   UNL     1      35.648 -20.251 -19.747  0.00  0.00    +0.191 A 
ATOM     28  C   UNL     1      33.256 -20.275 -20.089  0.00  0.00    +0.191 A 
ATOM     29  C   UNL     1      33.119 -21.217 -19.070  0.00  0.00    +0.198 A 
ATOM     30  C   UNL     1      35.511 -21.193 -18.728  0.00  0.00    +0.198 A 
ATOM     31  C   UNL     1      34.246 -21.676 -18.389  0.00  0.00    +0.199 A 
ENDBRANCH  18  26
ENDBRANCH   1  18
TORSDOF 5
ENDMDL
MODEL 5
REMARK VINA RESULT:     -11.6      1.626      3.255
REMARK  Name = 9812416
REMARK  5 active torsions:
REMARK  status: ('A' for Active; 'I' for Inactive)
REMARK    1  A    between atoms: N_1  and  C_3
REMARK    2  A    between atoms: N_1  and  S_18
REMARK    3  A    between atoms: C_5  and  N_10
REMARK    4  A    between atoms: C_7  and  O_16
REMARK    5  A    between atoms: S_18  and  C_26
REMARK                            x       y       z     vdW  Elec       q    Type
REMARK                         _______ _______ _______ _____ _____    ______ ____
ROOT
ATOM      1  N   UNL     1      33.727 -19.202 -21.436  0.00  0.00    -0.215 N 
ATOM      2  H   UNL     1      32.770 -18.974 -21.404  0.00  0.00    +0.174 HD
ENDROOT
BRANCH   1   3
ATOM      3  C   UNL     1      34.335 -19.938 -20.374  0.00  0.00    +0.066 C 
ATOM      4  C   UNL     1      33.557 -20.766 -19.564  0.00  0.00    +0.034 C 
ATOM      5  C   UNL     1      34.151 -21.484 -18.527  0.00  0.00    +0.087 C 
ATOM      6  C   UNL     1      35.707 -19.829 -20.146  0.00  0.00    +0.019 C 
ATOM      7  C   UNL     1      35.523 -21.376 -18.299  0.00  0.00    +0.152 C 
ATOM      8  C   UNL     1      36.301 -20.547 -19.109  0.00  0.00    +0.039 C 
BRANCH   5  10
ATOM      9  O   UNL     1      31.222 -21.328 -17.853  0.00  0.00    -0.253 OA
ATOM     10  N   UNL     1      33.360 -22.310 -17.725  0.00  0.00    -0.266 N 
ATOM     11  N   UNL     1      31.555 -23.208 -16.598  0.00  0.00    -0.313 N 
ATOM     12  C   UNL     1      31.990 -22.193 -17.440  0.00  0.00    +0.301 C 
ATOM     13  H   UNL     1      33.822 -23.070 -17.304  0.00  0.00    +0.156 HD
ATOM     14  H   UNL     1      30.612 -23.246 -16.318  0.00  0.00    +0.146 HD
ATOM     15  H   UNL     1      32.190 -23.891 -16.281  0.00  0.00    +0.146 HD
ENDBRANCH   5  10
BRANCH   7  16
ATOM     16  O   UNL     1      36.123 -22.070 -17.291  0.00  0.00    -0.470 OA
ATOM     17  C   UNL     1      36.794 -21.308 -16.291  0.00  0.00    +0.253 C 
ENDBRANCH   7  16
ENDBRANCH   1   3
BRANCH   1  18
ATOM     18  S   UNL     1      34.700 -18.719 -22.773  0.00  0.00    +0.078 S 
ATOM     19  O   UNL     1      34.243 -19.376 -23.983  0.00  0.00    -0.150 OA
ATOM     20  O   UNL     1      36.098 -18.800 -22.393  0.00  0.00    -0.150 OA
BRANCH  18  26
ATOM     21  F   UNL     1      34.866 -16.674 -20.625  0.00  0.00    -0.200 F 
ATOM     22  F   UNL     1      33.735 -17.297 -25.196  0.00  0.00    -0.200 F 
ATOM     23  F   UNL     1      33.125 -14.649 -25.398  0.00  0.00    -0.199 F 
ATOM     24  F   UNL     1      34.252 -14.029 -20.841  0.00  0.00    -0.199 F 
ATOM     25  F   UNL     1      33.384 -13.011 -23.225  0.00  0.00    -0.199 F 
ATOM     26  C   UNL     1      34.304 -17.000 -22.909  0.00  0.00    +0.184 A 
ATOM     27  C   UNL     1      34.440 -16.187 -21.798  0.00  0.00    +0.191 A 
ATOM     28  C   UNL     1      33.865 -16.503 -24.124  0.00  0.00    +0.191 A 
ATOM     29  C   UNL     1      33.552 -15.148 -24.231  0.00  0.00    +0.198 A 
ATOM     30  C   UNL     1      34.128 -14.832 -21.906  0.00  0.00    +0.198 A 
ATOM     31  C   UNL     1      33.684 -14.313 -23.122  0.00  0.00    +0.199 A 
ENDBRANCH  18  26
ENDBRANCH   1  18
TORSDOF 5
ENDMDL
MODEL 6
REMARK VINA RESULT:     -11.6      1.627      2.593
REMARK  Name = 9812416
REMARK  5 active torsions:
REMARK  status: ('A' for Active; 'I' for Inactive)
REMARK    1  A    between atoms: N_1  and  C_3
REMARK    2  A    between atoms: N_1  and  S_18
REMARK    3  A    between atoms: C_5  and  N_10
REMARK    4  A    between atoms: C_7  and  O_16
REMARK    5  A    between atoms: S_18  and  C_26
REMARK                            x       y       z     vdW  Elec       q    Type
REMARK                         _______ _______ _______ _____ _____    ______ ____
ROOT
ATOM      1  N   UNL     1      33.727 -19.206 -21.421  0.00  0.00    -0.215 N 
ATOM      2  H   UNL     1      32.771 -18.974 -21.388  0.00  0.00    +0.174 HD
ENDROOT
BRANCH   1   3
ATOM      3  C   UNL     1      34.332 -19.947 -20.360  0.00  0.00    +0.066 C 
ATOM      4  C   UNL     1      33.551 -20.773 -19.552  0.00  0.00    +0.034 C 
ATOM      5  C   UNL     1      34.141 -21.496 -18.516  0.00  0.00    +0.087 C 
ATOM      6  C   UNL     1      35.705 -19.843 -20.132  0.00  0.00    +0.019 C 
ATOM      7  C   UNL     1      35.513 -21.392 -18.288  0.00  0.00    +0.152 C 
ATOM      8  C   UNL     1      36.295 -20.566 -19.095  0.00  0.00    +0.039 C 
BRANCH   5  10
ATOM      9  O   UNL     1      31.214 -21.326 -17.838  0.00  0.00    -0.253 OA
ATOM     10  N   UNL     1      33.347 -22.320 -17.716  0.00  0.00    -0.266 N 
ATOM     11  N   UNL     1      31.539 -23.213 -16.590  0.00  0.00    -0.313 N 
ATOM     12  C   UNL     1      31.978 -22.197 -17.429  0.00  0.00    +0.301 C 
ATOM     13  H   UNL     1      33.805 -23.084 -17.298  0.00  0.00    +0.156 HD
ATOM     14  H   UNL     1      30.596 -23.246 -16.309  0.00  0.00    +0.146 HD
ATOM     15  H   UNL     1      32.171 -23.900 -16.276  0.00  0.00    +0.146 HD
ENDBRANCH   5  10
BRANCH   7  16
ATOM     16  O   UNL     1      36.111 -22.091 -17.281  0.00  0.00    -0.470 OA
ATOM     17  C   UNL     1      36.772 -21.333 -16.271  0.00  0.00    +0.253 C 
ENDBRANCH   7  16
ENDBRANCH   1   3
BRANCH   1  18
ATOM     18  S   UNL     1      34.701 -18.726 -22.758  0.00  0.00    +0.078 S 
ATOM     19  O   UNL     1      34.248 -19.387 -23.966  0.00  0.00    -0.150 OA
ATOM     20  O   UNL     1      36.099 -18.803 -22.374  0.00  0.00    -0.150 OA
BRANCH  18  26
ATOM     21  F   UNL     1      33.733 -17.313 -25.185  0.00  0.00    -0.200 F 
ATOM     22  F   UNL     1      34.865 -16.673 -20.617  0.00  0.00    -0.200 F 
ATOM     23  F   UNL     1      34.252 -14.028 -20.843  0.00  0.00    -0.199 F 
ATOM     24  F   UNL     1      33.124 -14.667 -25.398  0.00  0.00    -0.199 F 
ATOM     25  F   UNL     1      33.378 -13.021 -23.230  0.00  0.00    -0.199 F 
ATOM     26  C   UNL     1      34.303 -17.007 -22.900  0.00  0.00    +0.184 A 
ATOM     27  C   UNL     1      33.863 -16.516 -24.116  0.00  0.00    +0.191 A 
ATOM     28  C   UNL     1      34.439 -16.190 -21.792  0.00  0.00    +0.191 A 
ATOM     29  C   UNL     1      34.126 -14.835 -21.904  0.00  0.00    +0.198 A 
ATOM     30  C   UNL     1      33.549 -15.162 -24.228  0.00  0.00    +0.198 A 
ATOM     31  C   UNL     1      33.681 -14.321 -23.122  0.00  0.00    +0.199 A 
ENDBRANCH  18  26
ENDBRANCH   1  18
TORSDOF 5
ENDMDL
MODEL 7
REMARK VINA RESULT:     -11.4      3.986      7.979
REMARK  Name = 9812416
REMARK  5 active torsions:
REMARK  status: ('A' for Active; 'I' for Inactive)
REMARK    1  A    between atoms: N_1  and  C_3
REMARK    2  A    between atoms: N_1  and  S_18
REMARK    3  A    between atoms: C_5  and  N_10
REMARK    4  A    between atoms: C_7  and  O_16
REMARK    5  A    between atoms: S_18  and  C_26
REMARK                            x       y       z     vdW  Elec       q    Type
REMARK                         _______ _______ _______ _____ _____    ______ ____
ROOT
ATOM      1  N   UNL     1      35.247 -17.385 -21.708  0.00  0.00    -0.215 N 
ATOM      2  H   UNL     1      36.178 -17.457 -21.395  0.00  0.00    +0.174 HD
ENDROOT
BRANCH   1   3
ATOM      3  C   UNL     1      34.570 -16.128 -21.694  0.00  0.00    +0.066 C 
ATOM      4  C   UNL     1      34.305 -15.464 -22.892  0.00  0.00    +0.034 C 
ATOM      5  C   UNL     1      33.645 -14.236 -22.878  0.00  0.00    +0.087 C 
ATOM      6  C   UNL     1      34.175 -15.562 -20.481  0.00  0.00    +0.019 C 
ATOM      7  C   UNL     1      33.249 -13.671 -21.666  0.00  0.00    +0.152 C 
ATOM      8  C   UNL     1      33.515 -14.334 -20.467  0.00  0.00    +0.039 C 
BRANCH   5  10
ATOM      9  O   UNL     1      32.997 -15.346 -25.599  0.00  0.00    -0.253 OA
ATOM     10  N   UNL     1      33.386 -13.584 -24.085  0.00  0.00    -0.266 N 
ATOM     11  N   UNL     1      32.890 -13.175 -26.304  0.00  0.00    -0.313 N 
ATOM     12  C   UNL     1      33.087 -14.150 -25.335  0.00  0.00    +0.301 C 
ATOM     13  H   UNL     1      33.417 -12.600 -24.057  0.00  0.00    +0.156 HD
ATOM     14  H   UNL     1      32.673 -13.436 -27.228  0.00  0.00    +0.146 HD
ATOM     15  H   UNL     1      32.967 -12.223 -26.067  0.00  0.00    +0.146 HD
ENDBRANCH   5  10
BRANCH   7  16
ATOM     16  O   UNL     1      32.602 -12.472 -21.630  0.00  0.00    -0.470 OA
ATOM     17  C   UNL     1      31.672 -12.269 -20.569  0.00  0.00    +0.253 C 
ENDBRANCH   7  16
ENDBRANCH   1   3
BRANCH   1  18
ATOM     18  S   UNL     1      34.405 -18.774 -22.283  0.00  0.00    +0.078 S 
ATOM     19  O   UNL     1      35.208 -19.469 -23.271  0.00  0.00    -0.150 OA
ATOM     20  O   UNL     1      33.039 -18.399 -22.598  0.00  0.00    -0.150 OA
BRANCH  18  26
ATOM     21  F   UNL     1      31.972 -19.905 -21.007  0.00  0.00    -0.200 F 
ATOM     22  F   UNL     1      36.702 -19.681 -20.633  0.00  0.00    -0.200 F 
ATOM     23  F   UNL     1      36.592 -21.237 -18.399  0.00  0.00    -0.199 F 
ATOM     24  F   UNL     1      31.877 -21.459 -18.772  0.00  0.00    -0.199 F 
ATOM     25  F   UNL     1      34.183 -22.130 -17.466  0.00  0.00    -0.199 F 
ATOM     26  C   UNL     1      34.338 -19.785 -20.832  0.00  0.00    +0.184 A 
ATOM     27  C   UNL     1      33.109 -20.226 -20.375  0.00  0.00    +0.191 A 
ATOM     28  C   UNL     1      35.515 -20.112 -20.184  0.00  0.00    +0.191 A 
ATOM     29  C   UNL     1      35.463 -20.909 -19.041  0.00  0.00    +0.198 A 
ATOM     30  C   UNL     1      33.057 -21.023 -19.231  0.00  0.00    +0.198 A 
ATOM     31  C   UNL     1      34.234 -21.364 -18.564  0.00  0.00    +0.199 A 
ENDBRANCH  18  26
ENDBRANCH   1  18
TORSDOF 5
ENDMDL
MODEL 8
REMARK VINA RESULT:     -11.4      3.986      7.998
REMARK  Name = 9812416
REMARK  5 active torsions:
REMARK  status: ('A' for Active; 'I' for Inactive)
REMARK    1  A    between atoms: N_1  and  C_3
REMARK    2  A    between atoms: N_1  and  S_18
REMARK    3  A    between atoms: C_5  and  N_10
REMARK    4  A    between atoms: C_7  and  O_16
REMARK    5  A    between atoms: S_18  and  C_26
REMARK                            x       y       z     vdW  Elec       q    Type
REMARK                         _______ _______ _______ _____ _____    ______ ____
ROOT
ATOM      1  N   UNL     1      35.246 -17.369 -21.710  0.00  0.00    -0.215 N 
ATOM      2  H   UNL     1      36.177 -17.439 -21.397  0.00  0.00    +0.174 HD
ENDROOT
BRANCH   1   3
ATOM      3  C   UNL     1      34.566 -16.114 -21.690  0.00  0.00    +0.066 C 
ATOM      4  C   UNL     1      34.302 -15.443 -22.884  0.00  0.00    +0.034 C 
ATOM      5  C   UNL     1      33.638 -14.217 -22.864  0.00  0.00    +0.087 C 
ATOM      6  C   UNL     1      34.165 -15.557 -20.474  0.00  0.00    +0.019 C 
ATOM      7  C   UNL     1      33.238 -13.661 -21.649  0.00  0.00    +0.152 C 
ATOM      8  C   UNL     1      33.501 -14.331 -20.454  0.00  0.00    +0.039 C 
BRANCH   5  10
ATOM      9  O   UNL     1      33.019 -15.312 -25.598  0.00  0.00    -0.253 OA
ATOM     10  N   UNL     1      33.381 -13.558 -24.068  0.00  0.00    -0.266 N 
ATOM     11  N   UNL     1      32.896 -13.137 -26.287  0.00  0.00    -0.313 N 
ATOM     12  C   UNL     1      33.096 -14.117 -25.324  0.00  0.00    +0.301 C 
ATOM     13  H   UNL     1      33.402 -12.574 -24.032  0.00  0.00    +0.156 HD
ATOM     14  H   UNL     1      32.688 -13.392 -27.214  0.00  0.00    +0.146 HD
ATOM     15  H   UNL     1      32.962 -12.185 -26.041  0.00  0.00    +0.146 HD
ENDBRANCH   5  10
BRANCH   7  16
ATOM     16  O   UNL     1      32.587 -12.464 -21.608  0.00  0.00    -0.470 OA
ATOM     17  C   UNL     1      31.652 -12.272 -20.549  0.00  0.00    +0.253 C 
ENDBRANCH   7  16
ENDBRANCH   1   3
BRANCH   1  18
ATOM     18  S   UNL     1      34.408 -18.757 -22.291  0.00  0.00    +0.078 S 
ATOM     19  O   UNL     1      35.216 -19.449 -23.277  0.00  0.00    -0.150 OA
ATOM     20  O   UNL     1      33.043 -18.384 -22.611  0.00  0.00    -0.150 OA
BRANCH  18  26
ATOM     21  F   UNL     1      36.700 -19.669 -20.635  0.00  0.00    -0.200 F 
ATOM     22  F   UNL     1      31.972 -19.891 -21.025  0.00  0.00    -0.200 F 
ATOM     23  F   UNL     1      31.868 -21.454 -18.796  0.00  0.00    -0.199 F 
ATOM     24  F   UNL     1      36.583 -21.232 -18.408  0.00  0.00    -0.199 F 
ATOM     25  F   UNL     1      34.170 -22.125 -17.483  0.00  0.00    -0.199 F 
ATOM     26  C   UNL     1      34.336 -19.772 -20.842  0.00  0.00    +0.184 A 
ATOM     27  C   UNL     1      35.512 -20.101 -20.192  0.00  0.00    +0.191 A 
ATOM     28  C   UNL     1      33.107 -20.215 -20.390  0.00  0.00    +0.191 A 
ATOM     29  C   UNL     1      33.050 -21.014 -19.249  0.00  0.00    +0.198 A 
ATOM     30  C   UNL     1      35.455 -20.901 -19.051  0.00  0.00    +0.198 A 
ATOM     31  C   UNL     1      34.224 -21.358 -18.579  0.00  0.00    +0.199 A 
ENDBRANCH  18  26
ENDBRANCH   1  18
TORSDOF 5
ENDMDL
MODEL 9
REMARK VINA RESULT:     -11.2      6.144     10.021
REMARK  Name = 9812416
REMARK  5 active torsions:
REMARK  status: ('A' for Active; 'I' for Inactive)
REMARK    1  A    between atoms: N_1  and  C_3
REMARK    2  A    between atoms: N_1  and  S_18
REMARK    3  A    between atoms: C_5  and  N_10
REMARK    4  A    between atoms: C_7  and  O_16
REMARK    5  A    between atoms: S_18  and  C_26
REMARK                            x       y       z     vdW  Elec       q    Type
REMARK                         _______ _______ _______ _____ _____    ______ ____
ROOT
ATOM      1  N   UNL     1      31.757 -12.723 -22.429  0.00  0.00    -0.215 N 
ATOM      2  H   UNL     1      31.139 -13.479 -22.299  0.00  0.00    +0.174 HD
ENDROOT
BRANCH   1   3
ATOM      3  C   UNL     1      31.555 -11.492 -21.734  0.00  0.00    +0.066 C 
ATOM      4  C   UNL     1      31.260 -10.329 -22.445  0.00  0.00    +0.034 C 
ATOM      5  C   UNL     1      31.064  -9.127 -21.766  0.00  0.00    +0.087 C 
ATOM      6  C   UNL     1      31.655 -11.453 -20.343  0.00  0.00    +0.019 C 
ATOM      7  C   UNL     1      31.163  -9.087 -20.376  0.00  0.00    +0.152 C 
ATOM      8  C   UNL     1      31.459 -10.250 -19.664  0.00  0.00    +0.039 C 
BRANCH   5  10
ATOM      9  O   UNL     1      32.857  -7.303 -23.352  0.00  0.00    -0.253 OA
ATOM     10  N   UNL     1      30.768  -7.971 -22.492  0.00  0.00    -0.266 N 
ATOM     11  N   UNL     1      30.978  -6.086 -23.810  0.00  0.00    -0.313 N 
ATOM     12  C   UNL     1      31.646  -7.150 -23.219  0.00  0.00    +0.301 C 
ATOM     13  H   UNL     1      29.824  -7.695 -22.493  0.00  0.00    +0.156 HD
ATOM     14  H   UNL     1      31.477  -5.431 -24.350  0.00  0.00    +0.146 HD
ATOM     15  H   UNL     1      30.006  -5.986 -23.688  0.00  0.00    +0.146 HD
ENDBRANCH   5  10
BRANCH   7  16
ATOM     16  O   UNL     1      30.974  -7.923 -19.692  0.00  0.00    -0.470 OA
ATOM     17  C   UNL     1      32.088  -7.037 -19.603  0.00  0.00    +0.253 C 
ENDBRANCH   7  16
ENDBRANCH   1   3
BRANCH   1  18
ATOM     18  S   UNL     1      33.098 -12.861 -23.500  0.00  0.00    +0.078 S 
ATOM     19  O   UNL     1      34.174 -11.991 -23.064  0.00  0.00    -0.150 OA
ATOM     20  O   UNL     1      32.620 -12.784 -24.868  0.00  0.00    -0.150 OA
BRANCH  18  26
ATOM     21  F   UNL     1      34.170 -14.011 -20.980  0.00  0.00    -0.200 F 
ATOM     22  F   UNL     1      33.061 -15.081 -25.473  0.00  0.00    -0.200 F 
ATOM     23  F   UNL     1      33.854 -17.653 -25.049  0.00  0.00    -0.199 F 
ATOM     24  F   UNL     1      34.960 -16.585 -20.569  0.00  0.00    -0.199 F 
ATOM     25  F   UNL     1      34.802 -18.411 -22.599  0.00  0.00    -0.199 F 
ATOM     26  C   UNL     1      33.611 -14.533 -23.229  0.00  0.00    +0.184 A 
ATOM     27  C   UNL     1      34.089 -14.896 -21.982  0.00  0.00    +0.191 A 
ATOM     28  C   UNL     1      33.525 -15.441 -24.268  0.00  0.00    +0.191 A 
ATOM     29  C   UNL     1      33.930 -16.758 -24.054  0.00  0.00    +0.198 A 
ATOM     30  C   UNL     1      34.493 -16.214 -21.769  0.00  0.00    +0.198 A 
ATOM     31  C   UNL     1      34.414 -17.145 -22.805  0.00  0.00    +0.199 A 
ENDBRANCH  18  26
ENDBRANCH   1  18
TORSDOF 5
ENDMDL
