MODEL 1
REMARK VINA RESULT:     -11.4      0.000      0.000
REMARK  Name = 5287855
REMARK  1 active torsions:
REMARK  status: ('A' for Active; 'I' for Inactive)
REMARK    1  A    between atoms: C_7  and  C_16
REMARK                            x       y       z     vdW  Elec       q    Type
REMARK                         _______ _______ _______ _____ _____    ______ ____
ROOT
ATOM      1  F   UNL     1      34.852 -22.440 -19.672  0.00  0.00    -0.125 F 
ATOM      2  F   UNL     1      34.121 -21.018 -18.176  0.00  0.00    -0.125 F 
ATOM      3  O   UNL     1      33.617 -20.667 -20.360  0.00  0.00    -0.395 OA
ATOM      4  O   UNL     1      35.860 -20.417 -19.502  0.00  0.00    -0.395 OA
ATOM      5  C   UNL     1      34.299 -19.664 -20.978  0.00  0.00    +0.182 C 
ATOM      6  C   UNL     1      35.579 -19.521 -20.489  0.00  0.00    +0.182 C 
ATOM      7  C   UNL     1      34.665 -17.875 -22.498  0.00  0.00    +0.004 C 
ATOM      8  C   UNL     1      33.812 -18.855 -21.984  0.00  0.00    +0.040 C 
ATOM      9  C   UNL     1      36.440 -18.561 -20.979  0.00  0.00    +0.040 C 
ATOM     10  C   UNL     1      35.972 -17.729 -21.998  0.00  0.00    +0.003 C 
ATOM     11  C   UNL     1      34.614 -21.125 -19.435  0.00  0.00    +0.589 C 
ENDROOT
BRANCH   7  16
ATOM     12  S   UNL     1      33.986 -14.766 -21.990  0.00  0.00    -0.025 S 
ATOM     13  O   UNL     1      33.260 -15.255 -25.713  0.00  0.00    -0.269 OA
ATOM     14  O   UNL     1      33.286 -12.231 -22.202  0.00  0.00    -0.262 OA
ATOM     15  N   UNL     1      33.196 -13.571 -24.108  0.00  0.00    -0.243 N 
ATOM     16  C   UNL     1      34.197 -16.998 -23.561  0.00  0.00    +0.011 C 
ATOM     17  C   UNL     1      33.891 -15.691 -23.440  0.00  0.00    +0.087 C 
ATOM     18  C   UNL     1      33.418 -14.855 -24.569  0.00  0.00    +0.258 C 
ATOM     19  C   UNL     1      33.429 -13.298 -22.781  0.00  0.00    +0.283 C 
ATOM     20  H   UNL     1      32.878 -12.867 -24.718  0.00  0.00    +0.159 HD
ENDBRANCH   7  16
TORSDOF 1
ENDMDL
MODEL 2
REMARK VINA RESULT:     -11.1      1.071      1.207
REMARK  Name = 5287855
REMARK  1 active torsions:
REMARK  status: ('A' for Active; 'I' for Inactive)
REMARK    1  A    between atoms: C_7  and  C_16
REMARK                            x       y       z     vdW  Elec       q    Type
REMARK                         _______ _______ _______ _____ _____    ______ ____
ROOT
ATOM      1  F   UNL     1      33.559 -23.126 -19.136  0.00  0.00    -0.125 F 
ATOM      2  F   UNL     1      33.008 -21.592 -17.675  0.00  0.00    -0.125 F 
ATOM      3  O   UNL     1      32.839 -21.110 -19.885  0.00  0.00    -0.395 OA
ATOM      4  O   UNL     1      34.973 -21.388 -18.789  0.00  0.00    -0.395 OA
ATOM      5  C   UNL     1      33.794 -20.282 -20.392  0.00  0.00    +0.182 C 
ATOM      6  C   UNL     1      35.011 -20.441 -19.767  0.00  0.00    +0.182 C 
ATOM      7  C   UNL     1      34.718 -18.607 -21.800  0.00  0.00    +0.004 C 
ATOM      8  C   UNL     1      33.615 -19.373 -21.414  0.00  0.00    +0.040 C 
ATOM      9  C   UNL     1      36.115 -19.697 -20.130  0.00  0.00    +0.040 C 
ATOM     10  C   UNL     1      35.961 -18.769 -21.162  0.00  0.00    +0.003 C 
ATOM     11  C   UNL     1      33.599 -21.795 -18.879  0.00  0.00    +0.589 C 
ENDROOT
BRANCH   7  16
ATOM     12  S   UNL     1      34.127 -15.491 -21.234  0.00  0.00    -0.025 S 
ATOM     13  O   UNL     1      34.308 -15.700 -25.048  0.00  0.00    -0.269 OA
ATOM     14  O   UNL     1      33.657 -12.901 -21.413  0.00  0.00    -0.262 OA
ATOM     15  N   UNL     1      33.955 -14.114 -23.382  0.00  0.00    -0.243 N 
ATOM     16  C   UNL     1      34.580 -17.635 -22.874  0.00  0.00    +0.011 C 
ATOM     17  C   UNL     1      34.334 -16.317 -22.731  0.00  0.00    +0.087 C 
ATOM     18  C   UNL     1      34.205 -15.382 -23.873  0.00  0.00    +0.258 C 
ATOM     19  C   UNL     1      33.872 -13.939 -22.020  0.00  0.00    +0.283 C 
ATOM     20  H   UNL     1      33.840 -13.352 -23.995  0.00  0.00    +0.159 HD
ENDBRANCH   7  16
TORSDOF 1
ENDMDL
MODEL 3
REMARK VINA RESULT:     -11.0      4.187      6.969
REMARK  Name = 5287855
REMARK  1 active torsions:
REMARK  status: ('A' for Active; 'I' for Inactive)
REMARK    1  A    between atoms: C_7  and  C_16
REMARK                            x       y       z     vdW  Elec       q    Type
REMARK                         _______ _______ _______ _____ _____    ______ ____
ROOT
ATOM      1  F   UNL     1      34.195 -12.533 -22.874  0.00  0.00    -0.125 F 
ATOM      2  F   UNL     1      32.143 -13.184 -22.478  0.00  0.00    -0.125 F 
ATOM      3  O   UNL     1      33.851 -14.243 -21.425  0.00  0.00    -0.395 OA
ATOM      4  O   UNL     1      33.464 -14.470 -23.798  0.00  0.00    -0.395 OA
ATOM      5  C   UNL     1      34.156 -15.489 -21.883  0.00  0.00    +0.182 C 
ATOM      6  C   UNL     1      33.935 -15.618 -23.237  0.00  0.00    +0.182 C 
ATOM      7  C   UNL     1      34.892 -17.744 -21.772  0.00  0.00    +0.004 C 
ATOM      8  C   UNL     1      34.635 -16.535 -21.122  0.00  0.00    +0.040 C 
ATOM      9  C   UNL     1      34.181 -16.802 -23.902  0.00  0.00    +0.040 C 
ATOM     10  C   UNL     1      34.666 -17.877 -23.154  0.00  0.00    +0.003 C 
ATOM     11  C   UNL     1      33.417 -13.620 -22.643  0.00  0.00    +0.589 C 
ENDROOT
BRANCH   7  16
ATOM     12  S   UNL     1      32.940 -19.812 -20.256  0.00  0.00    -0.025 S 
ATOM     13  O   UNL     1      36.441 -21.147 -19.493  0.00  0.00    -0.269 OA
ATOM     14  O   UNL     1      31.897 -21.783 -18.845  0.00  0.00    -0.262 OA
ATOM     15  N   UNL     1      34.218 -21.662 -19.038  0.00  0.00    -0.243 N 
ATOM     16  C   UNL     1      35.399 -18.878 -21.013  0.00  0.00    +0.011 C 
ATOM     17  C   UNL     1      34.660 -19.790 -20.350  0.00  0.00    +0.087 C 
ATOM     18  C   UNL     1      35.245 -20.922 -19.594  0.00  0.00    +0.258 C 
ATOM     19  C   UNL     1      32.922 -21.259 -19.256  0.00  0.00    +0.283 C 
ATOM     20  H   UNL     1      34.412 -22.461 -18.496  0.00  0.00    +0.159 HD
ENDBRANCH   7  16
TORSDOF 1
ENDMDL
MODEL 4
REMARK VINA RESULT:     -10.7      5.624      8.902
REMARK  Name = 5287855
REMARK  1 active torsions:
REMARK  status: ('A' for Active; 'I' for Inactive)
REMARK    1  A    between atoms: C_7  and  C_16
REMARK                            x       y       z     vdW  Elec       q    Type
REMARK                         _______ _______ _______ _____ _____    ______ ____
ROOT
ATOM      1  F   UNL     1      30.936  -7.003 -22.759  0.00  0.00    -0.125 F 
ATOM      2  F   UNL     1      32.592  -7.044 -21.327  0.00  0.00    -0.125 F 
ATOM      3  O   UNL     1      32.636  -8.466 -23.093  0.00  0.00    -0.395 OA
ATOM      4  O   UNL     1      31.062  -8.717 -21.279  0.00  0.00    -0.395 OA
ATOM      5  C   UNL     1      32.367  -9.772 -22.817  0.00  0.00    +0.182 C 
ATOM      6  C   UNL     1      31.469  -9.915 -21.782  0.00  0.00    +0.182 C 
ATOM      7  C   UNL     1      32.506 -12.133 -23.043  0.00  0.00    +0.004 C 
ATOM      8  C   UNL     1      32.904 -10.863 -23.469  0.00  0.00    +0.040 C 
ATOM      9  C   UNL     1      31.060 -11.158 -21.344  0.00  0.00    +0.040 C 
ATOM     10  C   UNL     1      31.589 -12.279 -21.986  0.00  0.00    +0.003 C 
ATOM     11  C   UNL     1      31.808  -7.820 -22.116  0.00  0.00    +0.589 C 
ENDROOT
BRANCH   7  16
ATOM     12  S   UNL     1      33.844 -14.558 -21.396  0.00  0.00    -0.025 S 
ATOM     13  O   UNL     1      34.117 -15.680 -25.041  0.00  0.00    -0.269 OA
ATOM     14  O   UNL     1      35.021 -16.793 -20.635  0.00  0.00    -0.262 OA
ATOM     15  N   UNL     1      34.665 -16.445 -22.913  0.00  0.00    -0.243 N 
ATOM     16  C   UNL     1      33.044 -13.315 -23.700  0.00  0.00    +0.011 C 
ATOM     17  C   UNL     1      33.618 -14.373 -23.093  0.00  0.00    +0.087 C 
ATOM     18  C   UNL     1      34.147 -15.547 -23.827  0.00  0.00    +0.258 C 
ATOM     19  C   UNL     1      34.613 -16.129 -21.576  0.00  0.00    +0.283 C 
ATOM     20  H   UNL     1      35.063 -17.294 -23.213  0.00  0.00    +0.159 HD
ENDBRANCH   7  16
TORSDOF 1
ENDMDL
MODEL 5
REMARK VINA RESULT:     -10.3      2.152      3.198
REMARK  Name = 5287855
REMARK  1 active torsions:
REMARK  status: ('A' for Active; 'I' for Inactive)
REMARK    1  A    between atoms: C_7  and  C_16
REMARK                            x       y       z     vdW  Elec       q    Type
REMARK                         _______ _______ _______ _____ _____    ______ ____
ROOT
ATOM      1  F   UNL     1      34.382 -19.595 -19.982  0.00  0.00    -0.125 F 
ATOM      2  F   UNL     1      36.428 -19.507 -20.758  0.00  0.00    -0.125 F 
ATOM      3  O   UNL     1      35.246 -17.581 -20.564  0.00  0.00    -0.395 OA
ATOM      4  O   UNL     1      34.697 -19.267 -22.203  0.00  0.00    -0.395 OA
ATOM      5  C   UNL     1      34.783 -17.042 -21.726  0.00  0.00    +0.182 C 
ATOM      6  C   UNL     1      34.470 -18.004 -22.661  0.00  0.00    +0.182 C 
ATOM      7  C   UNL     1      34.135 -15.334 -23.243  0.00  0.00    +0.004 C 
ATOM      8  C   UNL     1      34.626 -15.697 -21.987  0.00  0.00    +0.040 C 
ATOM      9  C   UNL     1      33.983 -17.671 -23.909  0.00  0.00    +0.040 C 
ATOM     10  C   UNL     1      33.815 -16.316 -24.199  0.00  0.00    +0.003 C 
ATOM     11  C   UNL     1      35.185 -18.978 -20.885  0.00  0.00    +0.589 C 
ENDROOT
BRANCH   7  16
ATOM     12  S   UNL     1      32.335 -13.372 -21.429  0.00  0.00    -0.025 S 
ATOM     13  O   UNL     1      33.597 -11.104 -24.237  0.00  0.00    -0.269 OA
ATOM     14  O   UNL     1      31.032 -11.329 -20.385  0.00  0.00    -0.262 OA
ATOM     15  N   UNL     1      32.264 -10.981 -22.334  0.00  0.00    -0.243 N 
ATOM     16  C   UNL     1      33.951 -13.927 -23.567  0.00  0.00    +0.011 C 
ATOM     17  C   UNL     1      33.220 -13.036 -22.868  0.00  0.00    +0.087 C 
ATOM     18  C   UNL     1      33.075 -11.614 -23.257  0.00  0.00    +0.258 C 
ATOM     19  C   UNL     1      31.761 -11.716 -21.286  0.00  0.00    +0.283 C 
ATOM     20  H   UNL     1      32.053 -10.023 -22.424  0.00  0.00    +0.159 HD
ENDBRANCH   7  16
TORSDOF 1
ENDMDL
MODEL 6
REMARK VINA RESULT:     -10.1      3.482      5.127
REMARK  Name = 5287855
REMARK  1 active torsions:
REMARK  status: ('A' for Active; 'I' for Inactive)
REMARK    1  A    between atoms: C_7  and  C_16
REMARK                            x       y       z     vdW  Elec       q    Type
REMARK                         _______ _______ _______ _____ _____    ______ ____
ROOT
ATOM      1  F   UNL     1      34.742 -18.685 -21.741  0.00  0.00    -0.125 F 
ATOM      2  F   UNL     1      36.638 -17.593 -21.653  0.00  0.00    -0.125 F 
ATOM      3  O   UNL     1      34.824 -16.724 -20.605  0.00  0.00    -0.395 OA
ATOM      4  O   UNL     1      34.993 -16.824 -23.012  0.00  0.00    -0.395 OA
ATOM      5  C   UNL     1      34.238 -15.655 -21.210  0.00  0.00    +0.182 C 
ATOM      6  C   UNL     1      34.334 -15.712 -22.584  0.00  0.00    +0.182 C 
ATOM      7  C   UNL     1      33.061 -13.597 -21.364  0.00  0.00    +0.004 C 
ATOM      8  C   UNL     1      33.606 -14.609 -20.570  0.00  0.00    +0.040 C 
ATOM      9  C   UNL     1      33.804 -14.725 -23.389  0.00  0.00    +0.040 C 
ATOM     10  C   UNL     1      33.160 -13.655 -22.766  0.00  0.00    +0.003 C 
ATOM     11  C   UNL     1      35.294 -17.445 -21.753  0.00  0.00    +0.589 C 
ENDROOT
BRANCH   7  16
ATOM     12  S   UNL     1      32.339 -10.902 -22.976  0.00  0.00    -0.025 S 
ATOM     13  O   UNL     1      31.023 -10.228 -19.449  0.00  0.00    -0.269 OA
ATOM     14  O   UNL     1      31.507  -8.514 -23.727  0.00  0.00    -0.262 OA
ATOM     15  N   UNL     1      31.153  -9.168 -21.517  0.00  0.00    -0.243 N 
ATOM     16  C   UNL     1      32.384 -12.473 -20.735  0.00  0.00    +0.011 C 
ATOM     17  C   UNL     1      32.044 -11.312 -21.329  0.00  0.00    +0.087 C 
ATOM     18  C   UNL     1      31.353 -10.206 -20.625  0.00  0.00    +0.258 C 
ATOM     19  C   UNL     1      31.594  -9.318 -22.811  0.00  0.00    +0.283 C 
ATOM     20  H   UNL     1      30.704  -8.340 -21.231  0.00  0.00    +0.159 HD
ENDBRANCH   7  16
TORSDOF 1
ENDMDL
MODEL 7
REMARK VINA RESULT:     -10.1      3.068      4.585
REMARK  Name = 5287855
REMARK  1 active torsions:
REMARK  status: ('A' for Active; 'I' for Inactive)
REMARK    1  A    between atoms: C_7  and  C_16
REMARK                            x       y       z     vdW  Elec       q    Type
REMARK                         _______ _______ _______ _____ _____    ______ ____
ROOT
ATOM      1  F   UNL     1      34.224 -18.422 -20.729  0.00  0.00    -0.125 F 
ATOM      2  F   UNL     1      36.275 -17.742 -21.086  0.00  0.00    -0.125 F 
ATOM      3  O   UNL     1      34.637 -16.194 -20.825  0.00  0.00    -0.395 OA
ATOM      4  O   UNL     1      34.769 -17.612 -22.776  0.00  0.00    -0.395 OA
ATOM      5  C   UNL     1      34.230 -15.556 -21.958  0.00  0.00    +0.182 C 
ATOM      6  C   UNL     1      34.305 -16.365 -23.071  0.00  0.00    +0.182 C 
ATOM      7  C   UNL     1      33.408 -13.772 -23.292  0.00  0.00    +0.004 C 
ATOM      8  C   UNL     1      33.785 -14.253 -22.036  0.00  0.00    +0.040 C 
ATOM      9  C   UNL     1      33.939 -15.913 -24.322  0.00  0.00    +0.040 C 
ATOM     10  C   UNL     1      33.484 -14.597 -24.428  0.00  0.00    +0.003 C 
ATOM     11  C   UNL     1      34.972 -17.482 -21.361  0.00  0.00    +0.589 C 
ENDROOT
BRANCH   7  16
ATOM     12  S   UNL     1      32.119 -12.148 -20.825  0.00  0.00    -0.025 S 
ATOM     13  O   UNL     1      31.978  -9.655 -23.721  0.00  0.00    -0.269 OA
ATOM     14  O   UNL     1      31.006 -10.353 -19.244  0.00  0.00    -0.262 OA
ATOM     15  N   UNL     1      31.405  -9.779 -21.468  0.00  0.00    -0.243 N 
ATOM     16  C   UNL     1      32.930 -12.403 -23.426  0.00  0.00    +0.011 C 
ATOM     17  C   UNL     1      32.380 -11.651 -22.452  0.00  0.00    +0.087 C 
ATOM     18  C   UNL     1      31.913 -10.260 -22.661  0.00  0.00    +0.258 C 
ATOM     19  C   UNL     1      31.412 -10.604 -20.368  0.00  0.00    +0.283 C 
ATOM     20  H   UNL     1      31.046  -8.864 -21.408  0.00  0.00    +0.159 HD
ENDBRANCH   7  16
TORSDOF 1
ENDMDL
MODEL 8
REMARK VINA RESULT:      -9.9      4.716      7.508
REMARK  Name = 5287855
REMARK  1 active torsions:
REMARK  status: ('A' for Active; 'I' for Inactive)
REMARK    1  A    between atoms: C_7  and  C_16
REMARK                            x       y       z     vdW  Elec       q    Type
REMARK                         _______ _______ _______ _____ _____    ______ ____
ROOT
ATOM      1  F   UNL     1      31.583  -9.617 -20.844  0.00  0.00    -0.125 F 
ATOM      2  F   UNL     1      29.872 -10.798 -21.532  0.00  0.00    -0.125 F 
ATOM      3  O   UNL     1      31.539 -11.841 -20.401  0.00  0.00    -0.395 OA
ATOM      4  O   UNL     1      31.844 -10.981 -22.637  0.00  0.00    -0.395 OA
ATOM      5  C   UNL     1      32.373 -12.618 -21.145  0.00  0.00    +0.182 C 
ATOM      6  C   UNL     1      32.547 -12.128 -22.421  0.00  0.00    +0.182 C 
ATOM      7  C   UNL     1      33.821 -14.437 -21.631  0.00  0.00    +0.004 C 
ATOM      8  C   UNL     1      32.997 -13.772 -20.719  0.00  0.00    +0.040 C 
ATOM      9  C   UNL     1      33.355 -12.766 -23.339  0.00  0.00    +0.040 C 
ATOM     10  C   UNL     1      33.999 -13.937 -22.933  0.00  0.00    +0.003 C 
ATOM     11  C   UNL     1      31.217 -10.819 -21.356  0.00  0.00    +0.589 C 
ENDROOT
BRANCH   7  16
ATOM     12  S   UNL     1      33.771 -17.109 -23.431  0.00  0.00    -0.025 S 
ATOM     13  O   UNL     1      35.880 -18.100 -20.399  0.00  0.00    -0.269 OA
ATOM     14  O   UNL     1      34.088 -19.532 -24.425  0.00  0.00    -0.262 OA
ATOM     15  N   UNL     1      35.086 -19.033 -22.378  0.00  0.00    -0.243 N 
ATOM     16  C   UNL     1      34.503 -15.659 -21.229  0.00  0.00    +0.011 C 
ATOM     17  C   UNL     1      34.535 -16.818 -21.916  0.00  0.00    +0.087 C 
ATOM     18  C   UNL     1      35.251 -18.027 -21.444  0.00  0.00    +0.258 C 
ATOM     19  C   UNL     1      34.341 -18.771 -23.504  0.00  0.00    +0.283 C 
ATOM     20  H   UNL     1      35.494 -19.918 -22.239  0.00  0.00    +0.159 HD
ENDBRANCH   7  16
TORSDOF 1
ENDMDL
MODEL 9
REMARK VINA RESULT:      -9.8      3.051      4.220
REMARK  Name = 5287855
REMARK  1 active torsions:
REMARK  status: ('A' for Active; 'I' for Inactive)
REMARK    1  A    between atoms: C_7  and  C_16
REMARK                            x       y       z     vdW  Elec       q    Type
REMARK                         _______ _______ _______ _____ _____    ______ ____
ROOT
ATOM      1  F   UNL     1      36.502 -18.651 -22.093  0.00  0.00    -0.125 F 
ATOM      2  F   UNL     1      34.434 -19.362 -22.194  0.00  0.00    -0.125 F 
ATOM      3  O   UNL     1      34.962 -17.388 -23.178  0.00  0.00    -0.395 OA
ATOM      4  O   UNL     1      34.940 -17.663 -20.779  0.00  0.00    -0.395 OA
ATOM      5  C   UNL     1      34.544 -16.265 -22.532  0.00  0.00    +0.182 C 
ATOM      6  C   UNL     1      34.531 -16.422 -21.163  0.00  0.00    +0.182 C 
ATOM      7  C   UNL     1      33.764 -14.034 -22.298  0.00  0.00    +0.004 C 
ATOM      8  C   UNL     1      34.166 -15.081 -23.130  0.00  0.00    +0.040 C 
ATOM      9  C   UNL     1      34.139 -15.403 -20.320  0.00  0.00    +0.040 C 
ATOM     10  C   UNL     1      33.751 -14.194 -20.900  0.00  0.00    +0.003 C 
ATOM     11  C   UNL     1      35.205 -18.254 -22.060  0.00  0.00    +0.589 C 
ENDROOT
BRANCH   7  16
ATOM     12  S   UNL     1      31.831 -11.970 -20.753  0.00  0.00    -0.025 S 
ATOM     13  O   UNL     1      32.552 -10.220 -24.075  0.00  0.00    -0.269 OA
ATOM     14  O   UNL     1      30.324  -9.931 -20.023  0.00  0.00    -0.262 OA
ATOM     15  N   UNL     1      31.352  -9.859 -22.114  0.00  0.00    -0.243 N 
ATOM     16  C   UNL     1      33.356 -12.764 -22.882  0.00  0.00    +0.011 C 
ATOM     17  C   UNL     1      32.555 -11.844 -22.310  0.00  0.00    +0.087 C 
ATOM     18  C   UNL     1      32.179 -10.569 -22.965  0.00  0.00    +0.258 C 
ATOM     19  C   UNL     1      31.035 -10.408 -20.894  0.00  0.00    +0.283 C 
ATOM     20  H   UNL     1      30.999  -8.978 -22.376  0.00  0.00    +0.159 HD
ENDBRANCH   7  16
TORSDOF 1
ENDMDL
