MODEL 1
REMARK VINA RESULT:     -11.3      0.000      0.000
REMARK  Name = 4850
REMARK  2 active torsions:
REMARK  status: ('A' for Active; 'I' for Inactive)
REMARK    1  A    between atoms: N_1  and  C_14
REMARK    2  A    between atoms: C_14  and  C_17
REMARK                            x       y       z     vdW  Elec       q    Type
REMARK                         _______ _______ _______ _____ _____    ______ ____
ROOT
ATOM      1  N   UNL     1      34.716 -19.030 -21.397  0.00  0.00    +0.392 N 
ATOM      2  N   UNL     1      34.201 -20.901 -19.302  0.00  0.00    -0.257 N 
ATOM      3  N   UNL     1      34.933 -21.956 -17.320  0.00  0.00    -0.203 NA
ATOM      4  N   UNL     1      32.663 -22.218 -18.086  0.00  0.00    -0.181 NA
ATOM      5  C   UNL     1      35.777 -19.928 -20.926  0.00  0.00    -0.054 C 
ATOM      6  C   UNL     1      33.414 -19.703 -21.307  0.00  0.00    -0.054 C 
ATOM      7  C   UNL     1      35.544 -20.337 -19.470  0.00  0.00    +0.079 C 
ATOM      8  C   UNL     1      33.103 -20.104 -19.863  0.00  0.00    +0.079 C 
ATOM      9  C   UNL     1      33.924 -21.718 -18.201  0.00  0.00    +0.090 C 
ATOM     10  C   UNL     1      34.631 -22.747 -16.270  0.00  0.00    +0.165 C 
ATOM     11  C   UNL     1      32.431 -23.001 -17.013  0.00  0.00    +0.108 C 
ATOM     12  C   UNL     1      33.386 -23.304 -16.062  0.00  0.00    +0.022 C 
ATOM     13  H   UNL     1      34.699 -18.200 -20.804  0.00  0.00    -0.079 HD
ENDROOT
BRANCH   1  14
ATOM     14  C   UNL     1      34.978 -18.602 -22.771  0.00  0.00    -0.050 C 
BRANCH  14  17
ATOM     15  O   UNL     1      33.082 -15.023 -25.594  0.00  0.00    -0.435 OA
ATOM     16  O   UNL     1      33.216 -13.395 -23.822  0.00  0.00    -0.435 OA
ATOM     17  C   UNL     1      34.513 -17.192 -23.019  0.00  0.00    -0.040 C 
ATOM     18  C   UNL     1      34.012 -16.851 -24.270  0.00  0.00    +0.034 C 
ATOM     19  C   UNL     1      34.595 -16.255 -21.982  0.00  0.00    -0.003 C 
ATOM     20  C   UNL     1      33.597 -15.547 -24.448  0.00  0.00    +0.176 C 
ATOM     21  C   UNL     1      33.674 -14.617 -23.437  0.00  0.00    +0.176 C 
ATOM     22  C   UNL     1      34.169 -14.940 -22.190  0.00  0.00    +0.040 C 
ATOM     23  C   UNL     1      32.843 -13.660 -25.189  0.00  0.00    +0.429 C 
ENDBRANCH  14  17
ENDBRANCH   1  14
TORSDOF 2
ENDMDL
MODEL 2
REMARK VINA RESULT:     -11.3      3.985      8.638
REMARK  Name = 4850
REMARK  2 active torsions:
REMARK  status: ('A' for Active; 'I' for Inactive)
REMARK    1  A    between atoms: N_1  and  C_14
REMARK    2  A    between atoms: C_14  and  C_17
REMARK                            x       y       z     vdW  Elec       q    Type
REMARK                         _______ _______ _______ _____ _____    ______ ____
ROOT
ATOM      1  N   UNL     1      34.547 -18.157 -21.657  0.00  0.00    +0.392 N 
ATOM      2  N   UNL     1      34.024 -15.704 -23.023  0.00  0.00    -0.257 N 
ATOM      3  N   UNL     1      33.111 -14.600 -24.900  0.00  0.00    -0.203 NA
ATOM      4  N   UNL     1      33.846 -13.350 -22.976  0.00  0.00    -0.181 NA
ATOM      5  C   UNL     1      34.737 -18.060 -23.110  0.00  0.00    -0.054 C 
ATOM      6  C   UNL     1      34.869 -16.872 -21.025  0.00  0.00    -0.054 C 
ATOM      7  C   UNL     1      33.831 -16.984 -23.712  0.00  0.00    +0.079 C 
ATOM      8  C   UNL     1      33.967 -15.756 -21.557  0.00  0.00    +0.079 C 
ATOM      9  C   UNL     1      33.649 -14.513 -23.654  0.00  0.00    +0.090 C 
ATOM     10  C   UNL     1      32.759 -13.433 -25.478  0.00  0.00    +0.165 C 
ATOM     11  C   UNL     1      33.472 -12.221 -23.613  0.00  0.00    +0.108 C 
ATOM     12  C   UNL     1      32.918 -12.201 -24.877  0.00  0.00    +0.022 C 
ATOM     13  H   UNL     1      33.570 -18.382 -21.468  0.00  0.00    -0.079 HD
ENDROOT
BRANCH   1  14
ATOM     14  C   UNL     1      35.376 -19.226 -21.102  0.00  0.00    -0.050 C 
BRANCH  14  17
ATOM     15  O   UNL     1      35.024 -22.392 -17.330  0.00  0.00    -0.435 OA
ATOM     16  O   UNL     1      32.623 -22.510 -17.502  0.00  0.00    -0.435 OA
ATOM     17  C   UNL     1      34.604 -20.099 -20.150  0.00  0.00    -0.040 C 
ATOM     18  C   UNL     1      35.290 -20.825 -19.183  0.00  0.00    +0.034 C 
ATOM     19  C   UNL     1      33.210 -20.159 -20.259  0.00  0.00    -0.003 C 
ATOM     20  C   UNL     1      34.539 -21.611 -18.333  0.00  0.00    +0.176 C 
ATOM     21  C   UNL     1      33.168 -21.678 -18.432  0.00  0.00    +0.176 C 
ATOM     22  C   UNL     1      32.473 -20.964 -19.386  0.00  0.00    +0.040 C 
ATOM     23  C   UNL     1      33.805 -22.958 -16.808  0.00  0.00    +0.429 C 
ENDBRANCH  14  17
ENDBRANCH   1  14
TORSDOF 2
ENDMDL
MODEL 3
REMARK VINA RESULT:     -11.1      1.239      2.486
REMARK  Name = 4850
REMARK  2 active torsions:
REMARK  status: ('A' for Active; 'I' for Inactive)
REMARK    1  A    between atoms: N_1  and  C_14
REMARK    2  A    between atoms: C_14  and  C_17
REMARK                            x       y       z     vdW  Elec       q    Type
REMARK                         _______ _______ _______ _____ _____    ______ ____
ROOT
ATOM      1  N   UNL     1      34.841 -20.141 -20.699  0.00  0.00    +0.392 N 
ATOM      2  N   UNL     1      33.378 -21.303 -18.540  0.00  0.00    -0.257 N 
ATOM      3  N   UNL     1      31.292 -21.934 -17.630  0.00  0.00    -0.203 NA
ATOM      4  N   UNL     1      33.349 -22.627 -16.585  0.00  0.00    -0.181 NA
ATOM      5  C   UNL     1      33.582 -19.539 -20.246  0.00  0.00    -0.054 C 
ATOM      6  C   UNL     1      35.549 -20.737 -19.559  0.00  0.00    -0.054 C 
ATOM      7  C   UNL     1      32.670 -20.587 -19.605  0.00  0.00    +0.079 C 
ATOM      8  C   UNL     1      34.702 -21.827 -18.897  0.00  0.00    +0.079 C 
ATOM      9  C   UNL     1      32.649 -21.976 -17.553  0.00  0.00    +0.090 C 
ATOM     10  C   UNL     1      30.621 -22.595 -16.664  0.00  0.00    +0.165 C 
ATOM     11  C   UNL     1      32.615 -23.265 -15.650  0.00  0.00    +0.108 C 
ATOM     12  C   UNL     1      31.235 -23.284 -15.638  0.00  0.00    +0.022 C 
ATOM     13  H   UNL     1      34.630 -20.874 -21.377  0.00  0.00    -0.079 HD
ENDROOT
BRANCH   1  14
ATOM     14  C   UNL     1      35.680 -19.141 -21.359  0.00  0.00    -0.050 C 
BRANCH  14  17
ATOM     15  O   UNL     1      34.182 -14.993 -23.577  0.00  0.00    -0.435 OA
ATOM     16  O   UNL     1      32.912 -16.199 -25.232  0.00  0.00    -0.435 OA
ATOM     17  C   UNL     1      34.924 -18.382 -22.416  0.00  0.00    -0.040 C 
ATOM     18  C   UNL     1      34.970 -16.992 -22.419  0.00  0.00    +0.034 C 
ATOM     19  C   UNL     1      34.189 -19.093 -23.372  0.00  0.00    -0.003 C 
ATOM     20  C   UNL     1      34.261 -16.341 -23.408  0.00  0.00    +0.176 C 
ATOM     21  C   UNL     1      33.536 -17.029 -24.353  0.00  0.00    +0.176 C 
ATOM     22  C   UNL     1      33.480 -18.408 -24.362  0.00  0.00    +0.040 C 
ATOM     23  C   UNL     1      33.326 -14.910 -24.734  0.00  0.00    +0.429 C 
ENDBRANCH  14  17
ENDBRANCH   1  14
TORSDOF 2
ENDMDL
MODEL 4
REMARK VINA RESULT:     -10.8      1.054      1.788
REMARK  Name = 4850
REMARK  2 active torsions:
REMARK  status: ('A' for Active; 'I' for Inactive)
REMARK    1  A    between atoms: N_1  and  C_14
REMARK    2  A    between atoms: C_14  and  C_17
REMARK                            x       y       z     vdW  Elec       q    Type
REMARK                         _______ _______ _______ _____ _____    ______ ____
ROOT
ATOM      1  N   UNL     1      34.587 -19.355 -20.971  0.00  0.00    +0.392 N 
ATOM      2  N   UNL     1      33.754 -21.185 -18.942  0.00  0.00    -0.257 N 
ATOM      3  N   UNL     1      34.285 -22.408 -16.994  0.00  0.00    -0.203 NA
ATOM      4  N   UNL     1      32.012 -22.274 -17.779  0.00  0.00    -0.181 NA
ATOM      5  C   UNL     1      35.483 -20.428 -20.525  0.00  0.00    -0.054 C 
ATOM      6  C   UNL     1      33.192 -19.812 -20.910  0.00  0.00    -0.054 C 
ATOM      7  C   UNL     1      35.173 -20.841 -19.085  0.00  0.00    +0.079 C 
ATOM      8  C   UNL     1      32.805 -20.203 -19.482  0.00  0.00    +0.079 C 
ATOM      9  C   UNL     1      33.337 -21.982 -17.871  0.00  0.00    +0.090 C 
ATOM     10  C   UNL     1      33.849 -23.174 -15.972  0.00  0.00    +0.165 C 
ATOM     11  C   UNL     1      31.645 -23.043 -16.734  0.00  0.00    +0.108 C 
ATOM     12  C   UNL     1      32.528 -23.528 -15.790  0.00  0.00    +0.022 C 
ATOM     13  H   UNL     1      34.699 -18.553 -20.351  0.00  0.00    -0.079 HD
ENDROOT
BRANCH   1  14
ATOM     14  C   UNL     1      34.929 -18.932 -22.329  0.00  0.00    -0.050 C 
BRANCH  14  17
ATOM     15  O   UNL     1      34.175 -14.284 -20.844  0.00  0.00    -0.435 OA
ATOM     16  O   UNL     1      33.690 -13.526 -23.079  0.00  0.00    -0.435 OA
ATOM     17  C   UNL     1      34.592 -17.484 -22.567  0.00  0.00    -0.040 C 
ATOM     18  C   UNL     1      34.566 -16.605 -21.490  0.00  0.00    +0.034 C 
ATOM     19  C   UNL     1      34.312 -17.055 -23.870  0.00  0.00    -0.003 C 
ATOM     20  C   UNL     1      34.252 -15.289 -21.759  0.00  0.00    +0.176 C 
ATOM     21  C   UNL     1      33.975 -14.856 -23.035  0.00  0.00    +0.176 C 
ATOM     22  C   UNL     1      33.996 -15.716 -24.114  0.00  0.00    +0.040 C 
ATOM     23  C   UNL     1      33.818 -13.171 -21.688  0.00  0.00    +0.429 C 
ENDBRANCH  14  17
ENDBRANCH   1  14
TORSDOF 2
ENDMDL
MODEL 5
REMARK VINA RESULT:     -10.5      4.415      8.169
REMARK  Name = 4850
REMARK  2 active torsions:
REMARK  status: ('A' for Active; 'I' for Inactive)
REMARK    1  A    between atoms: N_1  and  C_14
REMARK    2  A    between atoms: C_14  and  C_17
REMARK                            x       y       z     vdW  Elec       q    Type
REMARK                         _______ _______ _______ _____ _____    ______ ____
ROOT
ATOM      1  N   UNL     1      34.463 -15.522 -22.933  0.00  0.00    +0.392 N 
ATOM      2  N   UNL     1      32.861 -13.379 -21.936  0.00  0.00    -0.257 N 
ATOM      3  N   UNL     1      32.310 -11.941 -20.146  0.00  0.00    -0.203 NA
ATOM      4  N   UNL     1      31.426 -11.550 -22.353  0.00  0.00    -0.181 NA
ATOM      5  C   UNL     1      33.912 -15.577 -21.574  0.00  0.00    -0.054 C 
ATOM      6  C   UNL     1      33.532 -14.816 -23.822  0.00  0.00    -0.054 C 
ATOM      7  C   UNL     1      33.684 -14.170 -21.016  0.00  0.00    +0.079 C 
ATOM      8  C   UNL     1      33.292 -13.384 -23.339  0.00  0.00    +0.079 C 
ATOM      9  C   UNL     1      32.177 -12.254 -21.463  0.00  0.00    +0.090 C 
ATOM     10  C   UNL     1      31.639 -10.850 -19.723  0.00  0.00    +0.165 C 
ATOM     11  C   UNL     1      30.781 -10.472 -21.863  0.00  0.00    +0.108 C 
ATOM     12  C   UNL     1      30.850 -10.069 -20.544  0.00  0.00    +0.022 C 
ATOM     13  H   UNL     1      35.347 -15.013 -22.910  0.00  0.00    -0.079 HD
ENDROOT
BRANCH   1  14
ATOM     14  C   UNL     1      34.728 -16.871 -23.434  0.00  0.00    -0.050 C 
BRANCH  14  17
ATOM     15  O   UNL     1      33.368 -20.449 -20.316  0.00  0.00    -0.435 OA
ATOM     16  O   UNL     1      35.544 -20.537 -19.285  0.00  0.00    -0.435 OA
ATOM     17  C   UNL     1      34.983 -17.845 -22.315  0.00  0.00    -0.040 C 
ATOM     18  C   UNL     1      33.955 -18.681 -21.893  0.00  0.00    +0.034 C 
ATOM     19  C   UNL     1      36.251 -17.888 -21.724  0.00  0.00    -0.003 C 
ATOM     20  C   UNL     1      34.237 -19.557 -20.865  0.00  0.00    +0.176 C 
ATOM     21  C   UNL     1      35.480 -19.608 -20.277  0.00  0.00    +0.176 C 
ATOM     22  C   UNL     1      36.510 -18.785 -20.684  0.00  0.00    +0.040 C 
ATOM     23  C   UNL     1      34.204 -21.066 -19.315  0.00  0.00    +0.429 C 
ENDBRANCH  14  17
ENDBRANCH   1  14
TORSDOF 2
ENDMDL
MODEL 6
REMARK VINA RESULT:     -10.3      4.013      7.903
REMARK  Name = 4850
REMARK  2 active torsions:
REMARK  status: ('A' for Active; 'I' for Inactive)
REMARK    1  A    between atoms: N_1  and  C_14
REMARK    2  A    between atoms: C_14  and  C_17
REMARK                            x       y       z     vdW  Elec       q    Type
REMARK                         _______ _______ _______ _____ _____    ______ ____
ROOT
ATOM      1  N   UNL     1      35.194 -16.666 -22.258  0.00  0.00    +0.392 N 
ATOM      2  N   UNL     1      33.455 -14.439 -21.839  0.00  0.00    -0.257 N 
ATOM      3  N   UNL     1      32.560 -12.836 -20.354  0.00  0.00    -0.203 NA
ATOM      4  N   UNL     1      32.179 -12.662 -22.727  0.00  0.00    -0.181 NA
ATOM      5  C   UNL     1      34.362 -16.590 -21.051  0.00  0.00    -0.054 C 
ATOM      6  C   UNL     1      34.489 -16.051 -23.390  0.00  0.00    -0.054 C 
ATOM      7  C   UNL     1      34.046 -15.136 -20.692  0.00  0.00    +0.079 C 
ATOM      8  C   UNL     1      34.179 -14.579 -23.108  0.00  0.00    +0.079 C 
ATOM      9  C   UNL     1      32.707 -13.275 -21.633  0.00  0.00    +0.090 C 
ATOM     10  C   UNL     1      31.834 -11.710 -20.193  0.00  0.00    +0.165 C 
ATOM     11  C   UNL     1      31.464 -11.543 -22.493  0.00  0.00    +0.108 C 
ATOM     12  C   UNL     1      31.256 -11.014 -21.234  0.00  0.00    +0.022 C 
ATOM     13  H   UNL     1      36.061 -16.156 -22.092  0.00  0.00    -0.079 HD
ENDROOT
BRANCH   1  14
ATOM     14  C   UNL     1      35.534 -18.056 -22.559  0.00  0.00    -0.050 C 
BRANCH  14  17
ATOM     15  O   UNL     1      32.221 -20.617 -19.944  0.00  0.00    -0.435 OA
ATOM     16  O   UNL     1      33.903 -21.505 -18.465  0.00  0.00    -0.435 OA
ATOM     17  C   UNL     1      35.131 -18.987 -21.447  0.00  0.00    -0.040 C 
ATOM     18  C   UNL     1      33.790 -19.320 -21.291  0.00  0.00    +0.034 C 
ATOM     19  C   UNL     1      36.117 -19.497 -20.594  0.00  0.00    -0.003 C 
ATOM     20  C   UNL     1      33.470 -20.177 -20.258  0.00  0.00    +0.176 C 
ATOM     21  C   UNL     1      34.431 -20.684 -19.413  0.00  0.00    +0.176 C 
ATOM     22  C   UNL     1      35.765 -20.363 -19.556  0.00  0.00    +0.040 C 
ATOM     23  C   UNL     1      32.504 -21.458 -18.808  0.00  0.00    +0.429 C 
ENDBRANCH  14  17
ENDBRANCH   1  14
TORSDOF 2
ENDMDL
MODEL 7
REMARK VINA RESULT:     -10.3      4.589      8.395
REMARK  Name = 4850
REMARK  2 active torsions:
REMARK  status: ('A' for Active; 'I' for Inactive)
REMARK    1  A    between atoms: N_1  and  C_14
REMARK    2  A    between atoms: C_14  and  C_17
REMARK                            x       y       z     vdW  Elec       q    Type
REMARK                         _______ _______ _______ _____ _____    ______ ____
ROOT
ATOM      1  N   UNL     1      33.905 -15.503 -22.518  0.00  0.00    +0.392 N 
ATOM      2  N   UNL     1      32.696 -13.044 -21.712  0.00  0.00    -0.257 N 
ATOM      3  N   UNL     1      31.268 -11.237 -22.233  0.00  0.00    -0.203 NA
ATOM      4  N   UNL     1      32.095 -11.544 -19.991  0.00  0.00    -0.181 NA
ATOM      5  C   UNL     1      33.806 -14.380 -23.458  0.00  0.00    -0.054 C 
ATOM      6  C   UNL     1      34.092 -14.996 -21.153  0.00  0.00    -0.054 C 
ATOM      7  C   UNL     1      32.622 -13.475 -23.112  0.00  0.00    +0.079 C 
ATOM      8  C   UNL     1      32.917 -14.112 -20.729  0.00  0.00    +0.079 C 
ATOM      9  C   UNL     1      31.998 -11.905 -21.299  0.00  0.00    +0.090 C 
ATOM     10  C   UNL     1      30.606 -10.144 -21.800  0.00  0.00    +0.165 C 
ATOM     11  C   UNL     1      31.408 -10.441 -19.627  0.00  0.00    +0.108 C 
ATOM     12  C   UNL     1      30.639  -9.694 -20.496  0.00  0.00    +0.022 C 
ATOM     13  H   UNL     1      33.038 -16.040 -22.555  0.00  0.00    -0.079 HD
ENDROOT
BRANCH   1  14
ATOM     14  C   UNL     1      35.005 -16.391 -22.892  0.00  0.00    -0.050 C 
BRANCH  14  17
ATOM     15  O   UNL     1      33.076 -20.156 -20.348  0.00  0.00    -0.435 OA
ATOM     16  O   UNL     1      35.226 -20.836 -19.500  0.00  0.00    -0.435 OA
ATOM     17  C   UNL     1      35.102 -17.582 -21.977  0.00  0.00    -0.040 C 
ATOM     18  C   UNL     1      33.944 -18.273 -21.636  0.00  0.00    +0.034 C 
ATOM     19  C   UNL     1      36.356 -17.968 -21.491  0.00  0.00    -0.003 C 
ATOM     20  C   UNL     1      34.084 -19.358 -20.795  0.00  0.00    +0.176 C 
ATOM     21  C   UNL     1      35.312 -19.747 -20.310  0.00  0.00    +0.176 C 
ATOM     22  C   UNL     1      36.469 -19.071 -20.640  0.00  0.00    +0.040 C 
ATOM     23  C   UNL     1      33.807 -21.090 -19.528  0.00  0.00    +0.429 C 
ENDBRANCH  14  17
ENDBRANCH   1  14
TORSDOF 2
ENDMDL
MODEL 8
REMARK VINA RESULT:     -10.2      3.486      5.820
REMARK  Name = 4850
REMARK  2 active torsions:
REMARK  status: ('A' for Active; 'I' for Inactive)
REMARK    1  A    between atoms: N_1  and  C_14
REMARK    2  A    between atoms: C_14  and  C_17
REMARK                            x       y       z     vdW  Elec       q    Type
REMARK                         _______ _______ _______ _____ _____    ______ ____
ROOT
ATOM      1  N   UNL     1      33.788 -22.300 -16.968  0.00  0.00    +0.392 N 
ATOM      2  N   UNL     1      34.765 -22.927 -14.359  0.00  0.00    -0.257 N 
ATOM      3  N   UNL     1      36.365 -22.550 -12.664  0.00  0.00    -0.203 NA
ATOM      4  N   UNL     1      34.404 -23.880 -12.229  0.00  0.00    -0.181 NA
ATOM      5  C   UNL     1      35.229 -22.442 -16.729  0.00  0.00    -0.054 C 
ATOM      6  C   UNL     1      33.044 -23.220 -16.098  0.00  0.00    -0.054 C 
ATOM      7  C   UNL     1      35.579 -22.121 -15.274  0.00  0.00    +0.079 C 
ATOM      8  C   UNL     1      33.321 -22.924 -14.623  0.00  0.00    +0.079 C 
ATOM      9  C   UNL     1      35.192 -23.126 -13.042  0.00  0.00    +0.090 C 
ATOM     10  C   UNL     1      36.746 -22.761 -11.387  0.00  0.00    +0.165 C 
ATOM     11  C   UNL     1      34.845 -24.050 -10.966  0.00  0.00    +0.108 C 
ATOM     12  C   UNL     1      36.021 -23.510 -10.484  0.00  0.00    +0.022 C 
ATOM     13  H   UNL     1      33.510 -21.343 -16.750  0.00  0.00    -0.079 HD
ENDROOT
BRANCH   1  14
ATOM     14  C   UNL     1      33.473 -22.555 -18.374  0.00  0.00    -0.050 C 
BRANCH  14  17
ATOM     15  O   UNL     1      36.440 -19.186 -20.428  0.00  0.00    -0.435 OA
ATOM     16  O   UNL     1      34.611 -18.092 -21.552  0.00  0.00    -0.435 OA
ATOM     17  C   UNL     1      33.743 -21.352 -19.237  0.00  0.00    -0.040 C 
ATOM     18  C   UNL     1      35.048 -20.890 -19.372  0.00  0.00    +0.034 C 
ATOM     19  C   UNL     1      32.673 -20.725 -19.886  0.00  0.00    -0.003 C 
ATOM     20  C   UNL     1      35.245 -19.785 -20.174  0.00  0.00    +0.176 C 
ATOM     21  C   UNL     1      34.200 -19.160 -20.816  0.00  0.00    +0.176 C 
ATOM     22  C   UNL     1      32.901 -19.606 -20.692  0.00  0.00    +0.040 C 
ATOM     23  C   UNL     1      36.031 -18.115 -21.302  0.00  0.00    +0.429 C 
ENDBRANCH  14  17
ENDBRANCH   1  14
TORSDOF 2
ENDMDL
MODEL 9
REMARK VINA RESULT:     -10.0      5.555     10.009
REMARK  Name = 4850
REMARK  2 active torsions:
REMARK  status: ('A' for Active; 'I' for Inactive)
REMARK    1  A    between atoms: N_1  and  C_14
REMARK    2  A    between atoms: C_14  and  C_17
REMARK                            x       y       z     vdW  Elec       q    Type
REMARK                         _______ _______ _______ _____ _____    ______ ____
ROOT
ATOM      1  N   UNL     1      35.166 -22.333 -16.999  0.00  0.00    +0.392 N 
ATOM      2  N   UNL     1      35.103 -20.513 -19.198  0.00  0.00    -0.257 N 
ATOM      3  N   UNL     1      36.276 -19.062 -20.645  0.00  0.00    -0.203 NA
ATOM      4  N   UNL     1      33.981 -19.645 -21.086  0.00  0.00    -0.181 NA
ATOM      5  C   UNL     1      35.947 -21.091 -16.957  0.00  0.00    -0.054 C 
ATOM      6  C   UNL     1      33.922 -22.117 -17.747  0.00  0.00    -0.054 C 
ATOM      7  C   UNL     1      36.307 -20.621 -18.368  0.00  0.00    +0.079 C 
ATOM      8  C   UNL     1      34.216 -21.682 -19.185  0.00  0.00    +0.079 C 
ATOM      9  C   UNL     1      35.120 -19.714 -20.346  0.00  0.00    +0.090 C 
ATOM     10  C   UNL     1      36.259 -18.302 -21.760  0.00  0.00    +0.165 C 
ATOM     11  C   UNL     1      34.033 -18.866 -22.186  0.00  0.00    +0.108 C 
ATOM     12  C   UNL     1      35.156 -18.164 -22.576  0.00  0.00    +0.022 C 
ATOM     13  H   UNL     1      35.716 -23.051 -17.471  0.00  0.00    -0.079 HD
ENDROOT
BRANCH   1  14
ATOM     14  C   UNL     1      34.876 -22.802 -15.644  0.00  0.00    -0.050 C 
BRANCH  14  17
ATOM     15  O   UNL     1      39.463 -24.031 -14.295  0.00  0.00    -0.435 OA
ATOM     16  O   UNL     1      38.836 -26.307 -13.814  0.00  0.00    -0.435 OA
ATOM     17  C   UNL     1      35.915 -23.771 -15.150  0.00  0.00    -0.040 C 
ATOM     18  C   UNL     1      37.225 -23.336 -14.978  0.00  0.00    +0.034 C 
ATOM     19  C   UNL     1      35.539 -25.091 -14.873  0.00  0.00    -0.003 C 
ATOM     20  C   UNL     1      38.141 -24.262 -14.523  0.00  0.00    +0.176 C 
ATOM     21  C   UNL     1      37.783 -25.562 -14.248  0.00  0.00    +0.176 C 
ATOM     22  C   UNL     1      36.488 -26.008 -14.413  0.00  0.00    +0.040 C 
ATOM     23  C   UNL     1      39.896 -25.331 -13.846  0.00  0.00    +0.429 C 
ENDBRANCH  14  17
ENDBRANCH   1  14
TORSDOF 2
ENDMDL
