MODEL 1
REMARK VINA RESULT:      -9.9      0.000      0.000
REMARK  Name = 12598931
REMARK  4 active torsions:
REMARK  status: ('A' for Active; 'I' for Inactive)
REMARK    1  A    between atoms: N_2  and  N_5
REMARK    2  A    between atoms: C_3  and  C_16
REMARK    3  A    between atoms: C_18  and  S_22
REMARK    4  A    between atoms: S_22  and  N_25
REMARK                            x       y       z     vdW  Elec       q    Type
REMARK                         _______ _______ _______ _____ _____    ______ ____
ROOT
ATOM      1  O   UNL     1      33.807 -12.576 -21.104  0.00  0.00    -0.269 OA
ATOM      2  N   UNL     1      32.727 -11.846 -23.024  0.00  0.00    -0.229 N 
ATOM      3  C   UNL     1      33.376 -12.788 -22.235  0.00  0.00    +0.262 C 
ATOM      4  H   UNL     1      32.408 -12.085 -23.923  0.00  0.00    +0.173 HD
ENDROOT
BRANCH   2   5
ATOM      5  N   UNL     1      32.536 -10.582 -22.535  0.00  0.00    -0.240 N 
ATOM      6  C   UNL     1      31.175 -10.086 -22.304  0.00  0.00    +0.097 C 
ATOM      7  C   UNL     1      31.271  -8.537 -22.321  0.00  0.00    +0.049 C 
ATOM      8  C   UNL     1      32.558  -8.324 -23.052  0.00  0.00    -0.006 C 
ATOM      9  C   UNL     1      33.252  -9.536 -23.145  0.00  0.00    +0.061 C 
ATOM     10  C   UNL     1      30.627 -10.609 -20.984  0.00  0.00    +0.024 C 
ATOM     11  C   UNL     1      33.075  -7.146 -23.565  0.00  0.00    -0.003 C 
ATOM     12  C   UNL     1      34.491  -9.585 -23.768  0.00  0.00    +0.016 C 
ATOM     13  C   UNL     1      34.318  -7.194 -24.195  0.00  0.00    -0.000 C 
ATOM     14  C   UNL     1      35.021  -8.405 -24.298  0.00  0.00    +0.001 C 
ENDBRANCH   2   5
BRANCH   3  16
ATOM     15 CL   UNL     1      34.109 -18.166 -24.721  0.00  0.00    -0.081 Cl
ATOM     16  C   UNL     1      33.566 -14.131 -22.842  0.00  0.00    +0.056 C 
ATOM     17  C   UNL     1      34.107 -15.139 -22.073  0.00  0.00    +0.025 C 
ATOM     18  C   UNL     1      34.284 -16.400 -22.643  0.00  0.00    +0.132 C 
ATOM     19  C   UNL     1      33.191 -14.325 -24.156  0.00  0.00    +0.006 C 
ATOM     20  C   UNL     1      33.913 -16.624 -23.970  0.00  0.00    +0.076 C 
ATOM     21  C   UNL     1      33.368 -15.587 -24.725  0.00  0.00    +0.013 C 
BRANCH  18  22
ATOM     22  S   UNL     1      34.974 -17.665 -21.646  0.00  0.00    +0.058 S 
ATOM     23  O   UNL     1      35.210 -17.117 -20.319  0.00  0.00    -0.153 OA
ATOM     24  O   UNL     1      34.166 -18.863 -21.805  0.00  0.00    -0.153 OA
BRANCH  22  25
ATOM     25  N   UNL     1      36.475 -17.903 -22.424  0.00  0.00    -0.203 NA
ATOM     26  H   UNL     1      37.051 -18.534 -21.867  0.00  0.00    +0.144 HD
ATOM     27  H   UNL     1      36.951 -17.007 -22.525  0.00  0.00    +0.144 HD
ENDBRANCH  22  25
ENDBRANCH  18  22
ENDBRANCH   3  16
TORSDOF 4
ENDMDL
MODEL 2
REMARK VINA RESULT:      -9.8      9.379     12.415
REMARK  Name = 12598931
REMARK  4 active torsions:
REMARK  status: ('A' for Active; 'I' for Inactive)
REMARK    1  A    between atoms: N_2  and  N_5
REMARK    2  A    between atoms: C_3  and  C_16
REMARK    3  A    between atoms: C_18  and  S_22
REMARK    4  A    between atoms: S_22  and  N_25
REMARK                            x       y       z     vdW  Elec       q    Type
REMARK                         _______ _______ _______ _____ _____    ______ ____
ROOT
ATOM      1  O   UNL     1      34.915 -21.285 -15.293  0.00  0.00    -0.269 OA
ATOM      2  N   UNL     1      35.331 -22.253 -17.360  0.00  0.00    -0.229 N 
ATOM      3  C   UNL     1      35.534 -22.080 -15.996  0.00  0.00    +0.262 C 
ATOM      4  H   UNL     1      35.865 -22.911 -17.863  0.00  0.00    +0.173 HD
ENDROOT
BRANCH   2   5
ATOM      5  N   UNL     1      34.383 -21.501 -17.997  0.00  0.00    -0.240 N 
ATOM      6  C   UNL     1      33.123 -22.121 -18.422  0.00  0.00    +0.097 C 
ATOM      7  C   UNL     1      32.562 -21.224 -19.557  0.00  0.00    +0.049 C 
ATOM      8  C   UNL     1      33.789 -20.490 -19.994  0.00  0.00    -0.006 C 
ATOM      9  C   UNL     1      34.810 -20.680 -19.056  0.00  0.00    +0.061 C 
ATOM     10  C   UNL     1      32.155 -22.234 -17.253  0.00  0.00    +0.024 C 
ATOM     11  C   UNL     1      33.968 -19.700 -21.117  0.00  0.00    -0.003 C 
ATOM     12  C   UNL     1      36.045 -20.075 -19.237  0.00  0.00    +0.016 C 
ATOM     13  C   UNL     1      35.211 -19.094 -21.303  0.00  0.00    -0.000 C 
ATOM     14  C   UNL     1      36.243 -19.282 -20.371  0.00  0.00    +0.001 C 
ENDBRANCH   2   5
BRANCH   3  16
ATOM     15 CL   UNL     1      39.836 -25.427 -13.562  0.00  0.00    -0.081 Cl
ATOM     16  C   UNL     1      36.595 -22.917 -15.380  0.00  0.00    +0.056 C 
ATOM     17  C   UNL     1      36.269 -23.727 -14.313  0.00  0.00    +0.025 C 
ATOM     18  C   UNL     1      37.266 -24.514 -13.735  0.00  0.00    +0.132 C 
ATOM     19  C   UNL     1      37.873 -22.857 -15.897  0.00  0.00    +0.006 C 
ATOM     20  C   UNL     1      38.567 -24.473 -14.239  0.00  0.00    +0.076 C 
ATOM     21  C   UNL     1      38.869 -23.644 -15.320  0.00  0.00    +0.013 C 
BRANCH  18  22
ATOM     22  S   UNL     1      36.827 -25.535 -12.381  0.00  0.00    +0.058 S 
ATOM     23  O   UNL     1      36.699 -26.900 -12.866  0.00  0.00    -0.153 OA
ATOM     24  O   UNL     1      37.725 -25.237 -11.275  0.00  0.00    -0.153 OA
BRANCH  22  25
ATOM     25  N   UNL     1      35.275 -24.928 -12.012  0.00  0.00    -0.203 NA
ATOM     26  H   UNL     1      35.320 -24.379 -11.154  0.00  0.00    +0.144 HD
ATOM     27  H   UNL     1      34.627 -25.705 -11.886  0.00  0.00    +0.144 HD
ENDBRANCH  22  25
ENDBRANCH  18  22
ENDBRANCH   3  16
TORSDOF 4
ENDMDL
MODEL 3
REMARK VINA RESULT:      -9.1      2.927      3.907
REMARK  Name = 12598931
REMARK  4 active torsions:
REMARK  status: ('A' for Active; 'I' for Inactive)
REMARK    1  A    between atoms: N_2  and  N_5
REMARK    2  A    between atoms: C_3  and  C_16
REMARK    3  A    between atoms: C_18  and  S_22
REMARK    4  A    between atoms: S_22  and  N_25
REMARK                            x       y       z     vdW  Elec       q    Type
REMARK                         _______ _______ _______ _____ _____    ______ ____
ROOT
ATOM      1  O   UNL     1      30.379 -10.860 -21.767  0.00  0.00    -0.269 OA
ATOM      2  N   UNL     1      32.229  -9.767 -22.642  0.00  0.00    -0.229 N 
ATOM      3  C   UNL     1      31.540 -10.878 -22.172  0.00  0.00    +0.262 C 
ATOM      4  H   UNL     1      33.160  -9.854 -22.952  0.00  0.00    +0.173 HD
ENDROOT
BRANCH   2   5
ATOM      5  N   UNL     1      31.602  -8.552 -22.671  0.00  0.00    -0.240 N 
ATOM      6  C   UNL     1      31.750  -7.681 -23.842  0.00  0.00    +0.097 C 
ATOM      7  C   UNL     1      31.438  -6.242 -23.351  0.00  0.00    +0.049 C 
ATOM      8  C   UNL     1      31.641  -6.377 -21.876  0.00  0.00    -0.006 C 
ATOM      9  C   UNL     1      31.725  -7.731 -21.535  0.00  0.00    +0.061 C 
ATOM     10  C   UNL     1      30.815  -8.117 -24.961  0.00  0.00    +0.024 C 
ATOM     11  C   UNL     1      31.715  -5.378 -20.920  0.00  0.00    -0.003 C 
ATOM     12  C   UNL     1      31.894  -8.109 -20.211  0.00  0.00    +0.016 C 
ATOM     13  C   UNL     1      31.890  -5.754 -19.588  0.00  0.00    -0.000 C 
ATOM     14  C   UNL     1      31.980  -7.110 -19.236  0.00  0.00    +0.001 C 
ENDBRANCH   2   5
BRANCH   3  16
ATOM     15 CL   UNL     1      34.586 -16.010 -22.033  0.00  0.00    -0.081 Cl
ATOM     16  C   UNL     1      32.295 -12.157 -22.151  0.00  0.00    +0.056 C 
ATOM     17  C   UNL     1      32.482 -12.839 -23.335  0.00  0.00    +0.025 C 
ATOM     18  C   UNL     1      33.192 -14.040 -23.315  0.00  0.00    +0.132 C 
ATOM     19  C   UNL     1      32.785 -12.620 -20.948  0.00  0.00    +0.006 C 
ATOM     20  C   UNL     1      33.699 -14.531 -22.111  0.00  0.00    +0.076 C 
ATOM     21  C   UNL     1      33.496 -13.821 -20.928  0.00  0.00    +0.013 C 
BRANCH  18  22
ATOM     22  S   UNL     1      33.417 -14.888 -24.832  0.00  0.00    +0.058 S 
ATOM     23  O   UNL     1      34.840 -14.923 -25.124  0.00  0.00    -0.153 OA
ATOM     24  O   UNL     1      32.654 -16.126 -24.780  0.00  0.00    -0.153 OA
BRANCH  22  25
ATOM     25  N   UNL     1      32.652 -13.813 -25.916  0.00  0.00    -0.203 NA
ATOM     26  H   UNL     1      31.798 -13.451 -25.491  0.00  0.00    +0.144 HD
ATOM     27  H   UNL     1      32.420 -14.307 -26.778  0.00  0.00    +0.144 HD
ENDBRANCH  22  25
ENDBRANCH  18  22
ENDBRANCH   3  16
TORSDOF 4
ENDMDL
MODEL 4
REMARK VINA RESULT:      -9.1      9.897     14.020
REMARK  Name = 12598931
REMARK  4 active torsions:
REMARK  status: ('A' for Active; 'I' for Inactive)
REMARK    1  A    between atoms: N_2  and  N_5
REMARK    2  A    between atoms: C_3  and  C_16
REMARK    3  A    between atoms: C_18  and  S_22
REMARK    4  A    between atoms: S_22  and  N_25
REMARK                            x       y       z     vdW  Elec       q    Type
REMARK                         _______ _______ _______ _____ _____    ______ ____
ROOT
ATOM      1  O   UNL     1      37.573 -21.010 -15.174  0.00  0.00    -0.269 OA
ATOM      2  N   UNL     1      36.885 -23.201 -15.506  0.00  0.00    -0.229 N 
ATOM      3  C   UNL     1      36.979 -21.855 -15.840  0.00  0.00    +0.262 C 
ATOM      4  H   UNL     1      36.392 -23.824 -16.087  0.00  0.00    +0.173 HD
ENDROOT
BRANCH   2   5
ATOM      5  N   UNL     1      37.485 -23.650 -14.362  0.00  0.00    -0.240 N 
ATOM      6  C   UNL     1      38.308 -24.865 -14.396  0.00  0.00    +0.097 C 
ATOM      7  C   UNL     1      38.346 -25.402 -12.941  0.00  0.00    +0.049 C 
ATOM      8  C   UNL     1      37.149 -24.735 -12.343  0.00  0.00    -0.006 C 
ATOM      9  C   UNL     1      36.693 -23.729 -13.202  0.00  0.00    +0.061 C 
ATOM     10  C   UNL     1      39.700 -24.558 -14.928  0.00  0.00    +0.024 C 
ATOM     11  C   UNL     1      36.538 -24.987 -11.126  0.00  0.00    -0.003 C 
ATOM     12  C   UNL     1      35.597 -22.953 -12.850  0.00  0.00    +0.016 C 
ATOM     13  C   UNL     1      35.434 -24.212 -10.772  0.00  0.00    -0.000 C 
ATOM     14  C   UNL     1      34.965 -23.203 -11.628  0.00  0.00    +0.001 C 
ENDBRANCH   2   5
BRANCH   3  16
ATOM     15 CL   UNL     1      34.222 -20.141 -20.849  0.00  0.00    -0.081 Cl
ATOM     16  C   UNL     1      36.284 -21.439 -17.085  0.00  0.00    +0.056 C 
ATOM     17  C   UNL     1      35.114 -22.078 -17.440  0.00  0.00    +0.025 C 
ATOM     18  C   UNL     1      34.460 -21.687 -18.608  0.00  0.00    +0.132 C 
ATOM     19  C   UNL     1      36.830 -20.427 -17.845  0.00  0.00    +0.006 C 
ATOM     20  C   UNL     1      34.992 -20.664 -19.396  0.00  0.00    +0.076 C 
ATOM     21  C   UNL     1      36.177 -20.035 -19.014  0.00  0.00    +0.013 C 
BRANCH  18  22
ATOM     22  S   UNL     1      32.976 -22.513 -19.038  0.00  0.00    +0.058 S 
ATOM     23  O   UNL     1      32.109 -21.562 -19.716  0.00  0.00    -0.153 OA
ATOM     24  O   UNL     1      33.324 -23.770 -19.682  0.00  0.00    -0.153 OA
BRANCH  22  25
ATOM     25  N   UNL     1      32.335 -22.843 -17.490  0.00  0.00    -0.203 NA
ATOM     26  H   UNL     1      32.833 -23.631 -17.077  0.00  0.00    +0.144 HD
ATOM     27  H   UNL     1      31.345 -23.073 -17.575  0.00  0.00    +0.144 HD
ENDBRANCH  22  25
ENDBRANCH  18  22
ENDBRANCH   3  16
TORSDOF 4
ENDMDL
MODEL 5
REMARK VINA RESULT:      -9.0      3.890      5.522
REMARK  Name = 12598931
REMARK  4 active torsions:
REMARK  status: ('A' for Active; 'I' for Inactive)
REMARK    1  A    between atoms: N_2  and  N_5
REMARK    2  A    between atoms: C_3  and  C_16
REMARK    3  A    between atoms: C_18  and  S_22
REMARK    4  A    between atoms: S_22  and  N_25
REMARK                            x       y       z     vdW  Elec       q    Type
REMARK                         _______ _______ _______ _____ _____    ______ ____
ROOT
ATOM      1  O   UNL     1      30.523  -7.504 -23.276  0.00  0.00    -0.269 OA
ATOM      2  N   UNL     1      31.987  -6.757 -21.639  0.00  0.00    -0.229 N 
ATOM      3  C   UNL     1      31.271  -7.728 -22.328  0.00  0.00    +0.262 C 
ATOM      4  H   UNL     1      32.570  -7.009 -20.886  0.00  0.00    +0.173 HD
ENDROOT
BRANCH   2   5
ATOM      5  N   UNL     1      31.874  -5.448 -22.018  0.00  0.00    -0.240 N 
ATOM      6  C   UNL     1      30.548  -4.829 -22.121  0.00  0.00    +0.097 C 
ATOM      7  C   UNL     1      30.710  -3.618 -23.078  0.00  0.00    +0.049 C 
ATOM      8  C   UNL     1      31.970  -3.973 -23.801  0.00  0.00    -0.006 C 
ATOM      9  C   UNL     1      32.606  -5.033 -23.145  0.00  0.00    +0.061 C 
ATOM     10  C   UNL     1      30.039  -4.409 -20.750  0.00  0.00    +0.024 C 
ATOM     11  C   UNL     1      32.513  -3.382 -24.929  0.00  0.00    -0.003 C 
ATOM     12  C   UNL     1      33.811  -5.527 -23.622  0.00  0.00    +0.016 C 
ATOM     13  C   UNL     1      33.723  -3.880 -25.414  0.00  0.00    -0.000 C 
ATOM     14  C   UNL     1      34.367  -4.945 -24.766  0.00  0.00    +0.001 C 
ENDBRANCH   2   5
BRANCH   3  16
ATOM     15 CL   UNL     1      31.880 -13.323 -20.336  0.00  0.00    -0.081 Cl
ATOM     16  C   UNL     1      31.428  -9.124 -21.845  0.00  0.00    +0.056 C 
ATOM     17  C   UNL     1      32.107 -10.030 -22.633  0.00  0.00    +0.025 C 
ATOM     18  C   UNL     1      32.256 -11.340 -22.178  0.00  0.00    +0.132 C 
ATOM     19  C   UNL     1      30.892  -9.469 -20.622  0.00  0.00    +0.006 C 
ATOM     20  C   UNL     1      31.722 -11.715 -20.945  0.00  0.00    +0.076 C 
ATOM     21  C   UNL     1      31.040 -10.779 -20.167  0.00  0.00    +0.013 C 
BRANCH  18  22
ATOM     22  S   UNL     1      33.122 -12.472 -23.198  0.00  0.00    +0.058 S 
ATOM     23  O   UNL     1      34.131 -13.132 -22.385  0.00  0.00    -0.153 OA
ATOM     24  O   UNL     1      32.147 -13.263 -23.932  0.00  0.00    -0.153 OA
BRANCH  22  25
ATOM     25  N   UNL     1      33.894 -11.401 -24.281  0.00  0.00    -0.203 NA
ATOM     26  H   UNL     1      34.656 -10.923 -23.801  0.00  0.00    +0.144 HD
ATOM     27  H   UNL     1      33.219 -10.714 -24.618  0.00  0.00    +0.144 HD
ENDBRANCH  22  25
ENDBRANCH  18  22
ENDBRANCH   3  16
TORSDOF 4
ENDMDL
MODEL 6
REMARK VINA RESULT:      -9.0      5.206      8.392
REMARK  Name = 12598931
REMARK  4 active torsions:
REMARK  status: ('A' for Active; 'I' for Inactive)
REMARK    1  A    between atoms: N_2  and  N_5
REMARK    2  A    between atoms: C_3  and  C_16
REMARK    3  A    between atoms: C_18  and  S_22
REMARK    4  A    between atoms: S_22  and  N_25
REMARK                            x       y       z     vdW  Elec       q    Type
REMARK                         _______ _______ _______ _____ _____    ______ ____
ROOT
ATOM      1  O   UNL     1      30.165 -10.878 -21.391  0.00  0.00    -0.269 OA
ATOM      2  N   UNL     1      32.394 -10.988 -22.024  0.00  0.00    -0.229 N 
ATOM      3  C   UNL     1      31.238 -10.328 -21.628  0.00  0.00    +0.262 C 
ATOM      4  H   UNL     1      33.221 -10.483 -22.198  0.00  0.00    +0.173 HD
ENDROOT
BRANCH   2   5
ATOM      5  N   UNL     1      32.372 -12.348 -22.169  0.00  0.00    -0.240 N 
ATOM      6  C   UNL     1      33.090 -13.197 -21.211  0.00  0.00    +0.097 C 
ATOM      7  C   UNL     1      33.351 -14.543 -21.938  0.00  0.00    +0.049 C 
ATOM      8  C   UNL     1      33.208 -14.143 -23.372  0.00  0.00    -0.006 C 
ATOM      9  C   UNL     1      32.634 -12.869 -23.449  0.00  0.00    +0.061 C 
ATOM     10  C   UNL     1      32.275 -13.384 -19.940  0.00  0.00    +0.024 C 
ATOM     11  C   UNL     1      33.536 -14.865 -24.506  0.00  0.00    -0.003 C 
ATOM     12  C   UNL     1      32.383 -12.290 -24.685  0.00  0.00    +0.016 C 
ATOM     13  C   UNL     1      33.289 -14.284 -25.750  0.00  0.00    -0.000 C 
ATOM     14  C   UNL     1      32.717 -13.005 -25.839  0.00  0.00    +0.001 C 
ENDBRANCH   2   5
BRANCH   3  16
ATOM     15 CL   UNL     1      31.626  -4.393 -21.113  0.00  0.00    -0.081 Cl
ATOM     16  C   UNL     1      31.334  -8.850 -21.514  0.00  0.00    +0.056 C 
ATOM     17  C   UNL     1      31.224  -8.085 -22.657  0.00  0.00    +0.025 C 
ATOM     18  C   UNL     1      31.314  -6.697 -22.549  0.00  0.00    +0.132 C 
ATOM     19  C   UNL     1      31.529  -8.290 -20.269  0.00  0.00    +0.006 C 
ATOM     20  C   UNL     1      31.511  -6.105 -21.301  0.00  0.00    +0.076 C 
ATOM     21  C   UNL     1      31.619  -6.902 -20.161  0.00  0.00    +0.013 C 
BRANCH  18  22
ATOM     22  S   UNL     1      31.171  -5.747 -24.015  0.00  0.00    +0.058 S 
ATOM     23  O   UNL     1      30.051  -4.834 -23.854  0.00  0.00    -0.153 OA
ATOM     24  O   UNL     1      32.488  -5.231 -24.354  0.00  0.00    -0.153 OA
BRANCH  22  25
ATOM     25  N   UNL     1      30.745  -6.957 -25.140  0.00  0.00    -0.203 NA
ATOM     26  H   UNL     1      30.599  -6.534 -26.056  0.00  0.00    +0.144 HD
ATOM     27  H   UNL     1      29.887  -7.417 -24.837  0.00  0.00    +0.144 HD
ENDBRANCH  22  25
ENDBRANCH  18  22
ENDBRANCH   3  16
TORSDOF 4
ENDMDL
MODEL 7
REMARK VINA RESULT:      -9.0      5.326      8.761
REMARK  Name = 12598931
REMARK  4 active torsions:
REMARK  status: ('A' for Active; 'I' for Inactive)
REMARK    1  A    between atoms: N_2  and  N_5
REMARK    2  A    between atoms: C_3  and  C_16
REMARK    3  A    between atoms: C_18  and  S_22
REMARK    4  A    between atoms: S_22  and  N_25
REMARK                            x       y       z     vdW  Elec       q    Type
REMARK                         _______ _______ _______ _____ _____    ______ ____
ROOT
ATOM      1  O   UNL     1      30.599  -9.716 -22.235  0.00  0.00    -0.269 OA
ATOM      2  N   UNL     1      32.707 -10.446 -22.871  0.00  0.00    -0.229 N 
ATOM      3  C   UNL     1      31.719  -9.487 -22.686  0.00  0.00    +0.262 C 
ATOM      4  H   UNL     1      33.585 -10.191 -23.237  0.00  0.00    +0.173 HD
ENDROOT
BRANCH   2   5
ATOM      5  N   UNL     1      32.448 -11.747 -22.537  0.00  0.00    -0.240 N 
ATOM      6  C   UNL     1      32.887 -12.269 -21.238  0.00  0.00    +0.097 C 
ATOM      7  C   UNL     1      32.971 -13.811 -21.399  0.00  0.00    +0.049 C 
ATOM      8  C   UNL     1      33.062 -13.953 -22.885  0.00  0.00    -0.006 C 
ATOM      9  C   UNL     1      32.746 -12.734 -23.494  0.00  0.00    +0.061 C 
ATOM     10  C   UNL     1      31.919 -11.862 -20.137  0.00  0.00    +0.024 C 
ATOM     11  C   UNL     1      33.371 -15.081 -23.626  0.00  0.00    -0.003 C 
ATOM     12  C   UNL     1      32.743 -12.625 -24.877  0.00  0.00    +0.016 C 
ATOM     13  C   UNL     1      33.373 -14.973 -25.017  0.00  0.00    -0.000 C 
ATOM     14  C   UNL     1      33.062 -13.753 -25.638  0.00  0.00    +0.001 C 
ENDBRANCH   2   5
BRANCH   3  16
ATOM     15 CL   UNL     1      33.169  -3.935 -24.333  0.00  0.00    -0.081 Cl
ATOM     16  C   UNL     1      32.067  -8.101 -23.091  0.00  0.00    +0.056 C 
ATOM     17  C   UNL     1      31.196  -7.077 -22.781  0.00  0.00    +0.025 C 
ATOM     18  C   UNL     1      31.524  -5.776 -23.161  0.00  0.00    +0.132 C 
ATOM     19  C   UNL     1      33.251  -7.883 -23.764  0.00  0.00    +0.006 C 
ATOM     20  C   UNL     1      32.716  -5.527 -23.843  0.00  0.00    +0.076 C 
ATOM     21  C   UNL     1      33.579  -6.581 -24.144  0.00  0.00    +0.013 C 
BRANCH  18  22
ATOM     22  S   UNL     1      30.401  -4.493 -22.756  0.00  0.00    +0.058 S 
ATOM     23  O   UNL     1      30.102  -3.752 -23.971  0.00  0.00    -0.153 OA
ATOM     24  O   UNL     1      29.321  -5.064 -21.967  0.00  0.00    -0.153 OA
BRANCH  22  25
ATOM     25  N   UNL     1      31.375  -3.525 -21.740  0.00  0.00    -0.203 NA
ATOM     26  H   UNL     1      32.103  -3.075 -22.295  0.00  0.00    +0.144 HD
ATOM     27  H   UNL     1      31.805  -4.110 -21.023  0.00  0.00    +0.144 HD
ENDBRANCH  22  25
ENDBRANCH  18  22
ENDBRANCH   3  16
TORSDOF 4
ENDMDL
MODEL 8
REMARK VINA RESULT:      -8.8      4.337      8.103
REMARK  Name = 12598931
REMARK  4 active torsions:
REMARK  status: ('A' for Active; 'I' for Inactive)
REMARK    1  A    between atoms: N_2  and  N_5
REMARK    2  A    between atoms: C_3  and  C_16
REMARK    3  A    between atoms: C_18  and  S_22
REMARK    4  A    between atoms: S_22  and  N_25
REMARK                            x       y       z     vdW  Elec       q    Type
REMARK                         _______ _______ _______ _____ _____    ______ ____
ROOT
ATOM      1  O   UNL     1      33.590 -11.906 -24.098  0.00  0.00    -0.269 OA
ATOM      2  N   UNL     1      32.993 -13.628 -22.661  0.00  0.00    -0.229 N 
ATOM      3  C   UNL     1      33.049 -12.300 -23.067  0.00  0.00    +0.262 C 
ATOM      4  H   UNL     1      32.542 -13.873 -21.821  0.00  0.00    +0.173 HD
ENDROOT
BRANCH   2   5
ATOM      5  N   UNL     1      33.572 -14.591 -23.441  0.00  0.00    -0.240 N 
ATOM      6  C   UNL     1      32.896 -15.046 -24.661  0.00  0.00    +0.097 C 
ATOM      7  C   UNL     1      33.468 -16.455 -24.972  0.00  0.00    +0.049 C 
ATOM      8  C   UNL     1      34.021 -16.854 -23.641  0.00  0.00    -0.006 C 
ATOM      9  C   UNL     1      34.063 -15.740 -22.796  0.00  0.00    +0.061 C 
ATOM     10  C   UNL     1      33.131 -14.070 -25.805  0.00  0.00    +0.024 C 
ATOM     11  C   UNL     1      34.473 -18.098 -23.232  0.00  0.00    -0.003 C 
ATOM     12  C   UNL     1      34.561 -15.860 -21.506  0.00  0.00    +0.016 C 
ATOM     13  C   UNL     1      34.969 -18.223 -21.935  0.00  0.00    -0.000 C 
ATOM     14  C   UNL     1      35.012 -17.112 -21.077  0.00  0.00    +0.001 C 
ENDBRANCH   2   5
BRANCH   3  16
ATOM     15 CL   UNL     1      30.494  -8.364 -19.377  0.00  0.00    -0.081 Cl
ATOM     16  C   UNL     1      32.418 -11.310 -22.157  0.00  0.00    +0.056 C 
ATOM     17  C   UNL     1      32.395  -9.982 -22.530  0.00  0.00    +0.025 C 
ATOM     18  C   UNL     1      31.801  -9.053 -21.676  0.00  0.00    +0.132 C 
ATOM     19  C   UNL     1      31.873 -11.751 -20.969  0.00  0.00    +0.006 C 
ATOM     20  C   UNL     1      31.243  -9.473 -20.468  0.00  0.00    +0.076 C 
ATOM     21  C   UNL     1      31.279 -10.822 -20.115  0.00  0.00    +0.013 C 
BRANCH  18  22
ATOM     22  S   UNL     1      31.784  -7.372 -22.172  0.00  0.00    +0.058 S 
ATOM     23  O   UNL     1      30.413  -7.009 -22.493  0.00  0.00    -0.153 OA
ATOM     24  O   UNL     1      32.531  -6.600 -21.191  0.00  0.00    -0.153 OA
BRANCH  22  25
ATOM     25  N   UNL     1      32.690  -7.456 -23.616  0.00  0.00    -0.203 NA
ATOM     26  H   UNL     1      32.214  -6.927 -24.347  0.00  0.00    +0.144 HD
ATOM     27  H   UNL     1      32.781  -8.430 -23.905  0.00  0.00    +0.144 HD
ENDBRANCH  22  25
ENDBRANCH  18  22
ENDBRANCH   3  16
TORSDOF 4
ENDMDL
MODEL 9
REMARK VINA RESULT:      -8.8     12.154     14.870
REMARK  Name = 12598931
REMARK  4 active torsions:
REMARK  status: ('A' for Active; 'I' for Inactive)
REMARK    1  A    between atoms: N_2  and  N_5
REMARK    2  A    between atoms: C_3  and  C_16
REMARK    3  A    between atoms: C_18  and  S_22
REMARK    4  A    between atoms: S_22  and  N_25
REMARK                            x       y       z     vdW  Elec       q    Type
REMARK                         _______ _______ _______ _____ _____    ______ ____
ROOT
ATOM      1  O   UNL     1      34.369 -23.898 -16.179  0.00  0.00    -0.269 OA
ATOM      2  N   UNL     1      34.808 -22.928 -14.118  0.00  0.00    -0.229 N 
ATOM      3  C   UNL     1      33.997 -23.544 -15.063  0.00  0.00    +0.262 C 
ATOM      4  H   UNL     1      34.442 -22.670 -13.241  0.00  0.00    +0.173 HD
ENDROOT
BRANCH   2   5
ATOM      5  N   UNL     1      36.120 -22.685 -14.419  0.00  0.00    -0.240 N 
ATOM      6  C   UNL     1      36.499 -22.314 -15.787  0.00  0.00    +0.097 C 
ATOM      7  C   UNL     1      38.003 -22.668 -15.929  0.00  0.00    +0.049 C 
ATOM      8  C   UNL     1      38.187 -23.651 -14.817  0.00  0.00    -0.006 C 
ATOM      9  C   UNL     1      37.072 -23.618 -13.972  0.00  0.00    +0.061 C 
ATOM     10  C   UNL     1      36.234 -20.837 -16.039  0.00  0.00    +0.024 C 
ATOM     11  C   UNL     1      39.266 -24.482 -14.569  0.00  0.00    -0.003 C 
ATOM     12  C   UNL     1      37.021 -24.435 -12.851  0.00  0.00    +0.016 C 
ATOM     13  C   UNL     1      39.216 -25.307 -13.445  0.00  0.00    -0.000 C 
ATOM     14  C   UNL     1      38.101 -25.285 -12.593  0.00  0.00    +0.001 C 
ENDBRANCH   2   5
BRANCH   3  16
ATOM     15 CL   UNL     1      28.317 -24.428 -13.451  0.00  0.00    -0.081 Cl
ATOM     16  C   UNL     1      32.579 -23.755 -14.672  0.00  0.00    +0.056 C 
ATOM     17  C   UNL     1      31.584 -23.187 -15.441  0.00  0.00    +0.025 C 
ATOM     18  C   UNL     1      30.253 -23.387 -15.074  0.00  0.00    +0.132 C 
ATOM     19  C   UNL     1      32.304 -24.513 -13.553  0.00  0.00    +0.006 C 
ATOM     20  C   UNL     1      29.947 -24.150 -13.947  0.00  0.00    +0.076 C 
ATOM     21  C   UNL     1      30.973 -24.713 -13.187  0.00  0.00    +0.013 C 
BRANCH  18  22
ATOM     22  S   UNL     1      29.008 -22.656 -16.066  0.00  0.00    +0.058 S 
ATOM     23  O   UNL     1      29.657 -21.826 -17.069  0.00  0.00    -0.153 OA
ATOM     24  O   UNL     1      28.079 -23.699 -16.474  0.00  0.00    -0.153 OA
BRANCH  22  25
ATOM     25  N   UNL     1      28.239 -21.648 -14.923  0.00  0.00    -0.203 NA
ATOM     26  H   UNL     1      28.742 -20.763 -14.857  0.00  0.00    +0.144 HD
ATOM     27  H   UNL     1      28.236 -22.107 -14.012  0.00  0.00    +0.144 HD
ENDBRANCH  22  25
ENDBRANCH  18  22
ENDBRANCH   3  16
TORSDOF 4
ENDMDL
