MODEL 1
REMARK VINA RESULT:     -12.4      0.000      0.000
REMARK  Name = 118598754
REMARK  1 active torsions:
REMARK  status: ('A' for Active; 'I' for Inactive)
REMARK    1  A    between atoms: C_15  and  N_19
REMARK                            x       y       z     vdW  Elec       q    Type
REMARK                         _______ _______ _______ _____ _____    ______ ____
ROOT
ATOM      1  O   UNL     1      31.757 -24.111 -12.742  0.00  0.00    -0.269 OA
ATOM      2  O   UNL     1      36.424 -22.771 -15.982  0.00  0.00    -0.268 OA
ATOM      3  N   UNL     1      34.566 -23.305 -14.694  0.00  0.00    -0.238 N 
ATOM      4  N   UNL     1      34.092 -24.107 -12.594  0.00  0.00    -0.288 N 
ATOM      5  C   UNL     1      35.225 -23.759 -13.443  0.00  0.00    +0.124 C 
ATOM      6  C   UNL     1      36.097 -25.005 -13.688  0.00  0.00    +0.038 C 
ATOM      7  C   UNL     1      36.036 -22.621 -12.791  0.00  0.00    +0.038 C 
ATOM      8  C   UNL     1      36.797 -23.082 -11.546  0.00  0.00    +0.003 C 
ATOM      9  C   UNL     1      36.858 -25.445 -12.436  0.00  0.00    +0.003 C 
ATOM     10  C   UNL     1      37.667 -24.300 -11.837  0.00  0.00    +0.000 C 
ATOM     11  C   UNL     1      33.190 -23.390 -14.563  0.00  0.00    +0.105 C 
ATOM     12  C   UNL     1      32.863 -23.907 -13.209  0.00  0.00    +0.260 C 
ATOM     13  C   UNL     1      35.205 -22.857 -15.843  0.00  0.00    +0.267 C 
ATOM     14  C   UNL     1      32.362 -23.038 -15.557  0.00  0.00    -0.002 C 
ATOM     15  C   UNL     1      34.291 -22.457 -16.972  0.00  0.00    +0.104 C 
ATOM     16  C   UNL     1      32.963 -22.559 -16.791  0.00  0.00    +0.016 C 
ATOM     17  C   UNL     1      30.863 -23.081 -15.546  0.00  0.00    +0.033 C 
ATOM     18  H   UNL     1      34.188 -24.450 -11.676  0.00  0.00    +0.151 HD
ENDROOT
BRANCH  15  19
ATOM     19  N   UNL     1      34.894 -22.012 -18.113  0.00  0.00    -0.298 N 
ATOM     20  N   UNL     1      33.052 -21.121 -19.301  0.00  0.00    -0.233 NA
ATOM     21  N   UNL     1      33.422 -19.434 -20.983  0.00  0.00    -0.234 NA
ATOM     22  C   UNL     1      34.384 -21.142 -19.083  0.00  0.00    +0.113 C 
ATOM     23  C   UNL     1      35.285 -20.352 -19.766  0.00  0.00    +0.121 C 
ATOM     24  C   UNL     1      34.742 -19.509 -20.714  0.00  0.00    +0.107 C 
ATOM     25  C   UNL     1      32.645 -20.256 -20.250  0.00  0.00    +0.252 C 
ATOM     26  H   UNL     1      35.805 -22.347 -18.274  0.00  0.00    +0.153 HD
ATOM     27  N   UNL     1      35.635 -18.683 -21.439  0.00  0.00    -0.346 N 
ATOM     28  H   UNL     1      35.290 -18.066 -22.124  0.00  0.00    +0.143 HD
ATOM     29  H   UNL     1      36.602 -18.724 -21.257  0.00  0.00    +0.143 HD
ENDBRANCH  15  19
TORSDOF 1
ENDMDL
MODEL 2
REMARK VINA RESULT:     -11.4      2.752      6.578
REMARK  Name = 118598754
REMARK  1 active torsions:
REMARK  status: ('A' for Active; 'I' for Inactive)
REMARK    1  A    between atoms: C_15  and  N_19
REMARK                            x       y       z     vdW  Elec       q    Type
REMARK                         _______ _______ _______ _____ _____    ______ ____
ROOT
ATOM      1  O   UNL     1      31.882 -21.223 -19.169  0.00  0.00    -0.269 OA
ATOM      2  O   UNL     1      33.730 -23.563 -14.151  0.00  0.00    -0.268 OA
ATOM      3  N   UNL     1      32.996 -22.632 -16.149  0.00  0.00    -0.238 N 
ATOM      4  N   UNL     1      31.014 -22.202 -17.229  0.00  0.00    -0.288 N 
ATOM      5  C   UNL     1      31.527 -22.777 -15.991  0.00  0.00    +0.124 C 
ATOM      6  C   UNL     1      31.116 -24.259 -15.894  0.00  0.00    +0.038 C 
ATOM      7  C   UNL     1      31.009 -21.968 -14.785  0.00  0.00    +0.038 C 
ATOM      8  C   UNL     1      29.511 -22.167 -14.545  0.00  0.00    +0.003 C 
ATOM      9  C   UNL     1      29.618 -24.438 -15.644  0.00  0.00    +0.003 C 
ATOM     10  C   UNL     1      29.150 -23.643 -14.429  0.00  0.00    +0.000 C 
ATOM     11  C   UNL     1      33.286 -22.032 -17.362  0.00  0.00    +0.105 C 
ATOM     12  C   UNL     1      32.015 -21.745 -18.077  0.00  0.00    +0.260 C 
ATOM     13  C   UNL     1      33.963 -23.030 -15.235  0.00  0.00    +0.267 C 
ATOM     14  C   UNL     1      34.547 -21.788 -17.748  0.00  0.00    -0.002 C 
ATOM     15  C   UNL     1      35.387 -22.764 -15.650  0.00  0.00    +0.104 C 
ATOM     16  C   UNL     1      35.611 -22.179 -16.839  0.00  0.00    +0.016 C 
ATOM     17  C   UNL     1      34.996 -21.148 -19.027  0.00  0.00    +0.033 C 
ATOM     18  H   UNL     1      30.055 -22.143 -17.443  0.00  0.00    +0.151 HD
ENDROOT
BRANCH  15  19
ATOM     19  N   UNL     1      36.358 -23.146 -14.770  0.00  0.00    -0.298 N 
ATOM     20  N   UNL     1      36.241 -25.503 -14.933  0.00  0.00    -0.233 NA
ATOM     21  N   UNL     1      38.161 -26.836 -14.344  0.00  0.00    -0.234 NA
ATOM     22  C   UNL     1      36.959 -24.402 -14.629  0.00  0.00    +0.113 C 
ATOM     23  C   UNL     1      38.263 -24.436 -14.182  0.00  0.00    +0.121 C 
ATOM     24  C   UNL     1      38.819 -25.693 -14.057  0.00  0.00    +0.107 C 
ATOM     25  C   UNL     1      36.894 -26.670 -14.770  0.00  0.00    +0.252 C 
ATOM     26  H   UNL     1      36.677 -22.446 -14.155  0.00  0.00    +0.153 HD
ATOM     27  N   UNL     1      40.157 -25.771 -13.598  0.00  0.00    -0.346 N 
ATOM     28  H   UNL     1      40.592 -26.648 -13.494  0.00  0.00    +0.143 HD
ATOM     29  H   UNL     1      40.653 -24.948 -13.383  0.00  0.00    +0.143 HD
ENDBRANCH  15  19
TORSDOF 1
ENDMDL
MODEL 3
REMARK VINA RESULT:     -10.4      2.735      5.008
REMARK  Name = 118598754
REMARK  1 active torsions:
REMARK  status: ('A' for Active; 'I' for Inactive)
REMARK    1  A    between atoms: C_15  and  N_19
REMARK                            x       y       z     vdW  Elec       q    Type
REMARK                         _______ _______ _______ _____ _____    ______ ____
ROOT
ATOM      1  O   UNL     1      37.949 -21.632 -16.121  0.00  0.00    -0.269 OA
ATOM      2  O   UNL     1      33.110 -24.282 -14.215  0.00  0.00    -0.268 OA
ATOM      3  N   UNL     1      35.035 -23.226 -14.974  0.00  0.00    -0.238 N 
ATOM      4  N   UNL     1      37.214 -22.922 -14.313  0.00  0.00    -0.288 N 
ATOM      5  C   UNL     1      35.980 -23.566 -13.880  0.00  0.00    +0.124 C 
ATOM      6  C   UNL     1      35.522 -22.968 -12.536  0.00  0.00    +0.038 C 
ATOM      7  C   UNL     1      36.194 -25.089 -13.777  0.00  0.00    +0.038 C 
ATOM      8  C   UNL     1      37.096 -25.476 -12.603  0.00  0.00    +0.003 C 
ATOM      9  C   UNL     1      36.428 -23.373 -11.373  0.00  0.00    +0.003 C 
ATOM     10  C   UNL     1      36.594 -24.887 -11.289  0.00  0.00    +0.000 C 
ATOM     11  C   UNL     1      35.676 -22.461 -15.934  0.00  0.00    +0.105 C 
ATOM     12  C   UNL     1      37.089 -22.253 -15.524  0.00  0.00    +0.260 C 
ATOM     13  C   UNL     1      33.700 -23.603 -15.053  0.00  0.00    +0.267 C 
ATOM     14  C   UNL     1      35.039 -22.021 -17.029  0.00  0.00    -0.002 C 
ATOM     15  C   UNL     1      32.967 -23.118 -16.277  0.00  0.00    +0.104 C 
ATOM     16  C   UNL     1      33.638 -22.378 -17.177  0.00  0.00    +0.016 C 
ATOM     17  C   UNL     1      35.612 -21.191 -18.139  0.00  0.00    +0.033 C 
ATOM     18  H   UNL     1      38.053 -22.957 -13.799  0.00  0.00    +0.151 HD
ENDROOT
BRANCH  15  19
ATOM     19  N   UNL     1      31.654 -23.473 -16.379  0.00  0.00    -0.298 N 
ATOM     20  N   UNL     1      30.682 -22.190 -14.645  0.00  0.00    -0.233 NA
ATOM     21  N   UNL     1      28.339 -21.635 -14.742  0.00  0.00    -0.234 NA
ATOM     22  C   UNL     1      30.537 -22.846 -15.815  0.00  0.00    +0.113 C 
ATOM     23  C   UNL     1      29.342 -22.941 -16.498  0.00  0.00    +0.121 C 
ATOM     24  C   UNL     1      28.265 -22.309 -15.908  0.00  0.00    +0.107 C 
ATOM     25  C   UNL     1      29.559 -21.615 -14.172  0.00  0.00    +0.252 C 
ATOM     26  H   UNL     1      31.468 -24.274 -16.921  0.00  0.00    +0.153 HD
ATOM     27  N   UNL     1      27.019 -22.386 -16.578  0.00  0.00    -0.346 N 
ATOM     28  H   UNL     1      26.225 -21.949 -16.192  0.00  0.00    +0.143 HD
ATOM     29  H   UNL     1      26.947 -22.874 -17.430  0.00  0.00    +0.143 HD
ENDBRANCH  15  19
TORSDOF 1
ENDMDL
MODEL 4
REMARK VINA RESULT:     -10.3      6.925     10.511
REMARK  Name = 118598754
REMARK  1 active torsions:
REMARK  status: ('A' for Active; 'I' for Inactive)
REMARK    1  A    between atoms: C_15  and  N_19
REMARK                            x       y       z     vdW  Elec       q    Type
REMARK                         _______ _______ _______ _____ _____    ______ ____
ROOT
ATOM      1  O   UNL     1      34.036 -17.999 -25.283  0.00  0.00    -0.269 OA
ATOM      2  O   UNL     1      34.233 -15.548 -19.989  0.00  0.00    -0.268 OA
ATOM      3  N   UNL     1      34.155 -16.522 -22.097  0.00  0.00    -0.238 N 
ATOM      4  N   UNL     1      34.583 -18.556 -23.077  0.00  0.00    -0.288 N 
ATOM      5  C   UNL     1      34.615 -17.897 -21.777  0.00  0.00    +0.124 C 
ATOM      6  C   UNL     1      36.055 -17.895 -21.228  0.00  0.00    +0.038 C 
ATOM      7  C   UNL     1      33.644 -18.603 -20.810  0.00  0.00    +0.038 C 
ATOM      8  C   UNL     1      34.136 -19.991 -20.394  0.00  0.00    +0.003 C 
ATOM      9  C   UNL     1      36.526 -19.288 -20.808  0.00  0.00    +0.003 C 
ATOM     10  C   UNL     1      35.552 -19.941 -19.832  0.00  0.00    +0.000 C 
ATOM     11  C   UNL     1      33.889 -16.414 -23.452  0.00  0.00    +0.105 C 
ATOM     12  C   UNL     1      34.159 -17.722 -24.104  0.00  0.00    +0.260 C 
ATOM     13  C   UNL     1      34.004 -15.476 -21.196  0.00  0.00    +0.267 C 
ATOM     14  C   UNL     1      33.458 -15.268 -23.999  0.00  0.00    -0.002 C 
ATOM     15  C   UNL     1      33.521 -14.179 -21.792  0.00  0.00    +0.104 C 
ATOM     16  C   UNL     1      33.278 -14.130 -23.113  0.00  0.00    +0.016 C 
ATOM     17  C   UNL     1      33.135 -15.018 -25.441  0.00  0.00    +0.033 C 
ATOM     18  H   UNL     1      34.835 -19.497 -23.215  0.00  0.00    +0.151 HD
ENDROOT
BRANCH  15  19
ATOM     19  N   UNL     1      33.365 -13.134 -20.928  0.00  0.00    -0.298 N 
ATOM     20  N   UNL     1      32.351 -11.516 -22.325  0.00  0.00    -0.233 NA
ATOM     21  N   UNL     1      31.026  -9.758 -21.346  0.00  0.00    -0.234 NA
ATOM     22  C   UNL     1      32.574 -11.991 -21.081  0.00  0.00    +0.113 C 
ATOM     23  C   UNL     1      32.064 -11.411 -19.938  0.00  0.00    +0.121 C 
ATOM     24  C   UNL     1      31.290 -10.285 -20.132  0.00  0.00    +0.107 C 
ATOM     25  C   UNL     1      31.580 -10.413 -22.383  0.00  0.00    +0.252 C 
ATOM     26  H   UNL     1      33.874 -13.194 -20.087  0.00  0.00    +0.153 HD
ATOM     27  N   UNL     1      30.751  -9.659 -18.982  0.00  0.00    -0.346 N 
ATOM     28  H   UNL     1      30.192  -8.854 -19.075  0.00  0.00    +0.143 HD
ATOM     29  H   UNL     1      30.933 -10.030 -18.088  0.00  0.00    +0.143 HD
ENDBRANCH  15  19
TORSDOF 1
ENDMDL
MODEL 5
REMARK VINA RESULT:      -9.5     11.562     15.982
REMARK  Name = 118598754
REMARK  1 active torsions:
REMARK  status: ('A' for Active; 'I' for Inactive)
REMARK    1  A    between atoms: C_15  and  N_19
REMARK                            x       y       z     vdW  Elec       q    Type
REMARK                         _______ _______ _______ _____ _____    ______ ____
ROOT
ATOM      1  O   UNL     1      30.935  -6.901 -18.945  0.00  0.00    -0.269 OA
ATOM      2  O   UNL     1      32.364  -8.727 -24.301  0.00  0.00    -0.268 OA
ATOM      3  N   UNL     1      31.797  -8.001 -22.168  0.00  0.00    -0.238 N 
ATOM      4  N   UNL     1      31.296  -6.036 -21.089  0.00  0.00    -0.288 N 
ATOM      5  C   UNL     1      31.656  -6.542 -22.408  0.00  0.00    +0.124 C 
ATOM      6  C   UNL     1      32.989  -5.916 -22.861  0.00  0.00    +0.038 C 
ATOM      7  C   UNL     1      30.522  -6.245 -23.409  0.00  0.00    +0.038 C 
ATOM      8  C   UNL     1      30.410  -4.755 -23.741  0.00  0.00    +0.003 C 
ATOM      9  C   UNL     1      32.855  -4.431 -23.199  0.00  0.00    +0.003 C 
ATOM     10  C   UNL     1      31.742  -4.181 -24.211  0.00  0.00    +0.000 C 
ATOM     11  C   UNL     1      31.540  -8.291 -20.839  0.00  0.00    +0.105 C 
ATOM     12  C   UNL     1      31.213  -7.031 -20.122  0.00  0.00    +0.260 C 
ATOM     13  C   UNL     1      32.135  -8.960 -23.115  0.00  0.00    +0.267 C 
ATOM     14  C   UNL     1      31.602  -9.543 -20.363  0.00  0.00    -0.002 C 
ATOM     15  C   UNL     1      32.209 -10.373 -22.600  0.00  0.00    +0.104 C 
ATOM     16  C   UNL     1      31.951 -10.598 -21.300  0.00  0.00    +0.016 C 
ATOM     17  C   UNL     1      31.349  -9.991 -18.955  0.00  0.00    +0.033 C 
ATOM     18  H   UNL     1      31.127  -5.084 -20.900  0.00  0.00    +0.151 HD
ENDROOT
BRANCH  15  19
ATOM     19  N   UNL     1      32.540 -11.335 -23.510  0.00  0.00    -0.298 N 
ATOM     20  N   UNL     1      33.749 -12.861 -22.164  0.00  0.00    -0.233 NA
ATOM     21  N   UNL     1      33.922 -15.168 -22.839  0.00  0.00    -0.234 NA
ATOM     22  C   UNL     1      33.013 -12.630 -23.272  0.00  0.00    +0.113 C 
ATOM     23  C   UNL     1      32.697 -13.603 -24.198  0.00  0.00    +0.121 C 
ATOM     24  C   UNL     1      33.183 -14.867 -23.927  0.00  0.00    +0.107 C 
ATOM     25  C   UNL     1      34.164 -14.133 -22.012  0.00  0.00    +0.252 C 
ATOM     26  H   UNL     1      32.430 -11.086 -24.456  0.00  0.00    +0.153 HD
ATOM     27  N   UNL     1      32.881 -15.893 -24.855  0.00  0.00    -0.346 N 
ATOM     28  H   UNL     1      33.208 -16.809 -24.701  0.00  0.00    +0.143 HD
ATOM     29  H   UNL     1      32.343 -15.692 -25.655  0.00  0.00    +0.143 HD
ENDBRANCH  15  19
TORSDOF 1
ENDMDL
