MODEL 1
REMARK VINA RESULT:     -12.0      0.000      0.000
REMARK  Name = 44608289
REMARK  2 active torsions:
REMARK  status: ('A' for Active; 'I' for Inactive)
REMARK    1  A    between atoms: C_3  and  C_9
REMARK    2  A    between atoms: C_4  and  C_17
REMARK                            x       y       z     vdW  Elec       q    Type
REMARK                         _______ _______ _______ _____ _____    ______ ____
ROOT
ATOM      1  N   UNL     1      35.960 -19.336 -20.612  0.00  0.00    -0.236 N 
ATOM      2  N   UNL     1      36.068 -20.155 -19.552  0.00  0.00    -0.181 NA
ATOM      3  C   UNL     1      34.685 -19.206 -21.080  0.00  0.00    +0.067 C 
ATOM      4  C   UNL     1      34.809 -20.553 -19.346  0.00  0.00    +0.100 C 
ATOM      5  C   UNL     1      33.905 -19.994 -20.268  0.00  0.00    +0.037 C 
ATOM      6  H   UNL     1      36.730 -18.874 -21.015  0.00  0.00    +0.174 HD
ENDROOT
BRANCH   3   9
ATOM      7  O   UNL     1      34.417 -14.906 -23.400  0.00  0.00    -0.435 OA
ATOM      8  O   UNL     1      33.425 -15.904 -25.356  0.00  0.00    -0.435 OA
ATOM      9  C   UNL     1      34.345 -18.376 -22.210  0.00  0.00    +0.018 C 
ATOM     10  C   UNL     1      34.251 -16.250 -23.266  0.00  0.00    +0.176 C 
ATOM     11  C   UNL     1      34.594 -17.002 -22.162  0.00  0.00    +0.041 C 
ATOM     12  C   UNL     1      33.685 -16.820 -24.384  0.00  0.00    +0.176 C 
ATOM     13  C   UNL     1      33.766 -18.959 -23.352  0.00  0.00    +0.005 C 
ATOM     14  C   UNL     1      33.428 -18.174 -24.457  0.00  0.00    +0.040 C 
ATOM     15  C   UNL     1      33.891 -14.693 -24.726  0.00  0.00    +0.429 C 
ENDBRANCH   3   9
BRANCH   4  17
ATOM     16 BR   UNL     1      36.364 -22.865 -14.832  0.00  0.00    -0.049 Br
ATOM     17  C   UNL     1      34.494 -21.460 -18.274  0.00  0.00    +0.020 C 
ATOM     18  C   UNL     1      35.419 -21.683 -17.254  0.00  0.00    +0.008 C 
ATOM     19  C   UNL     1      33.263 -22.116 -18.255  0.00  0.00    +0.002 C 
ATOM     20  C   UNL     1      35.112 -22.562 -16.214  0.00  0.00    +0.035 C 
ATOM     21  C   UNL     1      32.956 -22.995 -17.217  0.00  0.00    +0.001 C 
ATOM     22  C   UNL     1      33.881 -23.218 -16.196  0.00  0.00    +0.007 C 
ENDBRANCH   4  17
TORSDOF 2
ENDMDL
MODEL 2
REMARK VINA RESULT:     -11.6      1.608      2.710
REMARK  Name = 44608289
REMARK  2 active torsions:
REMARK  status: ('A' for Active; 'I' for Inactive)
REMARK    1  A    between atoms: C_3  and  C_9
REMARK    2  A    between atoms: C_4  and  C_17
REMARK                            x       y       z     vdW  Elec       q    Type
REMARK                         _______ _______ _______ _____ _____    ______ ____
ROOT
ATOM      1  N   UNL     1      36.034 -17.628 -22.124  0.00  0.00    -0.236 N 
ATOM      2  N   UNL     1      36.285 -18.737 -21.408  0.00  0.00    -0.181 NA
ATOM      3  C   UNL     1      34.776 -17.130 -21.946  0.00  0.00    +0.067 C 
ATOM      4  C   UNL     1      35.138 -18.943 -20.754  0.00  0.00    +0.100 C 
ATOM      5  C   UNL     1      34.162 -17.973 -21.052  0.00  0.00    +0.037 C 
ATOM      6  H   UNL     1      36.696 -17.213 -22.722  0.00  0.00    +0.174 HD
ENDROOT
BRANCH   3   9
ATOM      7  O   UNL     1      33.155 -14.716 -25.882  0.00  0.00    -0.435 OA
ATOM      8  O   UNL     1      32.930 -12.654 -24.654  0.00  0.00    -0.435 OA
ATOM      9  C   UNL     1      34.298 -15.947 -22.620  0.00  0.00    +0.018 C 
ATOM     10  C   UNL     1      33.519 -14.849 -24.577  0.00  0.00    +0.176 C 
ATOM     11  C   UNL     1      33.970 -16.006 -23.976  0.00  0.00    +0.041 C 
ATOM     12  C   UNL     1      33.390 -13.672 -23.876  0.00  0.00    +0.176 C 
ATOM     13  C   UNL     1      34.167 -14.744 -21.903  0.00  0.00    +0.005 C 
ATOM     14  C   UNL     1      33.707 -13.586 -22.535  0.00  0.00    +0.040 C 
ATOM     15  C   UNL     1      32.784 -13.323 -25.924  0.00  0.00    +0.429 C 
ENDBRANCH   3   9
BRANCH   4  17
ATOM     16 BR   UNL     1      37.062 -21.635 -16.608  0.00  0.00    -0.049 Br
ATOM     17  C   UNL     1      34.996 -20.061 -19.859  0.00  0.00    +0.020 C 
ATOM     18  C   UNL     1      35.933 -20.268 -18.847  0.00  0.00    +0.008 C 
ATOM     19  C   UNL     1      33.920 -20.937 -20.005  0.00  0.00    +0.002 C 
ATOM     20  C   UNL     1      35.794 -21.353 -17.980  0.00  0.00    +0.035 C 
ATOM     21  C   UNL     1      33.781 -22.021 -19.138  0.00  0.00    +0.001 C 
ATOM     22  C   UNL     1      34.718 -22.229 -18.125  0.00  0.00    +0.007 C 
ENDBRANCH   4  17
TORSDOF 2
ENDMDL
MODEL 3
REMARK VINA RESULT:     -11.4      4.608      8.235
REMARK  Name = 44608289
REMARK  2 active torsions:
REMARK  status: ('A' for Active; 'I' for Inactive)
REMARK    1  A    between atoms: C_3  and  C_9
REMARK    2  A    between atoms: C_4  and  C_17
REMARK                            x       y       z     vdW  Elec       q    Type
REMARK                         _______ _______ _______ _____ _____    ______ ____
ROOT
ATOM      1  N   UNL     1      36.080 -20.007 -19.510  0.00  0.00    -0.236 N 
ATOM      2  N   UNL     1      36.105 -19.183 -20.570  0.00  0.00    -0.181 NA
ATOM      3  C   UNL     1      34.854 -20.551 -19.263  0.00  0.00    +0.067 C 
ATOM      4  C   UNL     1      34.842 -19.210 -21.006  0.00  0.00    +0.100 C 
ATOM      5  C   UNL     1      34.018 -20.046 -20.229  0.00  0.00    +0.037 C 
ATOM      6  H   UNL     1      36.874 -20.202 -18.962  0.00  0.00    +0.174 HD
ENDROOT
BRANCH   3   9
ATOM      7  O   UNL     1      36.148 -22.897 -15.168  0.00  0.00    -0.435 OA
ATOM      8  O   UNL     1      34.027 -24.032 -15.023  0.00  0.00    -0.435 OA
ATOM      9  C   UNL     1      34.605 -21.463 -18.172  0.00  0.00    +0.018 C 
ATOM     10  C   UNL     1      35.312 -22.562 -16.188  0.00  0.00    +0.176 C 
ATOM     11  C   UNL     1      35.595 -21.680 -17.211  0.00  0.00    +0.041 C 
ATOM     12  C   UNL     1      34.101 -23.210 -16.105  0.00  0.00    +0.176 C 
ATOM     13  C   UNL     1      33.368 -22.126 -18.088  0.00  0.00    +0.005 C 
ATOM     14  C   UNL     1      33.106 -23.013 -17.042  0.00  0.00    +0.040 C 
ATOM     15  C   UNL     1      35.328 -23.829 -14.434  0.00  0.00    +0.429 C 
ENDBRANCH   3   9
BRANCH   4  17
ATOM     16 BR   UNL     1      34.129 -14.409 -23.147  0.00  0.00    -0.049 Br
ATOM     17  C   UNL     1      34.446 -18.438 -22.154  0.00  0.00    +0.020 C 
ATOM     18  C   UNL     1      34.475 -17.045 -22.102  0.00  0.00    +0.008 C 
ATOM     19  C   UNL     1      34.033 -19.085 -23.320  0.00  0.00    +0.002 C 
ATOM     20  C   UNL     1      34.091 -16.297 -23.216  0.00  0.00    +0.035 C 
ATOM     21  C   UNL     1      33.649 -18.338 -24.433  0.00  0.00    +0.001 C 
ATOM     22  C   UNL     1      33.678 -16.944 -24.382  0.00  0.00    +0.007 C 
ENDBRANCH   4  17
TORSDOF 2
ENDMDL
MODEL 4
REMARK VINA RESULT:     -11.2      4.692      8.347
REMARK  Name = 44608289
REMARK  2 active torsions:
REMARK  status: ('A' for Active; 'I' for Inactive)
REMARK    1  A    between atoms: C_3  and  C_9
REMARK    2  A    between atoms: C_4  and  C_17
REMARK                            x       y       z     vdW  Elec       q    Type
REMARK                         _______ _______ _______ _____ _____    ______ ____
ROOT
ATOM      1  N   UNL     1      34.726 -18.525 -22.656  0.00  0.00    -0.236 N 
ATOM      2  N   UNL     1      34.611 -17.375 -23.340  0.00  0.00    -0.181 NA
ATOM      3  C   UNL     1      34.369 -18.423 -21.343  0.00  0.00    +0.067 C 
ATOM      4  C   UNL     1      34.164 -16.517 -22.420  0.00  0.00    +0.100 C 
ATOM      5  C   UNL     1      33.996 -17.115 -21.157  0.00  0.00    +0.037 C 
ATOM      6  H   UNL     1      35.039 -19.365 -23.064  0.00  0.00    +0.174 HD
ENDROOT
BRANCH   3   9
ATOM      7  O   UNL     1      32.284 -21.882 -18.581  0.00  0.00    -0.435 OA
ATOM      8  O   UNL     1      34.417 -22.712 -17.825  0.00  0.00    -0.435 OA
ATOM      9  C   UNL     1      34.418 -19.538 -20.428  0.00  0.00    +0.018 C 
ATOM     10  C   UNL     1      33.327 -21.188 -19.113  0.00  0.00    +0.176 C 
ATOM     11  C   UNL     1      33.230 -20.127 -19.988  0.00  0.00    +0.041 C 
ATOM     12  C   UNL     1      34.544 -21.663 -18.682  0.00  0.00    +0.176 C 
ATOM     13  C   UNL     1      35.663 -20.022 -19.987  0.00  0.00    +0.005 C 
ATOM     14  C   UNL     1      35.733 -21.099 -19.101  0.00  0.00    +0.040 C 
ATOM     15  C   UNL     1      32.982 -22.846 -17.765  0.00  0.00    +0.429 C 
ENDBRANCH   3   9
BRANCH   4  17
ATOM     16 BR   UNL     1      32.751 -13.019 -26.150  0.00  0.00    -0.049 Br
ATOM     17  C   UNL     1      33.907 -15.142 -22.762  0.00  0.00    +0.020 C 
ATOM     18  C   UNL     1      33.522 -14.807 -24.060  0.00  0.00    +0.008 C 
ATOM     19  C   UNL     1      34.043 -14.146 -21.795  0.00  0.00    +0.002 C 
ATOM     20  C   UNL     1      33.273 -13.475 -24.392  0.00  0.00    +0.035 C 
ATOM     21  C   UNL     1      33.794 -12.814 -22.126  0.00  0.00    +0.001 C 
ATOM     22  C   UNL     1      33.409 -12.478 -23.425  0.00  0.00    +0.007 C 
ENDBRANCH   4  17
TORSDOF 2
ENDMDL
MODEL 5
REMARK VINA RESULT:     -11.2      3.993      5.907
REMARK  Name = 44608289
REMARK  2 active torsions:
REMARK  status: ('A' for Active; 'I' for Inactive)
REMARK    1  A    between atoms: C_3  and  C_9
REMARK    2  A    between atoms: C_4  and  C_17
REMARK                            x       y       z     vdW  Elec       q    Type
REMARK                         _______ _______ _______ _____ _____    ______ ____
ROOT
ATOM      1  N   UNL     1      34.076 -15.062 -23.678  0.00  0.00    -0.236 N 
ATOM      2  N   UNL     1      34.553 -16.299 -23.464  0.00  0.00    -0.181 NA
ATOM      3  C   UNL     1      33.676 -14.421 -22.542  0.00  0.00    +0.067 C 
ATOM      4  C   UNL     1      34.448 -16.440 -22.139  0.00  0.00    +0.100 C 
ATOM      5  C   UNL     1      33.907 -15.301 -21.514  0.00  0.00    +0.037 C 
ATOM      6  H   UNL     1      34.020 -14.654 -24.572  0.00  0.00    +0.174 HD
ENDROOT
BRANCH   3   9
ATOM      7  O   UNL     1      30.966 -10.818 -20.639  0.00  0.00    -0.435 OA
ATOM      8  O   UNL     1      31.517  -9.312 -22.437  0.00  0.00    -0.435 OA
ATOM      9  C   UNL     1      33.132 -13.084 -22.545  0.00  0.00    +0.018 C 
ATOM     10  C   UNL     1      31.795 -11.389 -21.555  0.00  0.00    +0.176 C 
ATOM     11  C   UNL     1      32.291 -12.675 -21.508  0.00  0.00    +0.041 C 
ATOM     12  C   UNL     1      32.109 -10.528 -22.582  0.00  0.00    +0.176 C 
ATOM     13  C   UNL     1      33.453 -12.205 -23.595  0.00  0.00    +0.005 C 
ATOM     14  C   UNL     1      32.937 -10.908 -23.619  0.00  0.00    +0.040 C 
ATOM     15  C   UNL     1      30.793  -9.502 -21.204  0.00  0.00    +0.429 C 
ENDBRANCH   3   9
BRANCH   4  17
ATOM     16 BR   UNL     1      33.026 -20.929 -19.697  0.00  0.00    -0.049 Br
ATOM     17  C   UNL     1      34.865 -17.659 -21.497  0.00  0.00    +0.020 C 
ATOM     18  C   UNL     1      33.911 -18.546 -20.997  0.00  0.00    +0.008 C 
ATOM     19  C   UNL     1      36.224 -17.952 -21.374  0.00  0.00    +0.002 C 
ATOM     20  C   UNL     1      34.317 -19.727 -20.374  0.00  0.00    +0.035 C 
ATOM     21  C   UNL     1      36.628 -19.133 -20.751  0.00  0.00    +0.001 C 
ATOM     22  C   UNL     1      35.675 -20.020 -20.251  0.00  0.00    +0.007 C 
ENDBRANCH   4  17
TORSDOF 2
ENDMDL
MODEL 6
REMARK VINA RESULT:     -11.2      6.942     10.873
REMARK  Name = 44608289
REMARK  2 active torsions:
REMARK  status: ('A' for Active; 'I' for Inactive)
REMARK    1  A    between atoms: C_3  and  C_9
REMARK    2  A    between atoms: C_4  and  C_17
REMARK                            x       y       z     vdW  Elec       q    Type
REMARK                         _______ _______ _______ _____ _____    ______ ____
ROOT
ATOM      1  N   UNL     1      31.361 -12.245 -21.342  0.00  0.00    -0.236 N 
ATOM      2  N   UNL     1      30.858 -10.999 -21.315  0.00  0.00    -0.181 NA
ATOM      3  C   UNL     1      32.433 -12.389 -22.173  0.00  0.00    +0.067 C 
ATOM      4  C   UNL     1      31.648 -10.335 -22.164  0.00  0.00    +0.100 C 
ATOM      5  C   UNL     1      32.646 -11.151 -22.728  0.00  0.00    +0.037 C 
ATOM      6  H   UNL     1      30.989 -12.986 -20.811  0.00  0.00    +0.174 HD
ENDROOT
BRANCH   3   9
ATOM      7  O   UNL     1      34.714 -16.380 -20.497  0.00  0.00    -0.435 OA
ATOM      8  O   UNL     1      35.103 -17.221 -22.722  0.00  0.00    -0.435 OA
ATOM      9  C   UNL     1      33.124 -13.643 -22.352  0.00  0.00    +0.018 C 
ATOM     10  C   UNL     1      34.219 -15.552 -21.457  0.00  0.00    +0.176 C 
ATOM     11  C   UNL     1      33.562 -14.359 -21.235  0.00  0.00    +0.041 C 
ATOM     12  C   UNL     1      34.440 -16.032 -22.727  0.00  0.00    +0.176 C 
ATOM     13  C   UNL     1      33.351 -14.133 -23.651  0.00  0.00    +0.005 C 
ATOM     14  C   UNL     1      34.018 -15.344 -23.847  0.00  0.00    +0.040 C 
ATOM     15  C   UNL     1      35.274 -17.435 -21.306  0.00  0.00    +0.429 C 
ENDBRANCH   3   9
BRANCH   4  17
ATOM     16 BR   UNL     1      31.503  -5.398 -20.227  0.00  0.00    -0.049 Br
ATOM     17  C   UNL     1      31.434  -8.934 -22.420  0.00  0.00    +0.020 C 
ATOM     18  C   UNL     1      31.552  -8.009 -21.382  0.00  0.00    +0.008 C 
ATOM     19  C   UNL     1      31.109  -8.503 -23.706  0.00  0.00    +0.002 C 
ATOM     20  C   UNL     1      31.344  -6.652 -21.632  0.00  0.00    +0.035 C 
ATOM     21  C   UNL     1      30.901  -7.147 -23.955  0.00  0.00    +0.001 C 
ATOM     22  C   UNL     1      31.019  -6.221 -22.918  0.00  0.00    +0.007 C 
ENDBRANCH   4  17
TORSDOF 2
ENDMDL
MODEL 7
REMARK VINA RESULT:     -11.2      6.740     10.724
REMARK  Name = 44608289
REMARK  2 active torsions:
REMARK  status: ('A' for Active; 'I' for Inactive)
REMARK    1  A    between atoms: C_3  and  C_9
REMARK    2  A    between atoms: C_4  and  C_17
REMARK                            x       y       z     vdW  Elec       q    Type
REMARK                         _______ _______ _______ _____ _____    ______ ____
ROOT
ATOM      1  N   UNL     1      31.618 -12.515 -21.481  0.00  0.00    -0.236 N 
ATOM      2  N   UNL     1      31.134 -11.262 -21.512  0.00  0.00    -0.181 NA
ATOM      3  C   UNL     1      32.657 -12.725 -22.340  0.00  0.00    +0.067 C 
ATOM      4  C   UNL     1      31.901 -10.662 -22.427  0.00  0.00    +0.100 C 
ATOM      5  C   UNL     1      32.866 -11.526 -22.976  0.00  0.00    +0.037 C 
ATOM      6  H   UNL     1      31.256 -13.217 -20.894  0.00  0.00    +0.174 HD
ENDROOT
BRANCH   3   9
ATOM      7  O   UNL     1      34.931 -16.651 -20.506  0.00  0.00    -0.435 OA
ATOM      8  O   UNL     1      35.238 -17.623 -22.690  0.00  0.00    -0.435 OA
ATOM      9  C   UNL     1      33.324 -13.999 -22.467  0.00  0.00    +0.018 C 
ATOM     10  C   UNL     1      34.418 -15.871 -21.496  0.00  0.00    +0.176 C 
ATOM     11  C   UNL     1      33.786 -14.657 -21.325  0.00  0.00    +0.041 C 
ATOM     12  C   UNL     1      34.593 -16.427 -22.743  0.00  0.00    +0.176 C 
ATOM     13  C   UNL     1      33.504 -14.566 -23.741  0.00  0.00    +0.005 C 
ATOM     14  C   UNL     1      34.147 -15.797 -23.888  0.00  0.00    +0.040 C 
ATOM     15  C   UNL     1      35.450 -17.760 -21.270  0.00  0.00    +0.429 C 
ENDBRANCH   3   9
BRANCH   4  17
ATOM     16 BR   UNL     1      34.020  -6.105 -24.123  0.00  0.00    -0.049 Br
ATOM     17  C   UNL     1      31.697  -9.277 -22.760  0.00  0.00    +0.020 C 
ATOM     18  C   UNL     1      32.768  -8.501 -23.202  0.00  0.00    +0.008 C 
ATOM     19  C   UNL     1      30.428  -8.710 -22.639  0.00  0.00    +0.002 C 
ATOM     20  C   UNL     1      32.570  -7.157 -23.524  0.00  0.00    +0.035 C 
ATOM     21  C   UNL     1      30.229  -7.368 -22.961  0.00  0.00    +0.001 C 
ATOM     22  C   UNL     1      31.300  -6.591 -23.404  0.00  0.00    +0.007 C 
ENDBRANCH   4  17
TORSDOF 2
ENDMDL
MODEL 8
REMARK VINA RESULT:     -11.1      6.145      9.865
REMARK  Name = 44608289
REMARK  2 active torsions:
REMARK  status: ('A' for Active; 'I' for Inactive)
REMARK    1  A    between atoms: C_3  and  C_9
REMARK    2  A    between atoms: C_4  and  C_17
REMARK                            x       y       z     vdW  Elec       q    Type
REMARK                         _______ _______ _______ _____ _____    ______ ____
ROOT
ATOM      1  N   UNL     1      33.100 -13.446 -24.540  0.00  0.00    -0.236 N 
ATOM      2  N   UNL     1      32.684 -12.169 -24.554  0.00  0.00    -0.181 NA
ATOM      3  C   UNL     1      33.419 -13.908 -23.297  0.00  0.00    +0.067 C 
ATOM      4  C   UNL     1      32.744 -11.816 -23.268  0.00  0.00    +0.100 C 
ATOM      5  C   UNL     1      33.197 -12.860 -22.439  0.00  0.00    +0.037 C 
ATOM      6  H   UNL     1      33.168 -13.998 -25.353  0.00  0.00    +0.174 HD
ENDROOT
BRANCH   3   9
ATOM      7  O   UNL     1      35.449 -17.376 -20.504  0.00  0.00    -0.435 OA
ATOM      8  O   UNL     1      35.263 -19.033 -22.243  0.00  0.00    -0.435 OA
ATOM      9  C   UNL     1      33.888 -15.252 -23.056  0.00  0.00    +0.018 C 
ATOM     10  C   UNL     1      34.882 -16.876 -21.636  0.00  0.00    +0.176 C 
ATOM     11  C   UNL     1      34.446 -15.580 -21.818  0.00  0.00    +0.041 C 
ATOM     12  C   UNL     1      34.775 -17.823 -22.628  0.00  0.00    +0.176 C 
ATOM     13  C   UNL     1      33.780 -16.219 -24.072  0.00  0.00    +0.005 C 
ATOM     14  C   UNL     1      34.228 -17.525 -23.860  0.00  0.00    +0.040 C 
ATOM     15  C   UNL     1      35.688 -18.743 -20.896  0.00  0.00    +0.429 C 
ENDBRANCH   3   9
BRANCH   4  17
ATOM     16 BR   UNL     1      33.720  -6.607 -23.507  0.00  0.00    -0.049 Br
ATOM     17  C   UNL     1      32.370 -10.489 -22.853  0.00  0.00    +0.020 C 
ATOM     18  C   UNL     1      33.098  -9.387 -23.302  0.00  0.00    +0.008 C 
ATOM     19  C   UNL     1      31.279 -10.306 -22.003  0.00  0.00    +0.002 C 
ATOM     20  C   UNL     1      32.735  -8.101 -22.900  0.00  0.00    +0.035 C 
ATOM     21  C   UNL     1      30.917  -9.020 -21.601  0.00  0.00    +0.001 C 
ATOM     22  C   UNL     1      31.644  -7.917 -22.049  0.00  0.00    +0.007 C 
ENDBRANCH   4  17
TORSDOF 2
ENDMDL
MODEL 9
REMARK VINA RESULT:     -11.1      5.136      8.913
REMARK  Name = 44608289
REMARK  2 active torsions:
REMARK  status: ('A' for Active; 'I' for Inactive)
REMARK    1  A    between atoms: C_3  and  C_9
REMARK    2  A    between atoms: C_4  and  C_17
REMARK                            x       y       z     vdW  Elec       q    Type
REMARK                         _______ _______ _______ _____ _____    ______ ____
ROOT
ATOM      1  N   UNL     1      33.522 -21.920 -18.301  0.00  0.00    -0.236 N 
ATOM      2  N   UNL     1      33.469 -21.187 -19.426  0.00  0.00    -0.181 NA
ATOM      3  C   UNL     1      34.715 -21.838 -17.645  0.00  0.00    +0.067 C 
ATOM      4  C   UNL     1      34.679 -20.623 -19.477  0.00  0.00    +0.100 C 
ATOM      5  C   UNL     1      35.498 -20.993 -18.394  0.00  0.00    +0.037 C 
ATOM      6  H   UNL     1      32.768 -22.466 -17.979  0.00  0.00    +0.174 HD
ENDROOT
BRANCH   3   9
ATOM      7  O   UNL     1      37.626 -23.202 -13.956  0.00  0.00    -0.435 OA
ATOM      8  O   UNL     1      35.884 -24.511 -12.926  0.00  0.00    -0.435 OA
ATOM      9  C   UNL     1      34.985 -22.545 -16.416  0.00  0.00    +0.018 C 
ATOM     10  C   UNL     1      36.463 -23.161 -14.661  0.00  0.00    +0.176 C 
ATOM     11  C   UNL     1      36.253 -22.466 -15.834  0.00  0.00    +0.041 C 
ATOM     12  C   UNL     1      35.469 -23.907 -14.073  0.00  0.00    +0.176 C 
ATOM     13  C   UNL     1      33.968 -23.309 -15.816  0.00  0.00    +0.005 C 
ATOM     14  C   UNL     1      34.208 -24.003 -14.627  0.00  0.00    +0.040 C 
ATOM     15  C   UNL     1      37.253 -24.059 -12.858  0.00  0.00    +0.429 C 
ENDBRANCH   3   9
BRANCH   4  17
ATOM     16 BR   UNL     1      33.332 -18.513 -24.154  0.00  0.00    -0.049 Br
ATOM     17  C   UNL     1      35.031 -19.742 -20.560  0.00  0.00    +0.020 C 
ATOM     18  C   UNL     1      34.164 -19.583 -21.641  0.00  0.00    +0.008 C 
ATOM     19  C   UNL     1      36.241 -19.047 -20.528  0.00  0.00    +0.002 C 
ATOM     20  C   UNL     1      34.506 -18.729 -22.690  0.00  0.00    +0.035 C 
ATOM     21  C   UNL     1      36.583 -18.194 -21.576  0.00  0.00    +0.001 C 
ATOM     22  C   UNL     1      35.715 -18.034 -22.657  0.00  0.00    +0.007 C 
ENDBRANCH   4  17
TORSDOF 2
ENDMDL
