MODEL 1
REMARK VINA RESULT:     -11.9      0.000      0.000
REMARK  Name = 72462
REMARK  3 active torsions:
REMARK  status: ('A' for Active; 'I' for Inactive)
REMARK    1  A    between atoms: N_1  and  S_14
REMARK    2  A    between atoms: S_14  and  C_17
REMARK    3  A    between atoms: C_22  and  N_23
REMARK                            x       y       z     vdW  Elec       q    Type
REMARK                         _______ _______ _______ _____ _____    ______ ____
ROOT
ATOM      1  N   UNL     1      34.466 -16.757 -20.694  0.00  0.00    -0.191 N 
ATOM      2  H   UNL     1      34.175 -16.798 -19.755  0.00  0.00    +0.176 HD
ATOM      3 CL   UNL     1      33.191 -10.810 -23.249  0.00  0.00    -0.081 Cl
ATOM      4  N   UNL     1      33.853 -15.860 -22.795  0.00  0.00    -0.387 NA
ATOM      5  N   UNL     1      33.831 -13.291 -21.736  0.00  0.00    -0.258 NA
ATOM      6  C   UNL     1      34.145 -15.628 -21.503  0.00  0.00    +0.200 C 
ATOM      7  C   UNL     1      33.548 -14.802 -23.568  0.00  0.00    +0.151 C 
ATOM      8  C   UNL     1      33.537 -13.502 -23.031  0.00  0.00    +0.117 C 
ATOM      9  C   UNL     1      34.134 -14.362 -20.981  0.00  0.00    +0.201 C 
ATOM     10  C   UNL     1      33.238 -14.983 -24.913  0.00  0.00    +0.034 C 
ATOM     11  C   UNL     1      33.216 -12.430 -23.861  0.00  0.00    +0.077 C 
ATOM     12  C   UNL     1      32.918 -13.904 -25.735  0.00  0.00    +0.004 C 
ATOM     13  C   UNL     1      32.907 -12.621 -25.206  0.00  0.00    +0.013 C 
ENDROOT
BRANCH   1  14
ATOM     14  S   UNL     1      35.372 -18.049 -21.389  0.00  0.00    +0.075 S 
ATOM     15  O   UNL     1      35.007 -18.186 -22.787  0.00  0.00    -0.150 OA
ATOM     16  O   UNL     1      36.769 -17.929 -21.019  0.00  0.00    -0.150 OA
BRANCH  14  17
ATOM     17  C   UNL     1      34.707 -19.455 -20.545  0.00  0.00    +0.125 C 
ATOM     18  C   UNL     1      35.570 -20.328 -19.907  0.00  0.00    +0.021 C 
ATOM     19  C   UNL     1      33.339 -19.652 -20.539  0.00  0.00    +0.021 C 
ATOM     20  C   UNL     1      35.045 -21.436 -19.241  0.00  0.00    +0.015 C 
ATOM     21  C   UNL     1      32.814 -20.759 -19.873  0.00  0.00    +0.015 C 
ATOM     22  C   UNL     1      33.667 -21.651 -19.224  0.00  0.00    +0.042 C 
BRANCH  22  23
ATOM     23  N   UNL     1      33.137 -22.771 -18.550  0.00  0.00    -0.357 N 
ATOM     24  H   UNL     1      32.271 -23.148 -18.828  0.00  0.00    +0.142 HD
ATOM     25  H   UNL     1      33.634 -23.176 -17.803  0.00  0.00    +0.142 HD
ENDBRANCH  22  23
ENDBRANCH  14  17
ENDBRANCH   1  14
TORSDOF 3
ENDMDL
MODEL 2
REMARK VINA RESULT:     -10.7      5.018      6.920
REMARK  Name = 72462
REMARK  3 active torsions:
REMARK  status: ('A' for Active; 'I' for Inactive)
REMARK    1  A    between atoms: N_1  and  S_14
REMARK    2  A    between atoms: S_14  and  C_17
REMARK    3  A    between atoms: C_22  and  N_23
REMARK                            x       y       z     vdW  Elec       q    Type
REMARK                         _______ _______ _______ _____ _____    ______ ____
ROOT
ATOM      1  N   UNL     1      31.774 -11.320 -22.149  0.00  0.00    -0.191 N 
ATOM      2  H   UNL     1      31.346 -11.931 -21.508  0.00  0.00    +0.176 HD
ATOM      3 CL   UNL     1      30.594  -5.042 -20.498  0.00  0.00    -0.081 Cl
ATOM      4  N   UNL     1      31.443  -9.259 -23.263  0.00  0.00    -0.387 NA
ATOM      5  N   UNL     1      31.126  -7.951 -20.832  0.00  0.00    -0.258 NA
ATOM      6  C   UNL     1      31.522  -9.918 -22.093  0.00  0.00    +0.200 C 
ATOM      7  C   UNL     1      31.205  -7.936 -23.222  0.00  0.00    +0.151 C 
ATOM      8  C   UNL     1      31.044  -7.274 -21.992  0.00  0.00    +0.117 C 
ATOM      9  C   UNL     1      31.366  -9.273 -20.895  0.00  0.00    +0.201 C 
ATOM     10  C   UNL     1      31.114  -7.203 -24.403  0.00  0.00    +0.034 C 
ATOM     11  C   UNL     1      30.798  -5.903 -21.987  0.00  0.00    +0.077 C 
ATOM     12  C   UNL     1      30.866  -5.832 -24.388  0.00  0.00    +0.004 C 
ATOM     13  C   UNL     1      30.708  -5.179 -23.174  0.00  0.00    +0.013 C 
ENDROOT
BRANCH   1  14
ATOM     14  S   UNL     1      32.843 -11.925 -23.360  0.00  0.00    +0.075 S 
ATOM     15  O   UNL     1      32.068 -12.325 -24.520  0.00  0.00    -0.150 OA
ATOM     16  O   UNL     1      33.968 -11.025 -23.522  0.00  0.00    -0.150 OA
BRANCH  14  17
ATOM     17  C   UNL     1      33.442 -13.410 -22.606  0.00  0.00    +0.125 C 
ATOM     18  C   UNL     1      33.458 -13.504 -21.226  0.00  0.00    +0.021 C 
ATOM     19  C   UNL     1      33.882 -14.444 -23.411  0.00  0.00    +0.021 C 
ATOM     20  C   UNL     1      33.929 -14.675 -20.631  0.00  0.00    +0.015 C 
ATOM     21  C   UNL     1      34.354 -15.614 -22.816  0.00  0.00    +0.015 C 
ATOM     22  C   UNL     1      34.377 -15.730 -21.427  0.00  0.00    +0.042 C 
BRANCH  22  23
ATOM     23  N   UNL     1      34.854 -16.913 -20.825  0.00  0.00    -0.357 N 
ATOM     24  H   UNL     1      35.456 -16.862 -20.047  0.00  0.00    +0.142 HD
ATOM     25  H   UNL     1      34.585 -17.790 -21.183  0.00  0.00    +0.142 HD
ENDBRANCH  22  23
ENDBRANCH  14  17
ENDBRANCH   1  14
TORSDOF 3
ENDMDL
MODEL 3
REMARK VINA RESULT:     -10.5      4.388      6.208
REMARK  Name = 72462
REMARK  3 active torsions:
REMARK  status: ('A' for Active; 'I' for Inactive)
REMARK    1  A    between atoms: N_1  and  S_14
REMARK    2  A    between atoms: S_14  and  C_17
REMARK    3  A    between atoms: C_22  and  N_23
REMARK                            x       y       z     vdW  Elec       q    Type
REMARK                         _______ _______ _______ _____ _____    ______ ____
ROOT
ATOM      1  N   UNL     1      31.635 -12.307 -22.537  0.00  0.00    -0.191 N 
ATOM      2  H   UNL     1      30.949 -12.943 -22.235  0.00  0.00    +0.176 HD
ATOM      3 CL   UNL     1      31.102  -6.608 -19.257  0.00  0.00    -0.081 Cl
ATOM      4  N   UNL     1      31.978 -10.007 -22.975  0.00  0.00    -0.387 NA
ATOM      5  N   UNL     1      31.214  -9.360 -20.383  0.00  0.00    -0.258 NA
ATOM      6  C   UNL     1      31.614 -10.953 -22.090  0.00  0.00    +0.200 C 
ATOM      7  C   UNL     1      31.962  -8.727 -22.564  0.00  0.00    +0.151 C 
ATOM      8  C   UNL     1      31.575  -8.399 -21.252  0.00  0.00    +0.117 C 
ATOM      9  C   UNL     1      31.238 -10.634 -20.813  0.00  0.00    +0.201 C 
ATOM     10  C   UNL     1      32.328  -7.706 -23.437  0.00  0.00    +0.034 C 
ATOM     11  C   UNL     1      31.569  -7.062 -20.861  0.00  0.00    +0.077 C 
ATOM     12  C   UNL     1      32.319  -6.371 -23.037  0.00  0.00    +0.004 C 
ATOM     13  C   UNL     1      31.938  -6.048 -21.743  0.00  0.00    +0.013 C 
ENDROOT
BRANCH   1  14
ATOM     14  S   UNL     1      32.884 -12.808 -23.616  0.00  0.00    +0.075 S 
ATOM     15  O   UNL     1      32.283 -13.316 -24.835  0.00  0.00    -0.150 OA
ATOM     16  O   UNL     1      33.912 -11.788 -23.691  0.00  0.00    -0.150 OA
BRANCH  14  17
ATOM     17  C   UNL     1      33.565 -14.200 -22.761  0.00  0.00    +0.125 C 
ATOM     18  C   UNL     1      33.590 -14.194 -21.377  0.00  0.00    +0.021 C 
ATOM     19  C   UNL     1      34.058 -15.264 -23.492  0.00  0.00    +0.021 C 
ATOM     20  C   UNL     1      34.125 -15.292 -20.704  0.00  0.00    +0.015 C 
ATOM     21  C   UNL     1      34.594 -16.362 -22.818  0.00  0.00    +0.015 C 
ATOM     22  C   UNL     1      34.627 -16.376 -21.424  0.00  0.00    +0.042 C 
BRANCH  22  23
ATOM     23  N   UNL     1      35.169 -17.485 -20.742  0.00  0.00    -0.357 N 
ATOM     24  H   UNL     1      36.124 -17.707 -20.843  0.00  0.00    +0.142 HD
ATOM     25  H   UNL     1      34.593 -18.037 -20.166  0.00  0.00    +0.142 HD
ENDBRANCH  22  23
ENDBRANCH  14  17
ENDBRANCH   1  14
TORSDOF 3
ENDMDL
MODEL 4
REMARK VINA RESULT:     -10.1      7.556      9.986
REMARK  Name = 72462
REMARK  3 active torsions:
REMARK  status: ('A' for Active; 'I' for Inactive)
REMARK    1  A    between atoms: N_1  and  S_14
REMARK    2  A    between atoms: S_14  and  C_17
REMARK    3  A    between atoms: C_22  and  N_23
REMARK                            x       y       z     vdW  Elec       q    Type
REMARK                         _______ _______ _______ _____ _____    ______ ____
ROOT
ATOM      1  N   UNL     1      33.981 -24.382 -14.146  0.00  0.00    -0.191 N 
ATOM      2  H   UNL     1      33.453 -25.207 -14.064  0.00  0.00    +0.176 HD
ATOM      3 CL   UNL     1      32.413 -21.172 -19.693  0.00  0.00    -0.081 Cl
ATOM      4  N   UNL     1      35.080 -23.025 -15.742  0.00  0.00    -0.387 NA
ATOM      5  N   UNL     1      32.720 -22.739 -17.181  0.00  0.00    -0.258 NA
ATOM      6  C   UNL     1      33.936 -23.607 -15.342  0.00  0.00    +0.200 C 
ATOM      7  C   UNL     1      35.049 -22.292 -16.870  0.00  0.00    +0.151 C 
ATOM      8  C   UNL     1      33.854 -22.148 -17.598  0.00  0.00    +0.117 C 
ATOM      9  C   UNL     1      32.773 -23.466 -16.051  0.00  0.00    +0.201 C 
ATOM     10  C   UNL     1      36.204 -21.666 -17.331  0.00  0.00    +0.034 C 
ATOM     11  C   UNL     1      33.858 -21.382 -18.762  0.00  0.00    +0.077 C 
ATOM     12  C   UNL     1      36.198 -20.903 -18.497  0.00  0.00    +0.004 C 
ATOM     13  C   UNL     1      35.020 -20.759 -19.215  0.00  0.00    +0.013 C 
ENDROOT
BRANCH   1  14
ATOM     14  S   UNL     1      34.980 -23.846 -12.846  0.00  0.00    +0.075 S 
ATOM     15  O   UNL     1      35.128 -22.405 -12.924  0.00  0.00    -0.150 OA
ATOM     16  O   UNL     1      34.548 -24.460 -11.605  0.00  0.00    -0.150 OA
BRANCH  14  17
ATOM     17  C   UNL     1      36.546 -24.547 -13.279  0.00  0.00    +0.125 C 
ATOM     18  C   UNL     1      36.579 -25.725 -14.004  0.00  0.00    +0.021 C 
ATOM     19  C   UNL     1      37.705 -23.904 -12.885  0.00  0.00    +0.021 C 
ATOM     20  C   UNL     1      37.814 -26.277 -14.347  0.00  0.00    +0.015 C 
ATOM     21  C   UNL     1      38.939 -24.456 -13.227  0.00  0.00    +0.015 C 
ATOM     22  C   UNL     1      38.994 -25.643 -13.958  0.00  0.00    +0.042 C 
BRANCH  22  23
ATOM     23  N   UNL     1      40.242 -26.201 -14.304  0.00  0.00    -0.357 N 
ATOM     24  H   UNL     1      40.489 -26.305 -15.252  0.00  0.00    +0.142 HD
ATOM     25  H   UNL     1      40.866 -26.487 -13.598  0.00  0.00    +0.142 HD
ENDBRANCH  22  23
ENDBRANCH  14  17
ENDBRANCH   1  14
TORSDOF 3
ENDMDL
MODEL 5
REMARK VINA RESULT:     -10.1      5.447      9.944
REMARK  Name = 72462
REMARK  3 active torsions:
REMARK  status: ('A' for Active; 'I' for Inactive)
REMARK    1  A    between atoms: N_1  and  S_14
REMARK    2  A    between atoms: S_14  and  C_17
REMARK    3  A    between atoms: C_22  and  N_23
REMARK                            x       y       z     vdW  Elec       q    Type
REMARK                         _______ _______ _______ _____ _____    ______ ____
ROOT
ATOM      1  N   UNL     1      35.975 -21.655 -18.238  0.00  0.00    -0.191 N 
ATOM      2  H   UNL     1      36.823 -21.511 -18.715  0.00  0.00    +0.176 HD
ATOM      3 CL   UNL     1      37.037 -22.202 -11.750  0.00  0.00    -0.081 Cl
ATOM      4  N   UNL     1      35.043 -22.840 -16.415  0.00  0.00    -0.387 NA
ATOM      5  N   UNL     1      36.879 -21.687 -14.676  0.00  0.00    -0.258 NA
ATOM      6  C   UNL     1      35.970 -21.967 -16.847  0.00  0.00    +0.200 C 
ATOM      7  C   UNL     1      35.030 -23.142 -15.104  0.00  0.00    +0.151 C 
ATOM      8  C   UNL     1      35.959 -22.558 -14.225  0.00  0.00    +0.117 C 
ATOM      9  C   UNL     1      36.875 -21.398 -15.990  0.00  0.00    +0.201 C 
ATOM     10  C   UNL     1      34.092 -24.040 -14.601  0.00  0.00    +0.034 C 
ATOM     11  C   UNL     1      35.916 -22.894 -12.873  0.00  0.00    +0.077 C 
ATOM     12  C   UNL     1      34.057 -24.371 -13.248  0.00  0.00    +0.004 C 
ATOM     13  C   UNL     1      34.974 -23.794 -12.380  0.00  0.00    +0.013 C 
ENDROOT
BRANCH   1  14
ATOM     14  S   UNL     1      34.468 -21.538 -19.070  0.00  0.00    +0.075 S 
ATOM     15  O   UNL     1      34.294 -22.712 -19.903  0.00  0.00    -0.150 OA
ATOM     16  O   UNL     1      33.422 -21.149 -18.145  0.00  0.00    -0.150 OA
BRANCH  14  17
ATOM     17  C   UNL     1      34.761 -20.174 -20.159  0.00  0.00    +0.125 C 
ATOM     18  C   UNL     1      33.744 -19.750 -20.996  0.00  0.00    +0.021 C 
ATOM     19  C   UNL     1      36.000 -19.560 -20.152  0.00  0.00    +0.021 C 
ATOM     20  C   UNL     1      33.975 -18.675 -21.854  0.00  0.00    +0.015 C 
ATOM     21  C   UNL     1      36.231 -18.485 -21.010  0.00  0.00    +0.015 C 
ATOM     22  C   UNL     1      35.218 -18.042 -21.861  0.00  0.00    +0.042 C 
BRANCH  22  23
ATOM     23  N   UNL     1      35.451 -16.955 -22.729  0.00  0.00    -0.357 N 
ATOM     24  H   UNL     1      35.167 -17.007 -23.670  0.00  0.00    +0.142 HD
ATOM     25  H   UNL     1      35.898 -16.144 -22.393  0.00  0.00    +0.142 HD
ENDBRANCH  22  23
ENDBRANCH  14  17
ENDBRANCH   1  14
TORSDOF 3
ENDMDL
MODEL 6
REMARK VINA RESULT:     -10.1      5.594     10.149
REMARK  Name = 72462
REMARK  3 active torsions:
REMARK  status: ('A' for Active; 'I' for Inactive)
REMARK    1  A    between atoms: N_1  and  S_14
REMARK    2  A    between atoms: S_14  and  C_17
REMARK    3  A    between atoms: C_22  and  N_23
REMARK                            x       y       z     vdW  Elec       q    Type
REMARK                         _______ _______ _______ _____ _____    ______ ____
ROOT
ATOM      1  N   UNL     1      32.409 -21.457 -18.178  0.00  0.00    -0.191 N 
ATOM      2  H   UNL     1      31.982 -20.662 -18.572  0.00  0.00    +0.176 HD
ATOM      3 CL   UNL     1      28.301 -24.434 -13.961  0.00  0.00    -0.081 Cl
ATOM      4  N   UNL     1      32.571 -22.673 -16.155  0.00  0.00    -0.387 NA
ATOM      5  N   UNL     1      29.811 -22.992 -16.080  0.00  0.00    -0.258 NA
ATOM      6  C   UNL     1      31.777 -22.167 -17.116  0.00  0.00    +0.200 C 
ATOM      7  C   UNL     1      31.985 -23.344 -15.148  0.00  0.00    +0.151 C 
ATOM      8  C   UNL     1      30.588 -23.506 -15.111  0.00  0.00    +0.117 C 
ATOM      9  C   UNL     1      30.417 -22.324 -17.079  0.00  0.00    +0.201 C 
ATOM     10  C   UNL     1      32.758 -23.890 -14.126  0.00  0.00    +0.034 C 
ATOM     11  C   UNL     1      30.015 -24.207 -14.051  0.00  0.00    +0.077 C 
ATOM     12  C   UNL     1      32.176 -24.589 -13.071  0.00  0.00    +0.004 C 
ATOM     13  C   UNL     1      30.798 -24.749 -13.034  0.00  0.00    +0.013 C 
ENDROOT
BRANCH   1  14
ATOM     14  S   UNL     1      33.935 -22.013 -18.759  0.00  0.00    +0.075 S 
ATOM     15  O   UNL     1      34.865 -22.094 -17.648  0.00  0.00    -0.150 OA
ATOM     16  O   UNL     1      33.745 -23.161 -19.625  0.00  0.00    -0.150 OA
BRANCH  14  17
ATOM     17  C   UNL     1      34.456 -20.656 -19.768  0.00  0.00    +0.125 C 
ATOM     18  C   UNL     1      33.519 -19.993 -20.541  0.00  0.00    +0.021 C 
ATOM     19  C   UNL     1      35.787 -20.285 -19.762  0.00  0.00    +0.021 C 
ATOM     20  C   UNL     1      33.930 -18.922 -21.335  0.00  0.00    +0.015 C 
ATOM     21  C   UNL     1      36.198 -19.214 -20.557  0.00  0.00    +0.015 C 
ATOM     22  C   UNL     1      35.269 -18.532 -21.343  0.00  0.00    +0.042 C 
BRANCH  22  23
ATOM     23  N   UNL     1      35.684 -17.450 -22.146  0.00  0.00    -0.357 N 
ATOM     24  H   UNL     1      35.477 -16.527 -21.874  0.00  0.00    +0.142 HD
ATOM     25  H   UNL     1      36.182 -17.618 -22.979  0.00  0.00    +0.142 HD
ENDBRANCH  22  23
ENDBRANCH  14  17
ENDBRANCH   1  14
TORSDOF 3
ENDMDL
MODEL 7
REMARK VINA RESULT:      -9.9      3.578      8.215
REMARK  Name = 72462
REMARK  3 active torsions:
REMARK  status: ('A' for Active; 'I' for Inactive)
REMARK    1  A    between atoms: N_1  and  S_14
REMARK    2  A    between atoms: S_14  and  C_17
REMARK    3  A    between atoms: C_22  and  N_23
REMARK                            x       y       z     vdW  Elec       q    Type
REMARK                         _______ _______ _______ _____ _____    ______ ____
ROOT
ATOM      1  N   UNL     1      33.326 -19.108 -21.406  0.00  0.00    -0.191 N 
ATOM      2  H   UNL     1      32.452 -18.673 -21.527  0.00  0.00    +0.176 HD
ATOM      3 CL   UNL     1      33.028 -23.587 -16.571  0.00  0.00    -0.081 Cl
ATOM      4  N   UNL     1      34.765 -19.963 -19.734  0.00  0.00    -0.387 NA
ATOM      5  N   UNL     1      32.766 -21.671 -18.833  0.00  0.00    -0.258 NA
ATOM      6  C   UNL     1      33.550 -19.993 -20.310  0.00  0.00    +0.200 C 
ATOM      7  C   UNL     1      34.987 -20.793 -18.699  0.00  0.00    +0.151 C 
ATOM      8  C   UNL     1      33.975 -21.658 -18.243  0.00  0.00    +0.117 C 
ATOM      9  C   UNL     1      32.565 -20.834 -19.867  0.00  0.00    +0.201 C 
ATOM     10  C   UNL     1      36.225 -20.806 -18.063  0.00  0.00    +0.034 C 
ATOM     11  C   UNL     1      34.240 -22.504 -17.168  0.00  0.00    +0.077 C 
ATOM     12  C   UNL     1      36.481 -21.655 -16.989  0.00  0.00    +0.004 C 
ATOM     13  C   UNL     1      35.483 -22.508 -16.539  0.00  0.00    +0.013 C 
ENDROOT
BRANCH   1  14
ATOM     14  S   UNL     1      34.615 -18.814 -22.514  0.00  0.00    +0.075 S 
ATOM     15  O   UNL     1      35.864 -18.740 -21.780  0.00  0.00    -0.150 OA
ATOM     16  O   UNL     1      34.500 -19.703 -23.653  0.00  0.00    -0.150 OA
BRANCH  14  17
ATOM     17  C   UNL     1      34.248 -17.174 -23.069  0.00  0.00    +0.125 C 
ATOM     18  C   UNL     1      34.513 -16.105 -22.232  0.00  0.00    +0.021 C 
ATOM     19  C   UNL     1      33.704 -16.995 -24.328  0.00  0.00    +0.021 C 
ATOM     20  C   UNL     1      34.224 -14.812 -22.671  0.00  0.00    +0.015 C 
ATOM     21  C   UNL     1      33.416 -15.702 -24.766  0.00  0.00    +0.015 C 
ATOM     22  C   UNL     1      33.676 -14.611 -23.938  0.00  0.00    +0.042 C 
BRANCH  22  23
ATOM     23  N   UNL     1      33.384 -13.304 -24.380  0.00  0.00    -0.357 N 
ATOM     24  H   UNL     1      33.544 -13.055 -25.319  0.00  0.00    +0.142 HD
ATOM     25  H   UNL     1      33.020 -12.641 -23.750  0.00  0.00    +0.142 HD
ENDBRANCH  22  23
ENDBRANCH  14  17
ENDBRANCH   1  14
TORSDOF 3
ENDMDL
MODEL 8
REMARK VINA RESULT:      -9.8      4.662      6.659
REMARK  Name = 72462
REMARK  3 active torsions:
REMARK  status: ('A' for Active; 'I' for Inactive)
REMARK    1  A    between atoms: N_1  and  S_14
REMARK    2  A    between atoms: S_14  and  C_17
REMARK    3  A    between atoms: C_22  and  N_23
REMARK                            x       y       z     vdW  Elec       q    Type
REMARK                         _______ _______ _______ _____ _____    ______ ____
ROOT
ATOM      1  N   UNL     1      33.897 -11.178 -23.049  0.00  0.00    -0.191 N 
ATOM      2  H   UNL     1      34.777 -11.426 -22.688  0.00  0.00    +0.176 HD
ATOM      3 CL   UNL     1      33.641  -4.702 -24.276  0.00  0.00    -0.081 Cl
ATOM      4  N   UNL     1      32.275  -9.457 -22.986  0.00  0.00    -0.387 NA
ATOM      5  N   UNL     1      34.160  -7.597 -23.828  0.00  0.00    -0.258 NA
ATOM      6  C   UNL     1      33.549  -9.809 -23.236  0.00  0.00    +0.200 C 
ATOM      7  C   UNL     1      31.936  -8.167 -23.158  0.00  0.00    +0.151 C 
ATOM      8  C   UNL     1      32.891  -7.226 -23.584  0.00  0.00    +0.117 C 
ATOM      9  C   UNL     1      34.478  -8.892 -23.651  0.00  0.00    +0.201 C 
ATOM     10  C   UNL     1      30.632  -7.747 -22.914  0.00  0.00    +0.034 C 
ATOM     11  C   UNL     1      32.504  -5.898 -23.751  0.00  0.00    +0.077 C 
ATOM     12  C   UNL     1      30.255  -6.416 -23.083  0.00  0.00    +0.004 C 
ATOM     13  C   UNL     1      31.196  -5.487 -23.505  0.00  0.00    +0.013 C 
ENDROOT
BRANCH   1  14
ATOM     14  S   UNL     1      32.746 -12.393 -23.468  0.00  0.00    +0.075 S 
ATOM     15  O   UNL     1      31.498 -12.122 -22.779  0.00  0.00    -0.150 OA
ATOM     16  O   UNL     1      32.746 -12.602 -24.903  0.00  0.00    -0.150 OA
BRANCH  14  17
ATOM     17  C   UNL     1      33.447 -13.832 -22.713  0.00  0.00    +0.125 C 
ATOM     18  C   UNL     1      33.956 -14.835 -23.518  0.00  0.00    +0.021 C 
ATOM     19  C   UNL     1      33.471 -13.925 -21.334  0.00  0.00    +0.021 C 
ATOM     20  C   UNL     1      34.509 -15.969 -22.922  0.00  0.00    +0.015 C 
ATOM     21  C   UNL     1      34.024 -15.058 -20.738  0.00  0.00    +0.015 C 
ATOM     22  C   UNL     1      34.543 -16.080 -21.532  0.00  0.00    +0.042 C 
BRANCH  22  23
ATOM     23  N   UNL     1      35.102 -17.227 -20.930  0.00  0.00    -0.357 N 
ATOM     24  H   UNL     1      34.962 -18.114 -21.335  0.00  0.00    +0.142 HD
ATOM     25  H   UNL     1      35.633 -17.140 -20.106  0.00  0.00    +0.142 HD
ENDBRANCH  22  23
ENDBRANCH  14  17
ENDBRANCH   1  14
TORSDOF 3
ENDMDL
MODEL 9
REMARK VINA RESULT:      -9.7      4.282      8.185
REMARK  Name = 72462
REMARK  3 active torsions:
REMARK  status: ('A' for Active; 'I' for Inactive)
REMARK    1  A    between atoms: N_1  and  S_14
REMARK    2  A    between atoms: S_14  and  C_17
REMARK    3  A    between atoms: C_22  and  N_23
REMARK                            x       y       z     vdW  Elec       q    Type
REMARK                         _______ _______ _______ _____ _____    ______ ____
ROOT
ATOM      1  N   UNL     1      33.668 -12.800 -21.971  0.00  0.00    -0.191 N 
ATOM      2  H   UNL     1      34.201 -12.204 -21.397  0.00  0.00    +0.176 HD
ATOM      3 CL   UNL     1      34.923 -19.115 -20.535  0.00  0.00    -0.081 Cl
ATOM      4  N   UNL     1      33.781 -14.859 -23.129  0.00  0.00    -0.387 NA
ATOM      5  N   UNL     1      34.420 -16.192 -20.776  0.00  0.00    -0.258 NA
ATOM      6  C   UNL     1      33.892 -14.208 -21.957  0.00  0.00    +0.200 C 
ATOM      7  C   UNL     1      33.990 -16.188 -23.129  0.00  0.00    +0.151 C 
ATOM      8  C   UNL     1      34.314 -16.862 -21.938  0.00  0.00    +0.117 C 
ATOM      9  C   UNL     1      34.206 -14.864 -20.798  0.00  0.00    +0.201 C 
ATOM     10  C   UNL     1      33.889 -16.914 -24.313  0.00  0.00    +0.034 C 
ATOM     11  C   UNL     1      34.524 -18.239 -21.975  0.00  0.00    +0.077 C 
ATOM     12  C   UNL     1      34.101 -18.290 -24.340  0.00  0.00    +0.004 C 
ATOM     13  C   UNL     1      34.420 -18.956 -23.165  0.00  0.00    +0.013 C 
ENDROOT
BRANCH   1  14
ATOM     14  S   UNL     1      32.448 -12.160 -23.009  0.00  0.00    +0.075 S 
ATOM     15  O   UNL     1      33.032 -11.874 -24.306  0.00  0.00    -0.150 OA
ATOM     16  O   UNL     1      31.249 -12.971 -22.922  0.00  0.00    -0.150 OA
BRANCH  14  17
ATOM     17  C   UNL     1      32.104 -10.601 -22.246  0.00  0.00    +0.125 C 
ATOM     18  C   UNL     1      32.492  -9.437 -22.886  0.00  0.00    +0.021 C 
ATOM     19  C   UNL     1      31.454 -10.577 -21.026  0.00  0.00    +0.021 C 
ATOM     20  C   UNL     1      32.219  -8.209 -22.284  0.00  0.00    +0.015 C 
ATOM     21  C   UNL     1      31.181  -9.349 -20.424  0.00  0.00    +0.015 C 
ATOM     22  C   UNL     1      31.564  -8.164 -21.054  0.00  0.00    +0.042 C 
BRANCH  22  23
ATOM     23  N   UNL     1      31.289  -6.922 -20.446  0.00  0.00    -0.357 N 
ATOM     24  H   UNL     1      31.812  -6.629 -19.664  0.00  0.00    +0.142 HD
ATOM     25  H   UNL     1      30.575  -6.346 -20.804  0.00  0.00    +0.142 HD
ENDBRANCH  22  23
ENDBRANCH  14  17
ENDBRANCH   1  14
TORSDOF 3
ENDMDL
