MODEL 1
REMARK VINA RESULT:     -11.4      0.000      0.000
REMARK  Name = 5287652
REMARK  2 active torsions:
REMARK  status: ('A' for Active; 'I' for Inactive)
REMARK    1  A    between atoms: C_18  and  O_22
REMARK    2  A    between atoms: C_19  and  O_24
REMARK                            x       y       z     vdW  Elec       q    Type
REMARK                         _______ _______ _______ _____ _____    ______ ____
ROOT
ATOM      1  O   UNL     1      35.174 -19.025 -21.860  0.00  0.00    -0.435 OA
ATOM      2  O   UNL     1      32.877 -19.683 -21.547  0.00  0.00    -0.435 OA
ATOM      3  N   UNL     1      33.103 -22.544 -16.808  0.00  0.00    -0.312 N 
ATOM      4  C   UNL     1      35.446 -22.111 -16.748  0.00  0.00    +0.014 C 
ATOM      5  C   UNL     1      36.464 -21.381 -17.603  0.00  0.00    +0.001 C 
ATOM      6  C   UNL     1      34.189 -22.000 -17.339  0.00  0.00    +0.048 C 
ATOM      7  C   UNL     1      35.603 -20.853 -18.742  0.00  0.00    +0.004 C 
ATOM      8  C   UNL     1      34.242 -21.243 -18.554  0.00  0.00    +0.017 C 
ATOM      9  C   UNL     1      35.588 -22.814 -15.558  0.00  0.00    +0.006 C 
ATOM     10  C   UNL     1      34.419 -23.391 -15.000  0.00  0.00    +0.018 C 
ATOM     11  C   UNL     1      36.003 -20.101 -19.834  0.00  0.00    +0.040 C 
ATOM     12  C   UNL     1      33.258 -20.886 -19.459  0.00  0.00    +0.041 C 
ATOM     13  C   UNL     1      35.002 -19.757 -20.723  0.00  0.00    +0.176 C 
ATOM     14  C   UNL     1      33.680 -20.135 -20.542  0.00  0.00    +0.176 C 
ATOM     15  C   UNL     1      33.184 -23.235 -15.658  0.00  0.00    +0.062 C 
ATOM     16  C   UNL     1      36.821 -22.971 -14.899  0.00  0.00    +0.040 C 
ATOM     17  C   UNL     1      34.519 -24.109 -13.799  0.00  0.00    +0.041 C 
ATOM     18  C   UNL     1      36.897 -23.690 -13.706  0.00  0.00    +0.172 C 
ATOM     19  C   UNL     1      35.749 -24.257 -13.158  0.00  0.00    +0.172 C 
ATOM     20  C   UNL     1      33.829 -18.982 -22.373  0.00  0.00    +0.429 C 
ATOM     21  H   UNL     1      32.233 -22.442 -17.258  0.00  0.00    +0.152 HD
ENDROOT
BRANCH  18  22
ATOM     22  O   UNL     1      38.102 -23.829 -13.086  0.00  0.00    -0.468 OA
ATOM     23  C   UNL     1      38.955 -24.872 -13.555  0.00  0.00    +0.253 C 
ENDBRANCH  18  22
BRANCH  19  24
ATOM     24  O   UNL     1      35.816 -24.961 -11.993  0.00  0.00    -0.468 OA
ATOM     25  C   UNL     1      35.430 -24.279 -10.801  0.00  0.00    +0.253 C 
ENDBRANCH  19  24
TORSDOF 2
ENDMDL
MODEL 2
REMARK VINA RESULT:     -10.9      1.464      2.930
REMARK  Name = 5287652
REMARK  2 active torsions:
REMARK  status: ('A' for Active; 'I' for Inactive)
REMARK    1  A    between atoms: C_18  and  O_22
REMARK    2  A    between atoms: C_19  and  O_24
REMARK                            x       y       z     vdW  Elec       q    Type
REMARK                         _______ _______ _______ _____ _____    ______ ____
ROOT
ATOM      1  O   UNL     1      33.452 -19.045 -22.328  0.00  0.00    -0.435 OA
ATOM      2  O   UNL     1      35.807 -18.662 -21.990  0.00  0.00    -0.435 OA
ATOM      3  N   UNL     1      36.781 -21.395 -17.270  0.00  0.00    -0.312 N 
ATOM      4  C   UNL     1      34.476 -21.997 -17.234  0.00  0.00    +0.014 C 
ATOM      5  C   UNL     1      33.251 -21.762 -18.096  0.00  0.00    +0.001 C 
ATOM      6  C   UNL     1      35.571 -21.358 -17.810  0.00  0.00    +0.048 C 
ATOM      7  C   UNL     1      33.816 -20.910 -19.225  0.00  0.00    +0.004 C 
ATOM      8  C   UNL     1      35.211 -20.685 -19.023  0.00  0.00    +0.017 C 
ATOM      9  C   UNL     1      34.636 -22.704 -16.048  0.00  0.00    +0.006 C 
ATOM     10  C   UNL     1      35.935 -22.735 -15.480  0.00  0.00    +0.018 C 
ATOM     11  C   UNL     1      33.143 -20.391 -20.318  0.00  0.00    +0.040 C 
ATOM     12  C   UNL     1      35.957 -19.934 -19.914  0.00  0.00    +0.041 C 
ATOM     13  C   UNL     1      33.910 -19.645 -21.194  0.00  0.00    +0.176 C 
ATOM     14  C   UNL     1      35.265 -19.426 -20.999  0.00  0.00    +0.176 C 
ATOM     15  C   UNL     1      36.992 -22.063 -16.124  0.00  0.00    +0.062 C 
ATOM     16  C   UNL     1      33.581 -23.375 -15.402  0.00  0.00    +0.040 C 
ATOM     17  C   UNL     1      36.140 -23.437 -14.283  0.00  0.00    +0.041 C 
ATOM     18  C   UNL     1      33.808 -24.067 -14.213  0.00  0.00    +0.172 C 
ATOM     19  C   UNL     1      35.084 -24.098 -13.655  0.00  0.00    +0.172 C 
ATOM     20  C   UNL     1      34.655 -18.428 -22.825  0.00  0.00    +0.429 C 
ATOM     21  H   UNL     1      37.530 -20.929 -17.711  0.00  0.00    +0.152 HD
ENDROOT
BRANCH  18  22
ATOM     22  O   UNL     1      32.771 -24.709 -13.606  0.00  0.00    -0.468 OA
ATOM     23  C   UNL     1      31.527 -24.014 -13.541  0.00  0.00    +0.253 C 
ENDBRANCH  18  22
BRANCH  19  24
ATOM     24  O   UNL     1      35.312 -24.771 -12.492  0.00  0.00    -0.468 OA
ATOM     25  C   UNL     1      36.595 -25.375 -12.335  0.00  0.00    +0.253 C 
ENDBRANCH  19  24
TORSDOF 2
ENDMDL
MODEL 3
REMARK VINA RESULT:     -10.9      1.691      2.435
REMARK  Name = 5287652
REMARK  2 active torsions:
REMARK  status: ('A' for Active; 'I' for Inactive)
REMARK    1  A    between atoms: C_18  and  O_22
REMARK    2  A    between atoms: C_19  and  O_24
REMARK                            x       y       z     vdW  Elec       q    Type
REMARK                         _______ _______ _______ _____ _____    ______ ____
ROOT
ATOM      1  O   UNL     1      36.120 -18.596 -22.361  0.00  0.00    -0.435 OA
ATOM      2  O   UNL     1      33.735 -18.506 -22.697  0.00  0.00    -0.435 OA
ATOM      3  N   UNL     1      31.825 -21.452 -18.413  0.00  0.00    -0.312 N 
ATOM      4  C   UNL     1      34.085 -21.783 -17.732  0.00  0.00    +0.014 C 
ATOM      5  C   UNL     1      35.463 -21.382 -18.221  0.00  0.00    +0.001 C 
ATOM      6  C   UNL     1      33.124 -21.261 -18.596  0.00  0.00    +0.048 C 
ATOM      7  C   UNL     1      35.136 -20.571 -19.467  0.00  0.00    +0.004 C 
ATOM      8  C   UNL     1      33.723 -20.518 -19.664  0.00  0.00    +0.017 C 
ATOM      9  C   UNL     1      33.688 -22.535 -16.633  0.00  0.00    +0.006 C 
ATOM     10  C   UNL     1      32.296 -22.733 -16.449  0.00  0.00    +0.018 C 
ATOM     11  C   UNL     1      36.019 -19.947 -20.333  0.00  0.00    +0.040 C 
ATOM     12  C   UNL     1      33.169 -19.838 -20.735  0.00  0.00    +0.041 C 
ATOM     13  C   UNL     1      35.441 -19.275 -21.394  0.00  0.00    +0.176 C 
ATOM     14  C   UNL     1      34.068 -19.222 -21.587  0.00  0.00    +0.176 C 
ATOM     15  C   UNL     1      31.386 -22.172 -17.366  0.00  0.00    +0.062 C 
ATOM     16  C   UNL     1      34.595 -23.096 -15.716  0.00  0.00    +0.040 C 
ATOM     17  C   UNL     1      31.853 -23.486 -15.352  0.00  0.00    +0.041 C 
ATOM     18  C   UNL     1      34.132 -23.842 -14.632  0.00  0.00    +0.172 C 
ATOM     19  C   UNL     1      32.765 -24.037 -14.451  0.00  0.00    +0.172 C 
ATOM     20  C   UNL     1      35.037 -18.113 -23.178  0.00  0.00    +0.429 C 
ATOM     21  H   UNL     1      31.178 -21.066 -19.047  0.00  0.00    +0.152 HD
ENDROOT
BRANCH  18  22
ATOM     22  O   UNL     1      35.029 -24.376 -13.757  0.00  0.00    -0.468 OA
ATOM     23  C   UNL     1      36.171 -25.024 -14.314  0.00  0.00    +0.253 C 
ENDBRANCH  18  22
BRANCH  19  24
ATOM     24  O   UNL     1      32.306 -24.765 -13.395  0.00  0.00    -0.468 OA
ATOM     25  C   UNL     1      30.905 -24.713 -13.133  0.00  0.00    +0.253 C 
ENDBRANCH  19  24
TORSDOF 2
ENDMDL
MODEL 4
REMARK VINA RESULT:     -10.7      8.810     14.032
REMARK  Name = 5287652
REMARK  2 active torsions:
REMARK  status: ('A' for Active; 'I' for Inactive)
REMARK    1  A    between atoms: C_18  and  O_22
REMARK    2  A    between atoms: C_19  and  O_24
REMARK                            x       y       z     vdW  Elec       q    Type
REMARK                         _______ _______ _______ _____ _____    ______ ____
ROOT
ATOM      1  O   UNL     1      35.171 -16.843 -22.857  0.00  0.00    -0.435 OA
ATOM      2  O   UNL     1      34.513 -16.776 -20.539  0.00  0.00    -0.435 OA
ATOM      3  N   UNL     1      32.121 -11.795 -20.134  0.00  0.00    -0.312 N 
ATOM      4  C   UNL     1      32.599 -11.463 -22.445  0.00  0.00    +0.014 C 
ATOM      5  C   UNL     1      33.260 -12.241 -23.567  0.00  0.00    +0.001 C 
ATOM      6  C   UNL     1      32.631 -12.226 -21.280  0.00  0.00    +0.048 C 
ATOM      7  C   UNL     1      33.659 -13.533 -22.867  0.00  0.00    +0.004 C 
ATOM      8  C   UNL     1      33.268 -13.491 -21.494  0.00  0.00    +0.017 C 
ATOM      9  C   UNL     1      32.017 -10.201 -22.428  0.00  0.00    +0.006 C 
ATOM     10  C   UNL     1      31.477  -9.752 -21.197  0.00  0.00    +0.018 C 
ATOM     11  C   UNL     1      34.307 -14.630 -23.409  0.00  0.00    +0.040 C 
ATOM     12  C   UNL     1      33.520 -14.550 -20.640  0.00  0.00    +0.041 C 
ATOM     13  C   UNL     1      34.549 -15.674 -22.535  0.00  0.00    +0.176 C 
ATOM     14  C   UNL     1      34.169 -15.635 -21.202  0.00  0.00    +0.176 C 
ATOM     15  C   UNL     1      31.547 -10.582 -20.061  0.00  0.00    +0.062 C 
ATOM     16  C   UNL     1      31.946  -9.370 -23.560  0.00  0.00    +0.040 C 
ATOM     17  C   UNL     1      30.880  -8.484 -21.135  0.00  0.00    +0.041 C 
ATOM     18  C   UNL     1      31.349  -8.113 -23.477  0.00  0.00    +0.172 C 
ATOM     19  C   UNL     1      30.818  -7.671 -22.268  0.00  0.00    +0.172 C 
ATOM     20  C   UNL     1      35.144 -17.532 -21.592  0.00  0.00    +0.429 C 
ATOM     21  H   UNL     1      32.164 -12.366 -19.333  0.00  0.00    +0.152 HD
ENDROOT
BRANCH  18  22
ATOM     22  O   UNL     1      31.292  -7.325 -24.587  0.00  0.00    -0.468 OA
ATOM     23  C   UNL     1      32.309  -6.335 -24.732  0.00  0.00    +0.253 C 
ENDBRANCH  18  22
BRANCH  19  24
ATOM     24  O   UNL     1      30.234  -6.443 -22.178  0.00  0.00    -0.468 OA
ATOM     25  C   UNL     1      30.862  -5.487 -21.326  0.00  0.00    +0.253 C 
ENDBRANCH  19  24
TORSDOF 2
ENDMDL
MODEL 5
REMARK VINA RESULT:     -10.6      3.477      5.388
REMARK  Name = 5287652
REMARK  2 active torsions:
REMARK  status: ('A' for Active; 'I' for Inactive)
REMARK    1  A    between atoms: C_18  and  O_22
REMARK    2  A    between atoms: C_19  and  O_24
REMARK                            x       y       z     vdW  Elec       q    Type
REMARK                         _______ _______ _______ _____ _____    ______ ____
ROOT
ATOM      1  O   UNL     1      27.706 -23.225 -14.894  0.00  0.00    -0.435 OA
ATOM      2  O   UNL     1      28.361 -22.035 -16.885  0.00  0.00    -0.435 OA
ATOM      3  N   UNL     1      33.890 -22.286 -16.646  0.00  0.00    -0.312 N 
ATOM      4  C   UNL     1      33.670 -23.507 -14.611  0.00  0.00    +0.014 C 
ATOM      5  C   UNL     1      32.540 -24.013 -13.735  0.00  0.00    +0.001 C 
ATOM      6  C   UNL     1      33.133 -22.836 -15.707  0.00  0.00    +0.048 C 
ATOM      7  C   UNL     1      31.310 -23.535 -14.494  0.00  0.00    +0.004 C 
ATOM      8  C   UNL     1      31.700 -22.831 -15.673  0.00  0.00    +0.017 C 
ATOM      9  C   UNL     1      35.049 -23.613 -14.476  0.00  0.00    +0.006 C 
ATOM     10  C   UNL     1      35.849 -23.021 -15.486  0.00  0.00    +0.018 C 
ATOM     11  C   UNL     1      29.979 -23.714 -14.156  0.00  0.00    +0.040 C 
ATOM     12  C   UNL     1      30.761 -22.293 -16.536  0.00  0.00    +0.041 C 
ATOM     13  C   UNL     1      29.061 -23.167 -15.033  0.00  0.00    +0.176 C 
ATOM     14  C   UNL     1      29.438 -22.483 -16.179  0.00  0.00    +0.176 C 
ATOM     15  C   UNL     1      35.230 -22.359 -16.565  0.00  0.00    +0.062 C 
ATOM     16  C   UNL     1      35.669 -24.272 -13.399  0.00  0.00    +0.040 C 
ATOM     17  C   UNL     1      37.245 -23.105 -15.388  0.00  0.00    +0.041 C 
ATOM     18  C   UNL     1      37.059 -24.344 -13.321  0.00  0.00    +0.172 C 
ATOM     19  C   UNL     1      37.846 -23.762 -14.313  0.00  0.00    +0.172 C 
ATOM     20  C   UNL     1      27.273 -22.509 -16.067  0.00  0.00    +0.429 C 
ATOM     21  H   UNL     1      33.470 -21.821 -17.406  0.00  0.00    +0.152 HD
ENDROOT
BRANCH  18  22
ATOM     22  O   UNL     1      37.638 -24.988 -12.269  0.00  0.00    -0.468 OA
ATOM     23  C   UNL     1      36.925 -26.091 -11.714  0.00  0.00    +0.253 C 
ENDBRANCH  18  22
BRANCH  19  24
ATOM     24  O   UNL     1      39.205 -23.828 -14.244  0.00  0.00    -0.468 OA
ATOM     25  C   UNL     1      39.833 -24.940 -14.879  0.00  0.00    +0.253 C 
ENDBRANCH  19  24
TORSDOF 2
ENDMDL
MODEL 6
REMARK VINA RESULT:     -10.3      7.845     13.026
REMARK  Name = 5287652
REMARK  2 active torsions:
REMARK  status: ('A' for Active; 'I' for Inactive)
REMARK    1  A    between atoms: C_18  and  O_22
REMARK    2  A    between atoms: C_19  and  O_24
REMARK                            x       y       z     vdW  Elec       q    Type
REMARK                         _______ _______ _______ _____ _____    ______ ____
ROOT
ATOM      1  O   UNL     1      35.213 -18.069 -20.625  0.00  0.00    -0.435 OA
ATOM      2  O   UNL     1      35.518 -17.847 -23.005  0.00  0.00    -0.435 OA
ATOM      3  N   UNL     1      33.360 -12.845 -24.010  0.00  0.00    -0.312 N 
ATOM      4  C   UNL     1      32.874 -12.672 -21.684  0.00  0.00    +0.014 C 
ATOM      5  C   UNL     1      33.058 -13.525 -20.443  0.00  0.00    +0.001 C 
ATOM      6  C   UNL     1      33.384 -13.353 -22.786  0.00  0.00    +0.048 C 
ATOM      7  C   UNL     1      33.737 -14.765 -21.007  0.00  0.00    +0.004 C 
ATOM      8  C   UNL     1      33.917 -14.631 -22.417  0.00  0.00    +0.017 C 
ATOM      9  C   UNL     1      32.314 -11.411 -21.851  0.00  0.00    +0.006 C 
ATOM     10  C   UNL     1      32.293 -10.878 -23.165  0.00  0.00    +0.018 C 
ATOM     11  C   UNL     1      34.147 -15.897 -20.322  0.00  0.00    +0.040 C 
ATOM     12  C   UNL     1      34.513 -15.630 -23.166  0.00  0.00    +0.041 C 
ATOM     13  C   UNL     1      34.739 -16.880 -21.092  0.00  0.00    +0.176 C 
ATOM     14  C   UNL     1      34.915 -16.751 -22.462  0.00  0.00    +0.176 C 
ATOM     15  C   UNL     1      32.829 -11.629 -24.229  0.00  0.00    +0.062 C 
ATOM     16  C   UNL     1      31.778 -10.659 -20.790  0.00  0.00    +0.040 C 
ATOM     17  C   UNL     1      31.737  -9.609 -23.378  0.00  0.00    +0.041 C 
ATOM     18  C   UNL     1      31.229  -9.399 -21.024  0.00  0.00    +0.172 C 
ATOM     19  C   UNL     1      31.208  -8.875 -22.315  0.00  0.00    +0.172 C 
ATOM     20  C   UNL     1      35.704 -18.672 -21.838  0.00  0.00    +0.429 C 
ATOM     21  H   UNL     1      33.731 -13.360 -24.764  0.00  0.00    +0.152 HD
ENDROOT
BRANCH  18  22
ATOM     22  O   UNL     1      30.715  -8.689 -19.981  0.00  0.00    -0.468 OA
ATOM     23  C   UNL     1      31.565  -7.714 -19.381  0.00  0.00    +0.253 C 
ENDBRANCH  18  22
BRANCH  19  24
ATOM     24  O   UNL     1      30.673  -7.645 -22.552  0.00  0.00    -0.468 OA
ATOM     25  C   UNL     1      30.972  -7.039 -23.808  0.00  0.00    +0.253 C 
ENDBRANCH  19  24
TORSDOF 2
ENDMDL
MODEL 7
REMARK VINA RESULT:     -10.3      1.112      7.796
REMARK  Name = 5287652
REMARK  2 active torsions:
REMARK  status: ('A' for Active; 'I' for Inactive)
REMARK    1  A    between atoms: C_18  and  O_22
REMARK    2  A    between atoms: C_19  and  O_24
REMARK                            x       y       z     vdW  Elec       q    Type
REMARK                         _______ _______ _______ _____ _____    ______ ____
ROOT
ATOM      1  O   UNL     1      37.750 -23.803 -13.373  0.00  0.00    -0.435 OA
ATOM      2  O   UNL     1      35.479 -24.603 -13.258  0.00  0.00    -0.435 OA
ATOM      3  N   UNL     1      33.161 -22.221 -17.690  0.00  0.00    -0.312 N 
ATOM      4  C   UNL     1      35.272 -21.218 -18.159  0.00  0.00    +0.014 C 
ATOM      5  C   UNL     1      36.659 -21.209 -17.546  0.00  0.00    +0.001 C 
ATOM      6  C   UNL     1      34.438 -22.026 -17.390  0.00  0.00    +0.048 C 
ATOM      7  C   UNL     1      36.480 -22.118 -16.338  0.00  0.00    +0.004 C 
ATOM      8  C   UNL     1      35.134 -22.592 -16.273  0.00  0.00    +0.017 C 
ATOM      9  C   UNL     1      34.767 -20.583 -19.287  0.00  0.00    +0.006 C 
ATOM     10  C   UNL     1      33.401 -20.799 -19.598  0.00  0.00    +0.018 C 
ATOM     11  C   UNL     1      37.429 -22.480 -15.397  0.00  0.00    +0.040 C 
ATOM     12  C   UNL     1      34.716 -23.438 -15.260  0.00  0.00    +0.041 C 
ATOM     13  C   UNL     1      36.986 -23.325 -14.396  0.00  0.00    +0.176 C 
ATOM     14  C   UNL     1      35.680 -23.786 -14.331  0.00  0.00    +0.176 C 
ATOM     15  C   UNL     1      32.621 -21.631 -18.771  0.00  0.00    +0.062 C 
ATOM     16  C   UNL     1      35.543 -19.751 -20.115  0.00  0.00    +0.040 C 
ATOM     17  C   UNL     1      32.851 -20.177 -20.729  0.00  0.00    +0.041 C 
ATOM     18  C   UNL     1      34.976 -19.142 -21.234  0.00  0.00    +0.172 C 
ATOM     19  C   UNL     1      33.634 -19.355 -21.540  0.00  0.00    +0.172 C 
ATOM     20  C   UNL     1      36.791 -24.609 -12.661  0.00  0.00    +0.429 C 
ATOM     21  H   UNL     1      32.606 -22.801 -17.120  0.00  0.00    +0.152 HD
ENDROOT
BRANCH  18  22
ATOM     22  O   UNL     1      35.747 -18.341 -22.021  0.00  0.00    -0.468 OA
ATOM     23  C   UNL     1      37.126 -18.228 -21.676  0.00  0.00    +0.253 C 
ENDBRANCH  18  22
BRANCH  19  24
ATOM     24  O   UNL     1      33.073 -18.762 -22.631  0.00  0.00    -0.468 OA
ATOM     25  C   UNL     1      33.688 -19.014 -23.893  0.00  0.00    +0.253 C 
ENDBRANCH  19  24
TORSDOF 2
ENDMDL
MODEL 8
REMARK VINA RESULT:     -10.2      2.895      4.527
REMARK  Name = 5287652
REMARK  2 active torsions:
REMARK  status: ('A' for Active; 'I' for Inactive)
REMARK    1  A    between atoms: C_18  and  O_22
REMARK    2  A    between atoms: C_19  and  O_24
REMARK                            x       y       z     vdW  Elec       q    Type
REMARK                         _______ _______ _______ _____ _____    ______ ____
ROOT
ATOM      1  O   UNL     1      34.790 -18.476 -22.378  0.00  0.00    -0.435 OA
ATOM      2  O   UNL     1      36.818 -19.058 -21.214  0.00  0.00    -0.435 OA
ATOM      3  N   UNL     1      34.929 -22.139 -17.016  0.00  0.00    -0.312 N 
ATOM      4  C   UNL     1      32.726 -21.794 -17.856  0.00  0.00    +0.014 C 
ATOM      5  C   UNL     1      32.080 -21.065 -19.018  0.00  0.00    +0.001 C 
ATOM      6  C   UNL     1      34.105 -21.611 -17.911  0.00  0.00    +0.048 C 
ATOM      7  C   UNL     1      33.286 -20.457 -19.722  0.00  0.00    +0.004 C 
ATOM      8  C   UNL     1      34.486 -20.803 -19.031  0.00  0.00    +0.017 C 
ATOM      9  C   UNL     1      32.171 -22.553 -16.833  0.00  0.00    +0.006 C 
ATOM     10  C   UNL     1      33.062 -23.112 -15.882  0.00  0.00    +0.018 C 
ATOM     11  C   UNL     1      33.300 -19.673 -20.863  0.00  0.00    +0.040 C 
ATOM     12  C   UNL     1      35.724 -20.369 -19.473  0.00  0.00    +0.041 C 
ATOM     13  C   UNL     1      34.547 -19.252 -21.285  0.00  0.00    +0.176 C 
ATOM     14  C   UNL     1      35.715 -19.588 -20.615  0.00  0.00    +0.176 C 
ATOM     15  C   UNL     1      34.446 -22.882 -16.006  0.00  0.00    +0.062 C 
ATOM     16  C   UNL     1      30.789 -22.784 -16.706  0.00  0.00    +0.040 C 
ATOM     17  C   UNL     1      32.544 -23.886 -14.833  0.00  0.00    +0.041 C 
ATOM     18  C   UNL     1      30.295 -23.556 -15.655  0.00  0.00    +0.172 C 
ATOM     19  C   UNL     1      31.170 -24.105 -14.721  0.00  0.00    +0.172 C 
ATOM     20  C   UNL     1      36.225 -18.359 -22.327  0.00  0.00    +0.429 C 
ATOM     21  H   UNL     1      35.899 -21.986 -17.092  0.00  0.00    +0.152 HD
ENDROOT
BRANCH  18  22
ATOM     22  O   UNL     1      28.953 -23.765 -15.553  0.00  0.00    -0.468 OA
ATOM     23  C   UNL     1      28.131 -22.616 -15.364  0.00  0.00    +0.253 C 
ENDBRANCH  18  22
BRANCH  19  24
ATOM     24  O   UNL     1      30.695 -24.860 -13.691  0.00  0.00    -0.468 OA
ATOM     25  C   UNL     1      30.247 -24.163 -12.530  0.00  0.00    +0.253 C 
ENDBRANCH  19  24
TORSDOF 2
ENDMDL
MODEL 9
REMARK VINA RESULT:      -9.5     11.873     15.713
REMARK  Name = 5287652
REMARK  2 active torsions:
REMARK  status: ('A' for Active; 'I' for Inactive)
REMARK    1  A    between atoms: C_18  and  O_22
REMARK    2  A    between atoms: C_19  and  O_24
REMARK                            x       y       z     vdW  Elec       q    Type
REMARK                         _______ _______ _______ _____ _____    ______ ____
ROOT
ATOM      1  O   UNL     1      30.370  -2.910 -24.129  0.00  0.00    -0.435 OA
ATOM      2  O   UNL     1      30.123  -2.706 -21.740  0.00  0.00    -0.435 OA
ATOM      3  N   UNL     1      31.035  -7.889 -20.011  0.00  0.00    -0.312 N 
ATOM      4  C   UNL     1      31.353  -8.511 -22.289  0.00  0.00    +0.014 C 
ATOM      5  C   UNL     1      31.329  -7.827 -23.642  0.00  0.00    +0.001 C 
ATOM      6  C   UNL     1      31.078  -7.573 -21.297  0.00  0.00    +0.048 C 
ATOM      7  C   UNL     1      31.005  -6.388 -23.266  0.00  0.00    +0.004 C 
ATOM      8  C   UNL     1      30.860  -6.269 -21.850  0.00  0.00    +0.017 C 
ATOM      9  C   UNL     1      31.592  -9.835 -21.939  0.00  0.00    +0.006 C 
ATOM     10  C   UNL     1      31.543 -10.161 -20.560  0.00  0.00    +0.018 C 
ATOM     11  C   UNL     1      30.856  -5.300 -24.110  0.00  0.00    +0.040 C 
ATOM     12  C   UNL     1      30.562  -5.055 -21.255  0.00  0.00    +0.041 C 
ATOM     13  C   UNL     1      30.558  -4.100 -23.491  0.00  0.00    +0.176 C 
ATOM     14  C   UNL     1      30.417  -3.983 -22.116  0.00  0.00    +0.176 C 
ATOM     15  C   UNL     1      31.259  -9.155 -19.616  0.00  0.00    +0.062 C 
ATOM     16  C   UNL     1      31.876 -10.842 -22.879  0.00  0.00    +0.040 C 
ATOM     17  C   UNL     1      31.778 -11.485 -20.162  0.00  0.00    +0.041 C 
ATOM     18  C   UNL     1      32.106 -12.152 -22.462  0.00  0.00    +0.172 C 
ATOM     19  C   UNL     1      32.058 -12.473 -21.108  0.00  0.00    +0.172 C 
ATOM     20  C   UNL     1      30.097  -2.036 -23.016  0.00  0.00    +0.429 C 
ATOM     21  H   UNL     1      30.838  -7.195 -19.341  0.00  0.00    +0.152 HD
ENDROOT
BRANCH  18  22
ATOM     22  O   UNL     1      32.379 -13.111 -23.391  0.00  0.00    -0.468 OA
ATOM     23  C   UNL     1      32.725 -12.664 -24.701  0.00  0.00    +0.253 C 
ENDBRANCH  18  22
BRANCH  19  24
ATOM     24  O   UNL     1      32.281 -13.752 -20.693  0.00  0.00    -0.468 OA
ATOM     25  C   UNL     1      33.639 -14.181 -20.619  0.00  0.00    +0.253 C 
ENDBRANCH  19  24
TORSDOF 2
ENDMDL
