MODEL 1
REMARK VINA RESULT:     -13.7      0.000      0.000
REMARK  Name = 24779724
REMARK  3 active torsions:
REMARK  status: ('A' for Active; 'I' for Inactive)
REMARK    1  A    between atoms: C_5  and  C_12
REMARK    2  A    between atoms: C_7  and  S_16
REMARK    3  A    between atoms: S_16  and  C_19
REMARK                            x       y       z     vdW  Elec       q    Type
REMARK                         _______ _______ _______ _____ _____    ______ ____
ROOT
ATOM      1  N   UNL     1      34.058 -21.340 -18.562  0.00  0.00    -0.186 N 
ATOM      2  N   UNL     1      35.096 -21.675 -17.756  0.00  0.00    -0.162 NA
ATOM      3  N   UNL     1      32.036 -21.168 -19.401  0.00  0.00    -0.126 NA
ATOM      4  N   UNL     1      32.906 -20.465 -20.209  0.00  0.00    -0.120 NA
ATOM      5  C   UNL     1      34.753 -22.408 -16.734  0.00  0.00    +0.104 C 
ATOM      6  C   UNL     1      32.736 -21.690 -18.416  0.00  0.00    +0.187 A 
ATOM      7  C   UNL     1      34.110 -20.580 -19.694  0.00  0.00    +0.217 A 
ATOM      8  C   UNL     1      33.357 -22.878 -16.458  0.00  0.00    +0.024 C 
ATOM      9  C   UNL     1      32.398 -22.497 -17.312  0.00  0.00    +0.042 C 
ENDROOT
BRANCH   5  12
ATOM     10  N   UNL     1      36.871 -23.872 -14.173  0.00  0.00    -0.208 N 
ATOM     11  N   UNL     1      37.774 -22.987 -14.630  0.00  0.00    -0.176 NA
ATOM     12  C   UNL     1      35.801 -22.836 -15.772  0.00  0.00    +0.056 C 
ATOM     13  C   UNL     1      35.673 -23.821 -14.824  0.00  0.00    +0.087 C 
ATOM     14  C   UNL     1      37.115 -22.358 -15.606  0.00  0.00    +0.121 C 
ATOM     15  C   UNL     1      37.220 -24.758 -13.089  0.00  0.00    +0.140 C 
ENDBRANCH   5  12
BRANCH   7  16
ATOM     16  S   UNL     1      35.617 -19.868 -20.336  0.00  0.00    -0.051 S 
BRANCH  16  19
ATOM     17  N   UNL     1      33.494 -16.375 -24.658  0.00  0.00    -0.248 NA
ATOM     18  C   UNL     1      34.432 -16.599 -22.450  0.00  0.00    -0.003 C 
ATOM     19  C   UNL     1      34.984 -18.813 -21.624  0.00  0.00    +0.011 C 
ATOM     20  C   UNL     1      33.978 -17.147 -23.668  0.00  0.00    +0.060 C 
ATOM     21  C   UNL     1      34.932 -17.435 -21.438  0.00  0.00    +0.060 C 
ATOM     22  C   UNL     1      34.538 -19.360 -22.820  0.00  0.00    -0.017 C 
ATOM     23  C   UNL     1      34.041 -18.529 -23.827  0.00  0.00    +0.072 C 
ATOM     24  C   UNL     1      34.369 -15.208 -22.290  0.00  0.00    -0.001 C 
ATOM     25  C   UNL     1      33.870 -14.409 -23.308  0.00  0.00    +0.020 C 
ATOM     26  C   UNL     1      33.449 -15.038 -24.463  0.00  0.00    +0.098 C 
ENDBRANCH  16  19
ENDBRANCH   7  16
TORSDOF 3
ENDMDL
MODEL 2
REMARK VINA RESULT:     -12.6      0.936      1.603
REMARK  Name = 24779724
REMARK  3 active torsions:
REMARK  status: ('A' for Active; 'I' for Inactive)
REMARK    1  A    between atoms: C_5  and  C_12
REMARK    2  A    between atoms: C_7  and  S_16
REMARK    3  A    between atoms: S_16  and  C_19
REMARK                            x       y       z     vdW  Elec       q    Type
REMARK                         _______ _______ _______ _____ _____    ______ ____
ROOT
ATOM      1  N   UNL     1      33.976 -21.748 -18.126  0.00  0.00    -0.186 N 
ATOM      2  N   UNL     1      34.987 -22.140 -17.312  0.00  0.00    -0.162 NA
ATOM      3  N   UNL     1      31.967 -21.400 -18.945  0.00  0.00    -0.126 NA
ATOM      4  N   UNL     1      32.895 -20.876 -19.822  0.00  0.00    -0.120 NA
ATOM      5  C   UNL     1      34.585 -22.741 -16.227  0.00  0.00    +0.104 C 
ATOM      6  C   UNL     1      32.626 -21.921 -17.931  0.00  0.00    +0.187 A 
ATOM      7  C   UNL     1      34.089 -21.094 -19.319  0.00  0.00    +0.217 A 
ATOM      8  C   UNL     1      33.150 -23.014 -15.891  0.00  0.00    +0.024 C 
ATOM      9  C   UNL     1      32.222 -22.590 -16.758  0.00  0.00    +0.042 C 
ENDROOT
BRANCH   5  12
ATOM     10  N   UNL     1      36.775 -24.469 -13.902  0.00  0.00    -0.208 N 
ATOM     11  N   UNL     1      37.352 -23.261 -13.785  0.00  0.00    -0.176 NA
ATOM     12  C   UNL     1      35.598 -23.214 -15.249  0.00  0.00    +0.056 C 
ATOM     13  C   UNL     1      35.719 -24.494 -14.767  0.00  0.00    +0.087 C 
ATOM     14  C   UNL     1      36.630 -22.498 -14.610  0.00  0.00    +0.121 C 
ATOM     15  C   UNL     1      37.288 -25.585 -13.145  0.00  0.00    +0.140 C 
ENDBRANCH   5  12
BRANCH   7  16
ATOM     16  S   UNL     1      35.653 -20.624 -20.042  0.00  0.00    -0.051 S 
BRANCH  16  19
ATOM     17  N   UNL     1      34.071 -15.917 -23.318  0.00  0.00    -0.248 NA
ATOM     18  C   UNL     1      34.127 -18.308 -23.019  0.00  0.00    -0.003 C 
ATOM     19  C   UNL     1      35.174 -19.222 -21.030  0.00  0.00    +0.011 C 
ATOM     20  C   UNL     1      34.420 -16.996 -22.591  0.00  0.00    +0.060 C 
ATOM     21  C   UNL     1      34.506 -19.410 -22.236  0.00  0.00    +0.060 C 
ATOM     22  C   UNL     1      35.466 -17.933 -20.603  0.00  0.00    -0.017 C 
ATOM     23  C   UNL     1      35.089 -16.836 -21.381  0.00  0.00    +0.072 C 
ATOM     24  C   UNL     1      33.454 -18.468 -24.237  0.00  0.00    -0.001 C 
ATOM     25  C   UNL     1      33.093 -17.359 -24.988  0.00  0.00    +0.020 C 
ATOM     26  C   UNL     1      33.423 -16.116 -24.487  0.00  0.00    +0.098 C 
ENDBRANCH  16  19
ENDBRANCH   7  16
TORSDOF 3
ENDMDL
MODEL 3
REMARK VINA RESULT:     -11.6      2.709      4.060
REMARK  Name = 24779724
REMARK  3 active torsions:
REMARK  status: ('A' for Active; 'I' for Inactive)
REMARK    1  A    between atoms: C_5  and  C_12
REMARK    2  A    between atoms: C_7  and  S_16
REMARK    3  A    between atoms: S_16  and  C_19
REMARK                            x       y       z     vdW  Elec       q    Type
REMARK                         _______ _______ _______ _____ _____    ______ ____
ROOT
ATOM      1  N   UNL     1      33.457 -23.326 -15.806  0.00  0.00    -0.186 N 
ATOM      2  N   UNL     1      34.609 -24.040 -15.817  0.00  0.00    -0.162 NA
ATOM      3  N   UNL     1      31.719 -22.175 -15.114  0.00  0.00    -0.126 NA
ATOM      4  N   UNL     1      31.660 -22.274 -16.489  0.00  0.00    -0.120 NA
ATOM      5  C   UNL     1      35.121 -24.231 -14.633  0.00  0.00    +0.104 C 
ATOM      6  C   UNL     1      32.801 -22.809 -14.714  0.00  0.00    +0.187 A 
ATOM      7  C   UNL     1      32.704 -22.965 -16.886  0.00  0.00    +0.217 A 
ATOM      8  C   UNL     1      34.507 -23.743 -13.355  0.00  0.00    +0.024 C 
ATOM      9  C   UNL     1      33.367 -23.046 -13.446  0.00  0.00    +0.042 C 
ENDROOT
BRANCH   5  12
ATOM     10  N   UNL     1      38.495 -25.524 -14.271  0.00  0.00    -0.208 N 
ATOM     11  N   UNL     1      37.890 -26.716 -14.414  0.00  0.00    -0.176 NA
ATOM     12  C   UNL     1      36.388 -24.997 -14.512  0.00  0.00    +0.056 C 
ATOM     13  C   UNL     1      37.639 -24.463 -14.323  0.00  0.00    +0.087 C 
ATOM     14  C   UNL     1      36.603 -26.388 -14.560  0.00  0.00    +0.121 C 
ATOM     15  C   UNL     1      39.925 -25.464 -14.085  0.00  0.00    +0.140 C 
ENDBRANCH   5  12
BRANCH   7  16
ATOM     16  S   UNL     1      33.124 -23.394 -18.568  0.00  0.00    -0.051 S 
BRANCH  16  19
ATOM     17  N   UNL     1      36.363 -18.675 -20.187  0.00  0.00    -0.248 NA
ATOM     18  C   UNL     1      34.384 -20.021 -20.464  0.00  0.00    -0.003 C 
ATOM     19  C   UNL     1      34.085 -21.978 -19.060  0.00  0.00    +0.011 C 
ATOM     20  C   UNL     1      35.614 -19.737 -19.836  0.00  0.00    +0.060 C 
ATOM     21  C   UNL     1      33.629 -21.139 -20.072  0.00  0.00    +0.060 C 
ATOM     22  C   UNL     1      35.296 -21.704 -18.437  0.00  0.00    -0.017 C 
ATOM     23  C   UNL     1      36.047 -20.593 -18.827  0.00  0.00    +0.072 C 
ATOM     24  C   UNL     1      33.948 -19.160 -21.480  0.00  0.00    -0.001 C 
ATOM     25  C   UNL     1      34.717 -18.064 -21.844  0.00  0.00    +0.020 C 
ATOM     26  C   UNL     1      35.906 -17.868 -21.172  0.00  0.00    +0.098 C 
ENDBRANCH  16  19
ENDBRANCH   7  16
TORSDOF 3
ENDMDL
MODEL 4
REMARK VINA RESULT:     -11.6      5.794     12.186
REMARK  Name = 24779724
REMARK  3 active torsions:
REMARK  status: ('A' for Active; 'I' for Inactive)
REMARK    1  A    between atoms: C_5  and  C_12
REMARK    2  A    between atoms: C_7  and  S_16
REMARK    3  A    between atoms: S_16  and  C_19
REMARK                            x       y       z     vdW  Elec       q    Type
REMARK                         _______ _______ _______ _____ _____    ______ ____
ROOT
ATOM      1  N   UNL     1      32.028 -11.107 -22.105  0.00  0.00    -0.186 N 
ATOM      2  N   UNL     1      32.091  -9.995 -22.879  0.00  0.00    -0.162 NA
ATOM      3  N   UNL     1      31.614 -12.465 -20.429  0.00  0.00    -0.126 NA
ATOM      4  N   UNL     1      32.250 -13.179 -21.425  0.00  0.00    -0.120 NA
ATOM      5  C   UNL     1      31.559  -8.941 -22.328  0.00  0.00    +0.104 C 
ATOM      6  C   UNL     1      31.485 -11.224 -20.847  0.00  0.00    +0.187 A 
ATOM      7  C   UNL     1      32.492 -12.352 -22.417  0.00  0.00    +0.217 A 
ATOM      8  C   UNL     1      30.948  -8.915 -20.959  0.00  0.00    +0.024 C 
ATOM      9  C   UNL     1      30.933 -10.063 -20.270  0.00  0.00    +0.042 C 
ENDROOT
BRANCH   5  12
ATOM     10  N   UNL     1      32.182  -5.774 -23.993  0.00  0.00    -0.208 N 
ATOM     11  N   UNL     1      30.885  -5.871 -24.331  0.00  0.00    -0.176 NA
ATOM     12  C   UNL     1      31.560  -7.659 -23.079  0.00  0.00    +0.056 C 
ATOM     13  C   UNL     1      32.635  -6.820 -23.242  0.00  0.00    +0.087 C 
ATOM     14  C   UNL     1      30.511  -7.024 -23.771  0.00  0.00    +0.121 C 
ATOM     15  C   UNL     1      32.953  -4.633 -24.426  0.00  0.00    +0.140 C 
ENDBRANCH   5  12
BRANCH   7  16
ATOM     16  S   UNL     1      33.297 -12.746 -23.962  0.00  0.00    -0.051 S 
BRANCH  16  19
ATOM     17  N   UNL     1      34.276 -18.581 -23.343  0.00  0.00    -0.248 NA
ATOM     18  C   UNL     1      34.408 -16.352 -22.438  0.00  0.00    -0.003 C 
ATOM     19  C   UNL     1      33.594 -14.491 -23.766  0.00  0.00    +0.011 C 
ATOM     20  C   UNL     1      34.063 -17.257 -23.463  0.00  0.00    +0.060 C 
ATOM     21  C   UNL     1      34.171 -14.976 -22.596  0.00  0.00    +0.060 C 
ATOM     22  C   UNL     1      33.252 -15.377 -24.780  0.00  0.00    -0.017 C 
ATOM     23  C   UNL     1      33.487 -16.744 -24.622  0.00  0.00    +0.072 C 
ATOM     24  C   UNL     1      34.987 -16.868 -21.271  0.00  0.00    -0.001 C 
ATOM     25  C   UNL     1      35.208 -18.232 -21.144  0.00  0.00    +0.020 C 
ATOM     26  C   UNL     1      34.837 -19.038 -22.201  0.00  0.00    +0.098 C 
ENDBRANCH  16  19
ENDBRANCH   7  16
TORSDOF 3
ENDMDL
MODEL 5
REMARK VINA RESULT:     -11.6      2.371      9.344
REMARK  Name = 24779724
REMARK  3 active torsions:
REMARK  status: ('A' for Active; 'I' for Inactive)
REMARK    1  A    between atoms: C_5  and  C_12
REMARK    2  A    between atoms: C_7  and  S_16
REMARK    3  A    between atoms: S_16  and  C_19
REMARK                            x       y       z     vdW  Elec       q    Type
REMARK                         _______ _______ _______ _____ _____    ______ ____
ROOT
ATOM      1  N   UNL     1      34.699 -19.666 -20.490  0.00  0.00    -0.186 N 
ATOM      2  N   UNL     1      34.002 -19.033 -21.466  0.00  0.00    -0.162 NA
ATOM      3  N   UNL     1      36.336 -20.312 -19.175  0.00  0.00    -0.126 NA
ATOM      4  N   UNL     1      35.183 -20.969 -18.796  0.00  0.00    -0.120 NA
ATOM      5  C   UNL     1      34.720 -18.208 -22.175  0.00  0.00    +0.104 C 
ATOM      6  C   UNL     1      36.035 -19.532 -20.192  0.00  0.00    +0.187 A 
ATOM      7  C   UNL     1      34.216 -20.573 -19.592  0.00  0.00    +0.217 A 
ATOM      8  C   UNL     1      36.187 -17.974 -21.976  0.00  0.00    +0.024 C 
ATOM      9  C   UNL     1      36.790 -18.647 -20.987  0.00  0.00    +0.042 C 
ENDROOT
BRANCH   5  12
ATOM     10  N   UNL     1      33.393 -15.833 -24.580  0.00  0.00    -0.208 N 
ATOM     11  N   UNL     1      32.851 -16.931 -25.135  0.00  0.00    -0.176 NA
ATOM     12  C   UNL     1      34.069 -17.448 -23.273  0.00  0.00    +0.056 C 
ATOM     13  C   UNL     1      34.132 -16.089 -23.462  0.00  0.00    +0.087 C 
ATOM     14  C   UNL     1      33.267 -17.914 -24.333  0.00  0.00    +0.121 C 
ATOM     15  C   UNL     1      33.164 -14.539 -25.178  0.00  0.00    +0.140 C 
ENDBRANCH   5  12
BRANCH   7  16
ATOM     16  S   UNL     1      32.512 -21.107 -19.549  0.00  0.00    -0.051 S 
BRANCH  16  19
ATOM     17  N   UNL     1      32.299 -23.785 -14.242  0.00  0.00    -0.248 NA
ATOM     18  C   UNL     1      31.167 -22.612 -16.015  0.00  0.00    -0.003 C 
ATOM     19  C   UNL     1      32.437 -21.907 -17.960  0.00  0.00    +0.011 C 
ATOM     20  C   UNL     1      32.325 -23.176 -15.441  0.00  0.00    +0.060 C 
ATOM     21  C   UNL     1      31.231 -21.982 -17.270  0.00  0.00    +0.060 C 
ATOM     22  C   UNL     1      33.582 -22.459 -17.400  0.00  0.00    -0.017 C 
ATOM     23  C   UNL     1      33.519 -23.085 -16.153  0.00  0.00    +0.072 C 
ATOM     24  C   UNL     1      29.966 -22.702 -15.299  0.00  0.00    -0.001 C 
ATOM     25  C   UNL     1      29.935 -23.330 -14.063  0.00  0.00    +0.020 C 
ATOM     26  C   UNL     1      31.120 -23.851 -13.583  0.00  0.00    +0.098 C 
ENDBRANCH  16  19
ENDBRANCH   7  16
TORSDOF 3
ENDMDL
MODEL 6
REMARK VINA RESULT:     -11.5      6.651     13.175
REMARK  Name = 24779724
REMARK  3 active torsions:
REMARK  status: ('A' for Active; 'I' for Inactive)
REMARK    1  A    between atoms: C_5  and  C_12
REMARK    2  A    between atoms: C_7  and  S_16
REMARK    3  A    between atoms: S_16  and  C_19
REMARK                            x       y       z     vdW  Elec       q    Type
REMARK                         _______ _______ _______ _____ _____    ______ ____
ROOT
ATOM      1  N   UNL     1      32.007  -9.492 -22.232  0.00  0.00    -0.186 N 
ATOM      2  N   UNL     1      32.619  -8.646 -23.096  0.00  0.00    -0.162 NA
ATOM      3  N   UNL     1      30.858 -10.267 -20.527  0.00  0.00    -0.126 NA
ATOM      4  N   UNL     1      31.272 -11.334 -21.298  0.00  0.00    -0.120 NA
ATOM      5  C   UNL     1      32.497  -7.388 -22.776  0.00  0.00    +0.104 C 
ATOM      6  C   UNL     1      31.304  -9.166 -21.095  0.00  0.00    +0.187 A 
ATOM      7  C   UNL     1      31.958 -10.854 -22.311  0.00  0.00    +0.217 A 
ATOM      8  C   UNL     1      31.777  -6.888 -21.560  0.00  0.00    +0.024 C 
ATOM      9  C   UNL     1      31.204  -7.801 -20.765  0.00  0.00    +0.042 C 
ENDROOT
BRANCH   5  12
ATOM     10  N   UNL     1      34.261  -5.378 -25.233  0.00  0.00    -0.208 N 
ATOM     11  N   UNL     1      33.746  -4.350 -24.536  0.00  0.00    -0.176 NA
ATOM     12  C   UNL     1      33.120  -6.360 -23.649  0.00  0.00    +0.056 C 
ATOM     13  C   UNL     1      33.916  -6.603 -24.742  0.00  0.00    +0.087 C 
ATOM     14  C   UNL     1      33.050  -4.956 -23.571  0.00  0.00    +0.121 C 
ATOM     15  C   UNL     1      35.094  -5.119 -26.383  0.00  0.00    +0.140 C 
ENDBRANCH   5  12
BRANCH   7  16
ATOM     16  S   UNL     1      32.727 -11.793 -23.621  0.00  0.00    -0.051 S 
BRANCH  16  19
ATOM     17  N   UNL     1      34.694 -16.531 -20.608  0.00  0.00    -0.248 NA
ATOM     18  C   UNL     1      34.146 -15.498 -22.715  0.00  0.00    -0.003 C 
ATOM     19  C   UNL     1      33.318 -13.217 -22.728  0.00  0.00    +0.011 C 
ATOM     20  C   UNL     1      34.252 -15.470 -21.309  0.00  0.00    +0.060 C 
ATOM     21  C   UNL     1      33.681 -14.372 -23.414  0.00  0.00    +0.060 C 
ATOM     22  C   UNL     1      33.419 -13.182 -21.344  0.00  0.00    -0.017 C 
ATOM     23  C   UNL     1      33.882 -14.301 -20.648  0.00  0.00    +0.072 C 
ATOM     24  C   UNL     1      34.518 -16.674 -23.380  0.00  0.00    -0.001 C 
ATOM     25  C   UNL     1      34.975 -17.769 -22.661  0.00  0.00    +0.020 C 
ATOM     26  C   UNL     1      35.043 -17.646 -21.288  0.00  0.00    +0.098 C 
ENDBRANCH  16  19
ENDBRANCH   7  16
TORSDOF 3
ENDMDL
MODEL 7
REMARK VINA RESULT:     -11.3      2.587      3.683
REMARK  Name = 24779724
REMARK  3 active torsions:
REMARK  status: ('A' for Active; 'I' for Inactive)
REMARK    1  A    between atoms: C_5  and  C_12
REMARK    2  A    between atoms: C_7  and  S_16
REMARK    3  A    between atoms: S_16  and  C_19
REMARK                            x       y       z     vdW  Elec       q    Type
REMARK                         _______ _______ _______ _____ _____    ______ ____
ROOT
ATOM      1  N   UNL     1      32.454 -22.891 -15.926  0.00  0.00    -0.186 N 
ATOM      2  N   UNL     1      33.500 -23.377 -15.212  0.00  0.00    -0.162 NA
ATOM      3  N   UNL     1      30.483 -22.079 -16.454  0.00  0.00    -0.126 NA
ATOM      4  N   UNL     1      31.229 -22.203 -17.608  0.00  0.00    -0.120 NA
ATOM      5  C   UNL     1      33.272 -23.455 -13.931  0.00  0.00    +0.104 C 
ATOM      6  C   UNL     1      31.227 -22.494 -15.450  0.00  0.00    +0.187 A 
ATOM      7  C   UNL     1      32.403 -22.691 -17.275  0.00  0.00    +0.217 A 
ATOM      8  C   UNL     1      31.978 -23.075 -13.276  0.00  0.00    +0.024 C 
ATOM      9  C   UNL     1      31.002 -22.605 -14.064  0.00  0.00    +0.042 C 
ENDROOT
BRANCH   5  12
ATOM     10  N   UNL     1      36.172 -24.906 -12.296  0.00  0.00    -0.208 N 
ATOM     11  N   UNL     1      35.560 -24.484 -11.176  0.00  0.00    -0.176 NA
ATOM     12  C   UNL     1      34.343 -23.968 -13.039  0.00  0.00    +0.056 C 
ATOM     13  C   UNL     1      35.483 -24.621 -13.440  0.00  0.00    +0.087 C 
ATOM     14  C   UNL     1      34.445 -23.912 -11.636  0.00  0.00    +0.121 C 
ATOM     15  C   UNL     1      37.439 -25.590 -12.208  0.00  0.00    +0.140 C 
ENDBRANCH   5  12
BRANCH   7  16
ATOM     16  S   UNL     1      33.760 -23.054 -18.378  0.00  0.00    -0.051 S 
BRANCH  16  19
ATOM     17  N   UNL     1      34.033 -18.022 -21.538  0.00  0.00    -0.248 NA
ATOM     18  C   UNL     1      35.169 -19.809 -20.389  0.00  0.00    -0.003 C 
ATOM     19  C   UNL     1      33.853 -21.548 -19.324  0.00  0.00    +0.011 C 
ATOM     20  C   UNL     1      33.994 -19.161 -20.823  0.00  0.00    +0.060 C 
ATOM     21  C   UNL     1      35.091 -20.997 -19.644  0.00  0.00    +0.060 C 
ATOM     22  C   UNL     1      32.691 -20.915 -19.747  0.00  0.00    -0.017 C 
ATOM     23  C   UNL     1      32.769 -19.734 -20.488  0.00  0.00    +0.072 C 
ATOM     24  C   UNL     1      36.401 -19.233 -20.725  0.00  0.00    -0.001 C 
ATOM     25  C   UNL     1      36.446 -18.059 -21.463  0.00  0.00    +0.020 C 
ATOM     26  C   UNL     1      35.242 -17.498 -21.841  0.00  0.00    +0.098 C 
ENDBRANCH  16  19
ENDBRANCH   7  16
TORSDOF 3
ENDMDL
MODEL 8
REMARK VINA RESULT:     -11.3      2.111      9.301
REMARK  Name = 24779724
REMARK  3 active torsions:
REMARK  status: ('A' for Active; 'I' for Inactive)
REMARK    1  A    between atoms: C_5  and  C_12
REMARK    2  A    between atoms: C_7  and  S_16
REMARK    3  A    between atoms: S_16  and  C_19
REMARK                            x       y       z     vdW  Elec       q    Type
REMARK                         _______ _______ _______ _____ _____    ______ ____
ROOT
ATOM      1  N   UNL     1      34.700 -19.742 -20.432  0.00  0.00    -0.186 N 
ATOM      2  N   UNL     1      34.011 -19.129 -21.426  0.00  0.00    -0.162 NA
ATOM      3  N   UNL     1      36.319 -20.342 -19.074  0.00  0.00    -0.126 NA
ATOM      4  N   UNL     1      35.176 -21.031 -18.724  0.00  0.00    -0.120 NA
ATOM      5  C   UNL     1      34.725 -18.284 -22.117  0.00  0.00    +0.104 C 
ATOM      6  C   UNL     1      36.024 -19.571 -20.099  0.00  0.00    +0.187 A 
ATOM      7  C   UNL     1      34.219 -20.663 -19.546  0.00  0.00    +0.217 A 
ATOM      8  C   UNL     1      36.179 -18.010 -21.880  0.00  0.00    +0.024 C 
ATOM      9  C   UNL     1      36.774 -18.665 -20.875  0.00  0.00    +0.042 C 
ENDROOT
BRANCH   5  12
ATOM     10  N   UNL     1      33.415 -15.950 -24.571  0.00  0.00    -0.208 N 
ATOM     11  N   UNL     1      32.879 -17.058 -25.113  0.00  0.00    -0.176 NA
ATOM     12  C   UNL     1      34.082 -17.543 -23.232  0.00  0.00    +0.056 C 
ATOM     13  C   UNL     1      34.145 -16.187 -23.443  0.00  0.00    +0.087 C 
ATOM     14  C   UNL     1      33.289 -18.027 -24.291  0.00  0.00    +0.121 C 
ATOM     15  C   UNL     1      33.190 -14.667 -25.192  0.00  0.00    +0.140 C 
ENDBRANCH   5  12
BRANCH   7  16
ATOM     16  S   UNL     1      32.530 -21.243 -19.547  0.00  0.00    -0.051 S 
BRANCH  16  19
ATOM     17  N   UNL     1      32.062 -23.581 -14.097  0.00  0.00    -0.248 NA
ATOM     18  C   UNL     1      33.439 -22.982 -15.982  0.00  0.00    -0.003 C 
ATOM     19  C   UNL     1      32.401 -21.944 -17.915  0.00  0.00    +0.011 C 
ATOM     20  C   UNL     1      32.190 -23.055 -15.329  0.00  0.00    +0.060 C 
ATOM     21  C   UNL     1      33.535 -22.428 -17.269  0.00  0.00    +0.060 C 
ATOM     22  C   UNL     1      31.169 -22.013 -17.279  0.00  0.00    -0.017 C 
ATOM     23  C   UNL     1      31.072 -22.565 -15.999  0.00  0.00    +0.072 C 
ATOM     24  C   UNL     1      34.564 -23.476 -15.308  0.00  0.00    -0.001 C 
ATOM     25  C   UNL     1      34.436 -24.018 -14.038  0.00  0.00    +0.020 C 
ATOM     26  C   UNL     1      33.173 -24.046 -13.481  0.00  0.00    +0.098 C 
ENDBRANCH  16  19
ENDBRANCH   7  16
TORSDOF 3
ENDMDL
MODEL 9
REMARK VINA RESULT:     -11.3      3.259      6.145
REMARK  Name = 24779724
REMARK  3 active torsions:
REMARK  status: ('A' for Active; 'I' for Inactive)
REMARK    1  A    between atoms: C_5  and  C_12
REMARK    2  A    between atoms: C_7  and  S_16
REMARK    3  A    between atoms: S_16  and  C_19
REMARK                            x       y       z     vdW  Elec       q    Type
REMARK                         _______ _______ _______ _____ _____    ______ ____
ROOT
ATOM      1  N   UNL     1      34.266 -17.157 -22.171  0.00  0.00    -0.186 N 
ATOM      2  N   UNL     1      34.305 -17.939 -21.064  0.00  0.00    -0.162 NA
ATOM      3  N   UNL     1      34.273 -16.502 -24.268  0.00  0.00    -0.126 NA
ATOM      4  N   UNL     1      34.126 -15.391 -23.462  0.00  0.00    -0.120 NA
ATOM      5  C   UNL     1      34.439 -19.209 -21.322  0.00  0.00    +0.104 C 
ATOM      6  C   UNL     1      34.356 -17.556 -23.484  0.00  0.00    +0.187 A 
ATOM      7  C   UNL     1      34.125 -15.800 -22.214  0.00  0.00    +0.217 A 
ATOM      8  C   UNL     1      34.568 -19.786 -22.700  0.00  0.00    +0.024 C 
ATOM      9  C   UNL     1      34.519 -18.934 -23.732  0.00  0.00    +0.042 C 
ENDROOT
BRANCH   5  12
ATOM     10  N   UNL     1      33.920 -21.560 -18.604  0.00  0.00    -0.208 N 
ATOM     11  N   UNL     1      35.262 -21.540 -18.534  0.00  0.00    -0.176 NA
ATOM     12  C   UNL     1      34.490 -20.172 -20.192  0.00  0.00    +0.056 C 
ATOM     13  C   UNL     1      33.408 -20.756 -19.580  0.00  0.00    +0.087 C 
ATOM     14  C   UNL     1      35.604 -20.692 -19.506  0.00  0.00    +0.121 C 
ATOM     15  C   UNL     1      33.166 -22.384 -17.690  0.00  0.00    +0.140 C 
ENDBRANCH   5  12
BRANCH   7  16
ATOM     16  S   UNL     1      33.965 -14.779 -20.757  0.00  0.00    -0.051 S 
BRANCH  16  19
ATOM     17  N   UNL     1      31.776  -9.774 -23.112  0.00  0.00    -0.248 NA
ATOM     18  C   UNL     1      31.812 -11.370 -21.307  0.00  0.00    -0.003 C 
ATOM     19  C   UNL     1      33.304 -13.279 -21.453  0.00  0.00    +0.011 C 
ATOM     20  C   UNL     1      32.259 -10.903 -22.561  0.00  0.00    +0.060 C 
ATOM     21  C   UNL     1      32.338 -12.553 -20.762  0.00  0.00    +0.060 C 
ATOM     22  C   UNL     1      33.747 -12.826 -22.688  0.00  0.00    -0.017 C 
ATOM     23  C   UNL     1      33.225 -11.649 -23.231  0.00  0.00    +0.072 C 
ATOM     24  C   UNL     1      30.839 -10.619 -20.633  0.00  0.00    -0.001 C 
ATOM     25  C   UNL     1      30.340  -9.455 -21.198  0.00  0.00    +0.020 C 
ATOM     26  C   UNL     1      30.838  -9.079 -22.429  0.00  0.00    +0.098 C 
ENDBRANCH  16  19
ENDBRANCH   7  16
TORSDOF 3
ENDMDL
