MODEL 1
REMARK VINA RESULT:     -11.0      0.000      0.000
REMARK  Name = 6762
REMARK  8 active torsions:
REMARK  status: ('A' for Active; 'I' for Inactive)
REMARK    1  A    between atoms: C_1  and  C_2
REMARK    2  A    between atoms: C_1  and  C_17
REMARK    3  A    between atoms: C_2  and  N_3
REMARK    4  A    between atoms: N_4  and  C_11
REMARK    5  A    between atoms: C_11  and  C_12
REMARK    6  A    between atoms: C_12  and  O_13
REMARK    7  A    between atoms: O_13  and  C_15
REMARK    8  A    between atoms: C_17  and  N_20
REMARK                            x       y       z     vdW  Elec       q    Type
REMARK                         _______ _______ _______ _____ _____    ______ ____
ROOT
ATOM      1  C   UNL     1      33.494 -21.653 -18.320  0.00  0.00    -0.001 C 
ENDROOT
BRANCH   1   2
ATOM      2  C   UNL     1      34.919 -21.499 -18.860  0.00  0.00    -0.076 C 
BRANCH   2   3
ATOM      3  N   UNL     1      34.962 -20.662 -20.057  0.00  0.00    +0.384 N 
ATOM      4  N   UNL     1      34.756 -18.130 -21.438  0.00  0.00    +0.387 N 
ATOM      5  C   UNL     1      36.013 -19.644 -19.944  0.00  0.00    -0.101 C 
ATOM      6  C   UNL     1      33.659 -20.030 -20.299  0.00  0.00    -0.101 C 
ATOM      7  C   UNL     1      36.058 -18.763 -21.198  0.00  0.00    -0.101 C 
ATOM      8  C   UNL     1      33.705 -19.149 -21.552  0.00  0.00    -0.101 C 
ATOM      9  H   UNL     1      35.181 -21.263 -20.853  0.00  0.00    -0.080 HD
ATOM     10  H   UNL     1      34.539 -17.532 -20.641  0.00  0.00    -0.080 HD
BRANCH   4  11
ATOM     11  C   UNL     1      34.800 -17.292 -22.635  0.00  0.00    -0.029 C 
BRANCH  11  12
ATOM     12  C   UNL     1      34.435 -15.856 -22.297  0.00  0.00    +0.186 C 
BRANCH  12  13
ATOM     13  O   UNL     1      34.704 -15.038 -23.428  0.00  0.00    -0.451 OA
BRANCH  13  15
ATOM     14  O   UNL     1      33.334 -15.400 -25.254  0.00  0.00    -0.250 OA
ATOM     15  C   UNL     1      33.636 -14.780 -24.244  0.00  0.00    +0.317 C 
ATOM     16  C   UNL     1      32.867 -13.605 -23.720  0.00  0.00    +0.121 C 
ENDBRANCH  13  15
ENDBRANCH  12  13
ENDBRANCH  11  12
ENDBRANCH   4  11
ENDBRANCH   2   3
ENDBRANCH   1   2
BRANCH   1  17
ATOM     17  C   UNL     1      33.167 -23.044 -17.776  0.00  0.00    +0.093 C 
BRANCH  17  20
ATOM     18 CL   UNL     1      38.073 -22.387 -15.815  0.00  0.00    -0.082 Cl
ATOM     19  S   UNL     1      32.451 -23.800 -13.362  0.00  0.00    -0.084 S 
ATOM     20  N   UNL     1      32.956 -22.996 -16.323  0.00  0.00    -0.286 N 
ATOM     21  C   UNL     1      34.105 -23.043 -15.495  0.00  0.00    +0.058 C 
ATOM     22  C   UNL     1      31.624 -22.840 -15.862  0.00  0.00    +0.058 C 
ATOM     23  C   UNL     1      34.002 -23.370 -14.128  0.00  0.00    +0.043 C 
ATOM     24  C   UNL     1      31.275 -23.148 -14.532  0.00  0.00    +0.043 C 
ATOM     25  C   UNL     1      35.392 -22.730 -15.983  0.00  0.00    +0.027 C 
ATOM     26  C   UNL     1      30.598 -22.338 -16.693  0.00  0.00    +0.015 C 
ATOM     27  C   UNL     1      35.145 -23.407 -13.309  0.00  0.00    +0.009 C 
ATOM     28  C   UNL     1      29.955 -22.984 -14.078  0.00  0.00    +0.008 C 
ATOM     29  C   UNL     1      36.524 -22.763 -15.163  0.00  0.00    +0.059 C 
ATOM     30  C   UNL     1      29.289 -22.172 -16.235  0.00  0.00    +0.001 C 
ATOM     31  C   UNL     1      36.400 -23.104 -13.825  0.00  0.00    +0.012 C 
ATOM     32  C   UNL     1      28.966 -22.497 -14.926  0.00  0.00    +0.001 C 
ENDBRANCH  17  20
ENDBRANCH   1  17
TORSDOF 8
ENDMDL
MODEL 2
REMARK VINA RESULT:     -10.7      2.275      4.678
REMARK  Name = 6762
REMARK  8 active torsions:
REMARK  status: ('A' for Active; 'I' for Inactive)
REMARK    1  A    between atoms: C_1  and  C_2
REMARK    2  A    between atoms: C_1  and  C_17
REMARK    3  A    between atoms: C_2  and  N_3
REMARK    4  A    between atoms: N_4  and  C_11
REMARK    5  A    between atoms: C_11  and  C_12
REMARK    6  A    between atoms: C_12  and  O_13
REMARK    7  A    between atoms: O_13  and  C_15
REMARK    8  A    between atoms: C_17  and  N_20
REMARK                            x       y       z     vdW  Elec       q    Type
REMARK                         _______ _______ _______ _____ _____    ______ ____
ROOT
ATOM      1  C   UNL     1      36.187 -21.994 -17.130  0.00  0.00    -0.001 C 
ENDROOT
BRANCH   1   2
ATOM      2  C   UNL     1      34.841 -21.978 -17.861  0.00  0.00    -0.076 C 
BRANCH   2   3
ATOM      3  N   UNL     1      34.706 -20.815 -18.733  0.00  0.00    +0.384 N 
ATOM      4  N   UNL     1      34.583 -19.541 -21.327  0.00  0.00    +0.387 N 
ATOM      5  C   UNL     1      33.520 -20.939 -19.589  0.00  0.00    -0.101 C 
ATOM      6  C   UNL     1      35.912 -20.634 -19.552  0.00  0.00    -0.101 C 
ATOM      7  C   UNL     1      33.379 -19.720 -20.508  0.00  0.00    -0.101 C 
ATOM      8  C   UNL     1      35.770 -19.417 -20.472  0.00  0.00    -0.101 C 
ATOM      9  H   UNL     1      34.592 -19.990 -18.143  0.00  0.00    -0.080 HD
ATOM     10  H   UNL     1      34.696 -20.367 -21.915  0.00  0.00    -0.080 HD
BRANCH   4  11
ATOM     11  C   UNL     1      34.448 -18.378 -22.201  0.00  0.00    -0.029 C 
BRANCH  11  12
ATOM     12  C   UNL     1      35.076 -17.150 -21.562  0.00  0.00    +0.186 C 
BRANCH  12  13
ATOM     13  O   UNL     1      34.820 -16.023 -22.389  0.00  0.00    -0.451 OA
BRANCH  13  15
ATOM     14  O   UNL     1      34.072 -14.790 -20.583  0.00  0.00    -0.250 OA
ATOM     15  C   UNL     1      34.172 -14.978 -21.788  0.00  0.00    +0.317 C 
ATOM     16  C   UNL     1      33.586 -14.075 -22.831  0.00  0.00    +0.121 C 
ENDBRANCH  13  15
ENDBRANCH  12  13
ENDBRANCH  11  12
ENDBRANCH   4  11
ENDBRANCH   2   3
ENDBRANCH   1   2
BRANCH   1  17
ATOM     17  C   UNL     1      36.123 -21.547 -15.670  0.00  0.00    +0.093 C 
BRANCH  17  20
ATOM     18 CL   UNL     1      30.859 -22.319 -15.461  0.00  0.00    -0.082 Cl
ATOM     19  S   UNL     1      35.810 -24.517 -12.257  0.00  0.00    -0.084 S 
ATOM     20  N   UNL     1      35.977 -22.706 -14.778  0.00  0.00    -0.286 N 
ATOM     21  C   UNL     1      34.669 -23.035 -14.343  0.00  0.00    +0.058 C 
ATOM     22  C   UNL     1      37.148 -23.446 -14.474  0.00  0.00    +0.058 C 
ATOM     23  C   UNL     1      34.463 -23.869 -13.227  0.00  0.00    +0.043 C 
ATOM     24  C   UNL     1      37.188 -24.320 -13.370  0.00  0.00    +0.043 C 
ATOM     25  C   UNL     1      33.519 -22.580 -15.024  0.00  0.00    +0.027 C 
ATOM     26  C   UNL     1      38.309 -23.373 -15.276  0.00  0.00    +0.015 C 
ATOM     27  C   UNL     1      33.162 -24.199 -12.805  0.00  0.00    +0.009 C 
ATOM     28  C   UNL     1      38.349 -25.058 -13.077  0.00  0.00    +0.008 C 
ATOM     29  C   UNL     1      32.228 -22.915 -14.603  0.00  0.00    +0.059 C 
ATOM     30  C   UNL     1      39.458 -24.113 -14.983  0.00  0.00    +0.001 C 
ATOM     31  C   UNL     1      32.050 -23.724 -13.491  0.00  0.00    +0.012 C 
ATOM     32  C   UNL     1      39.478 -24.954 -13.881  0.00  0.00    +0.001 C 
ENDBRANCH  17  20
ENDBRANCH   1  17
TORSDOF 8
ENDMDL
MODEL 3
REMARK VINA RESULT:     -10.0      7.430     13.661
REMARK  Name = 6762
REMARK  8 active torsions:
REMARK  status: ('A' for Active; 'I' for Inactive)
REMARK    1  A    between atoms: C_1  and  C_2
REMARK    2  A    between atoms: C_1  and  C_17
REMARK    3  A    between atoms: C_2  and  N_3
REMARK    4  A    between atoms: N_4  and  C_11
REMARK    5  A    between atoms: C_11  and  C_12
REMARK    6  A    between atoms: C_12  and  O_13
REMARK    7  A    between atoms: O_13  and  C_15
REMARK    8  A    between atoms: C_17  and  N_20
REMARK                            x       y       z     vdW  Elec       q    Type
REMARK                         _______ _______ _______ _____ _____    ______ ____
ROOT
ATOM      1  C   UNL     1      33.209 -10.577 -23.326  0.00  0.00    -0.001 C 
ENDROOT
BRANCH   1   2
ATOM      2  C   UNL     1      32.992 -11.985 -23.889  0.00  0.00    -0.076 C 
BRANCH   2   3
ATOM      3  N   UNL     1      33.718 -12.997 -23.126  0.00  0.00    +0.384 N 
ATOM      4  N   UNL     1      33.912 -15.526 -21.736  0.00  0.00    +0.387 N 
ATOM      5  C   UNL     1      33.765 -14.269 -23.858  0.00  0.00    -0.101 C 
ATOM      6  C   UNL     1      33.108 -13.190 -21.804  0.00  0.00    -0.101 C 
ATOM      7  C   UNL     1      34.522 -15.333 -23.057  0.00  0.00    -0.101 C 
ATOM      8  C   UNL     1      33.865 -14.255 -21.003  0.00  0.00    -0.101 C 
ATOM      9  H   UNL     1      34.674 -12.667 -22.994  0.00  0.00    -0.080 HD
ATOM     10  H   UNL     1      32.956 -15.855 -21.870  0.00  0.00    -0.080 HD
BRANCH   4  11
ATOM     11  C   UNL     1      34.636 -16.540 -20.972  0.00  0.00    -0.029 C 
BRANCH  11  12
ATOM     12  C   UNL     1      35.306 -17.536 -21.904  0.00  0.00    +0.186 C 
BRANCH  12  13
ATOM     13  O   UNL     1      34.581 -18.759 -21.862  0.00  0.00    -0.451 OA
BRANCH  13  15
ATOM     14  O   UNL     1      35.732 -19.668 -20.076  0.00  0.00    -0.250 OA
ATOM     15  C   UNL     1      34.700 -19.482 -20.707  0.00  0.00    +0.317 C 
ATOM     16  C   UNL     1      33.363 -20.029 -20.309  0.00  0.00    +0.121 C 
ENDBRANCH  13  15
ENDBRANCH  12  13
ENDBRANCH  11  12
ENDBRANCH   4  11
ENDBRANCH   2   3
ENDBRANCH   1   2
BRANCH   1  17
ATOM     17  C   UNL     1      32.259  -9.517 -23.882  0.00  0.00    +0.093 C 
BRANCH  17  20
ATOM     18 CL   UNL     1      32.457  -5.196 -26.985  0.00  0.00    -0.082 Cl
ATOM     19  S   UNL     1      32.688  -6.234 -20.782  0.00  0.00    -0.084 S 
ATOM     20  N   UNL     1      32.114  -8.403 -22.935  0.00  0.00    -0.286 N 
ATOM     21  C   UNL     1      32.342  -7.094 -23.427  0.00  0.00    +0.058 C 
ATOM     22  C   UNL     1      31.692  -8.717 -21.618  0.00  0.00    +0.058 C 
ATOM     23  C   UNL     1      32.589  -6.020 -22.549  0.00  0.00    +0.043 C 
ATOM     24  C   UNL     1      31.875  -7.805 -20.560  0.00  0.00    +0.043 C 
ATOM     25  C   UNL     1      32.297  -6.795 -24.806  0.00  0.00    +0.027 C 
ATOM     26  C   UNL     1      31.040  -9.932 -21.311  0.00  0.00    +0.015 C 
ATOM     27  C   UNL     1      32.806  -4.721 -23.043  0.00  0.00    +0.009 C 
ATOM     28  C   UNL     1      31.447  -8.118 -19.258  0.00  0.00    +0.008 C 
ATOM     29  C   UNL     1      32.508  -5.501 -25.292  0.00  0.00    +0.059 C 
ATOM     30  C   UNL     1      30.613 -10.236 -20.016  0.00  0.00    +0.001 C 
ATOM     31  C   UNL     1      32.766  -4.464 -24.408  0.00  0.00    +0.012 C 
ATOM     32  C   UNL     1      30.819  -9.328 -18.988  0.00  0.00    +0.001 C 
ENDBRANCH  17  20
ENDBRANCH   1  17
TORSDOF 8
ENDMDL
MODEL 4
REMARK VINA RESULT:      -9.9      2.211      4.149
REMARK  Name = 6762
REMARK  8 active torsions:
REMARK  status: ('A' for Active; 'I' for Inactive)
REMARK    1  A    between atoms: C_1  and  C_2
REMARK    2  A    between atoms: C_1  and  C_17
REMARK    3  A    between atoms: C_2  and  N_3
REMARK    4  A    between atoms: N_4  and  C_11
REMARK    5  A    between atoms: C_11  and  C_12
REMARK    6  A    between atoms: C_12  and  O_13
REMARK    7  A    between atoms: O_13  and  C_15
REMARK    8  A    between atoms: C_17  and  N_20
REMARK                            x       y       z     vdW  Elec       q    Type
REMARK                         _______ _______ _______ _____ _____    ______ ____
ROOT
ATOM      1  C   UNL     1      33.976 -22.272 -17.103  0.00  0.00    -0.001 C 
ENDROOT
BRANCH   1   2
ATOM      2  C   UNL     1      33.107 -22.112 -18.354  0.00  0.00    -0.076 C 
BRANCH   2   3
ATOM      3  N   UNL     1      33.805 -21.395 -19.417  0.00  0.00    +0.384 N 
ATOM      4  N   UNL     1      35.068 -19.049 -20.542  0.00  0.00    +0.387 N 
ATOM      5  C   UNL     1      35.129 -20.950 -18.964  0.00  0.00    -0.101 C 
ATOM      6  C   UNL     1      33.011 -20.251 -19.883  0.00  0.00    -0.101 C 
ATOM      7  C   UNL     1      35.861 -20.194 -20.078  0.00  0.00    -0.101 C 
ATOM      8  C   UNL     1      33.744 -19.494 -20.995  0.00  0.00    -0.101 C 
ATOM      9  H   UNL     1      33.932 -22.037 -20.200  0.00  0.00    -0.080 HD
ATOM     10  H   UNL     1      34.941 -18.409 -19.758  0.00  0.00    -0.080 HD
BRANCH   4  11
ATOM     11  C   UNL     1      35.767 -18.330 -21.605  0.00  0.00    -0.029 C 
BRANCH  11  12
ATOM     12  C   UNL     1      35.014 -17.065 -21.981  0.00  0.00    +0.186 C 
BRANCH  12  13
ATOM     13  O   UNL     1      34.674 -17.129 -23.360  0.00  0.00    -0.451 OA
BRANCH  13  15
ATOM     14  O   UNL     1      33.996 -15.780 -25.110  0.00  0.00    -0.250 OA
ATOM     15  C   UNL     1      34.287 -15.948 -23.933  0.00  0.00    +0.317 C 
ATOM     16  C   UNL     1      34.268 -14.862 -22.901  0.00  0.00    +0.121 C 
ENDBRANCH  13  15
ENDBRANCH  12  13
ENDBRANCH  11  12
ENDBRANCH   4  11
ENDBRANCH   2   3
ENDBRANCH   1   2
BRANCH   1  17
ATOM     17  C   UNL     1      34.195 -23.719 -16.661  0.00  0.00    +0.093 C 
BRANCH  17  20
ATOM     18 CL   UNL     1      28.967 -22.867 -16.129  0.00  0.00    -0.082 Cl
ATOM     19  S   UNL     1      33.830 -23.316 -12.159  0.00  0.00    -0.084 S 
ATOM     20  N   UNL     1      33.966 -23.861 -15.217  0.00  0.00    -0.286 N 
ATOM     21  C   UNL     1      32.697 -23.478 -14.716  0.00  0.00    +0.058 C 
ATOM     22  C   UNL     1      35.009 -24.431 -14.444  0.00  0.00    +0.058 C 
ATOM     23  C   UNL     1      32.502 -23.228 -13.344  0.00  0.00    +0.043 C 
ATOM     24  C   UNL     1      35.045 -24.275 -13.044  0.00  0.00    +0.043 C 
ATOM     25  C   UNL     1      31.566 -23.367 -15.554  0.00  0.00    +0.027 C 
ATOM     26  C   UNL     1      36.034 -25.208 -15.027  0.00  0.00    +0.015 C 
ATOM     27  C   UNL     1      31.238 -22.857 -12.852  0.00  0.00    +0.009 C 
ATOM     28  C   UNL     1      36.077 -24.849 -12.281  0.00  0.00    +0.008 C 
ATOM     29  C   UNL     1      30.310 -23.003 -15.059  0.00  0.00    +0.059 C 
ATOM     30  C   UNL     1      37.055 -25.781 -14.264  0.00  0.00    +0.001 C 
ATOM     31  C   UNL     1      30.147 -22.745 -13.707  0.00  0.00    +0.012 C 
ATOM     32  C   UNL     1      37.077 -25.599 -12.889  0.00  0.00    +0.001 C 
ENDBRANCH  17  20
ENDBRANCH   1  17
TORSDOF 8
ENDMDL
MODEL 5
REMARK VINA RESULT:      -9.5      7.558     14.356
REMARK  Name = 6762
REMARK  8 active torsions:
REMARK  status: ('A' for Active; 'I' for Inactive)
REMARK    1  A    between atoms: C_1  and  C_2
REMARK    2  A    between atoms: C_1  and  C_17
REMARK    3  A    between atoms: C_2  and  N_3
REMARK    4  A    between atoms: N_4  and  C_11
REMARK    5  A    between atoms: C_11  and  C_12
REMARK    6  A    between atoms: C_12  and  O_13
REMARK    7  A    between atoms: O_13  and  C_15
REMARK    8  A    between atoms: C_17  and  N_20
REMARK                            x       y       z     vdW  Elec       q    Type
REMARK                         _______ _______ _______ _____ _____    ______ ____
ROOT
ATOM      1  C   UNL     1      32.826  -9.806 -23.130  0.00  0.00    -0.001 C 
ENDROOT
BRANCH   1   2
ATOM      2  C   UNL     1      32.196 -11.198 -23.247  0.00  0.00    -0.076 C 
BRANCH   2   3
ATOM      3  N   UNL     1      33.118 -12.252 -22.833  0.00  0.00    +0.384 N 
ATOM      4  N   UNL     1      33.741 -14.958 -22.025  0.00  0.00    +0.387 N 
ATOM      5  C   UNL     1      33.115 -13.356 -23.800  0.00  0.00    -0.101 C 
ATOM      6  C   UNL     1      32.780 -12.744 -21.491  0.00  0.00    -0.101 C 
ATOM      7  C   UNL     1      34.080 -14.465 -23.365  0.00  0.00    -0.101 C 
ATOM      8  C   UNL     1      33.744 -13.853 -21.058  0.00  0.00    -0.101 C 
ATOM      9  H   UNL     1      34.058 -11.854 -22.802  0.00  0.00    -0.080 HD
ATOM     10  H   UNL     1      32.801 -15.354 -22.057  0.00  0.00    -0.080 HD
BRANCH   4  11
ATOM     11  C   UNL     1      34.663 -16.014 -21.611  0.00  0.00    -0.029 C 
BRANCH  11  12
ATOM     12  C   UNL     1      34.677 -17.142 -22.629  0.00  0.00    +0.186 C 
BRANCH  12  13
ATOM     13  O   UNL     1      35.766 -18.008 -22.335  0.00  0.00    -0.451 OA
BRANCH  13  15
ATOM     14  O   UNL     1      36.531 -18.438 -20.198  0.00  0.00    -0.250 OA
ATOM     15  C   UNL     1      35.732 -18.612 -21.108  0.00  0.00    +0.317 C 
ATOM     16  C   UNL     1      34.557 -19.538 -21.028  0.00  0.00    +0.121 C 
ENDBRANCH  13  15
ENDBRANCH  12  13
ENDBRANCH  11  12
ENDBRANCH   4  11
ENDBRANCH   2   3
ENDBRANCH   1   2
BRANCH   1  17
ATOM     17  C   UNL     1      32.081  -8.706 -23.885  0.00  0.00    +0.093 C 
BRANCH  17  20
ATOM     18 CL   UNL     1      31.163  -9.498 -18.701  0.00  0.00    -0.082 Cl
ATOM     19  S   UNL     1      32.069  -4.443 -22.339  0.00  0.00    -0.084 S 
ATOM     20  N   UNL     1      32.344  -7.392 -23.282  0.00  0.00    -0.286 N 
ATOM     21  C   UNL     1      31.980  -7.212 -21.925  0.00  0.00    +0.058 C 
ATOM     22  C   UNL     1      33.004  -6.426 -24.084  0.00  0.00    +0.058 C 
ATOM     23  C   UNL     1      31.847  -5.923 -21.372  0.00  0.00    +0.043 C 
ATOM     24  C   UNL     1      32.972  -5.059 -23.746  0.00  0.00    +0.043 C 
ATOM     25  C   UNL     1      31.770  -8.306 -21.056  0.00  0.00    +0.027 C 
ATOM     26  C   UNL     1      33.749  -6.786 -25.228  0.00  0.00    +0.015 C 
ATOM     27  C   UNL     1      31.493  -5.751 -20.022  0.00  0.00    +0.009 C 
ATOM     28  C   UNL     1      33.634  -4.106 -24.541  0.00  0.00    +0.008 C 
ATOM     29  C   UNL     1      31.423  -8.129 -19.713  0.00  0.00    +0.059 C 
ATOM     30  C   UNL     1      34.409  -5.836 -26.011  0.00  0.00    +0.001 C 
ATOM     31  C   UNL     1      31.282  -6.850 -19.197  0.00  0.00    +0.012 C 
ATOM     32  C   UNL     1      34.350  -4.494 -25.668  0.00  0.00    +0.001 C 
ENDBRANCH  17  20
ENDBRANCH   1  17
TORSDOF 8
ENDMDL
MODEL 6
REMARK VINA RESULT:      -9.1      5.203      9.437
REMARK  Name = 6762
REMARK  8 active torsions:
REMARK  status: ('A' for Active; 'I' for Inactive)
REMARK    1  A    between atoms: C_1  and  C_2
REMARK    2  A    between atoms: C_1  and  C_17
REMARK    3  A    between atoms: C_2  and  N_3
REMARK    4  A    between atoms: N_4  and  C_11
REMARK    5  A    between atoms: C_11  and  C_12
REMARK    6  A    between atoms: C_12  and  O_13
REMARK    7  A    between atoms: O_13  and  C_15
REMARK    8  A    between atoms: C_17  and  N_20
REMARK                            x       y       z     vdW  Elec       q    Type
REMARK                         _______ _______ _______ _____ _____    ______ ____
ROOT
ATOM      1  C   UNL     1      36.546 -21.352 -16.922  0.00  0.00    -0.001 C 
ENDROOT
BRANCH   1   2
ATOM      2  C   UNL     1      37.847 -21.941 -16.370  0.00  0.00    -0.076 C 
BRANCH   2   3
ATOM      3  N   UNL     1      37.612 -22.795 -15.208  0.00  0.00    +0.384 N 
ATOM      4  N   UNL     1      37.103 -25.348 -13.950  0.00  0.00    +0.387 N 
ATOM      5  C   UNL     1      38.668 -23.807 -15.083  0.00  0.00    -0.101 C 
ATOM      6  C   UNL     1      36.294 -23.436 -15.291  0.00  0.00    -0.101 C 
ATOM      7  C   UNL     1      38.420 -24.706 -13.866  0.00  0.00    -0.101 C 
ATOM      8  C   UNL     1      36.047 -24.336 -14.076  0.00  0.00    -0.101 C 
ATOM      9  H   UNL     1      37.631 -22.206 -14.375  0.00  0.00    -0.080 HD
ATOM     10  H   UNL     1      37.085 -25.936 -14.784  0.00  0.00    -0.080 HD
BRANCH   4  11
ATOM     11  C   UNL     1      36.867 -26.204 -12.789  0.00  0.00    -0.029 C 
BRANCH  11  12
ATOM     12  C   UNL     1      37.134 -25.444 -11.500  0.00  0.00    +0.186 C 
BRANCH  12  13
ATOM     13  O   UNL     1      35.922 -25.357 -10.762  0.00  0.00    -0.451 OA
BRANCH  13  15
ATOM     14  O   UNL     1      34.945 -23.942  -9.219  0.00  0.00    -0.250 OA
ATOM     15  C   UNL     1      35.656 -24.141 -10.194  0.00  0.00    +0.317 C 
ATOM     16  C   UNL     1      36.370 -23.060 -10.947  0.00  0.00    +0.121 C 
ENDBRANCH  13  15
ENDBRANCH  12  13
ENDBRANCH  11  12
ENDBRANCH   4  11
ENDBRANCH   2   3
ENDBRANCH   1   2
BRANCH   1  17
ATOM     17  C   UNL     1      36.244 -21.725 -18.373  0.00  0.00    +0.093 C 
BRANCH  17  20
ATOM     18 CL   UNL     1      32.729 -23.357 -14.723  0.00  0.00    -0.082 Cl
ATOM     19  S   UNL     1      32.333 -20.533 -20.334  0.00  0.00    -0.084 S 
ATOM     20  N   UNL     1      34.981 -21.119 -18.814  0.00  0.00    -0.286 N 
ATOM     21  C   UNL     1      33.794 -21.540 -18.165  0.00  0.00    +0.058 C 
ATOM     22  C   UNL     1      35.053 -20.110 -19.808  0.00  0.00    +0.058 C 
ATOM     23  C   UNL     1      32.529 -21.309 -18.742  0.00  0.00    +0.043 C 
ATOM     24  C   UNL     1      33.914 -19.738 -20.549  0.00  0.00    +0.043 C 
ATOM     25  C   UNL     1      33.815 -22.172 -16.903  0.00  0.00    +0.027 C 
ATOM     26  C   UNL     1      36.249 -19.409 -20.077  0.00  0.00    +0.015 C 
ATOM     27  C   UNL     1      31.354 -21.722 -18.090  0.00  0.00    +0.009 C 
ATOM     28  C   UNL     1      33.989 -18.731 -21.528  0.00  0.00    +0.008 C 
ATOM     29  C   UNL     1      32.643 -22.576 -16.256  0.00  0.00    +0.059 C 
ATOM     30  C   UNL     1      36.317 -18.406 -21.048  0.00  0.00    +0.001 C 
ATOM     31  C   UNL     1      31.412 -22.353 -16.852  0.00  0.00    +0.012 C 
ATOM     32  C   UNL     1      35.186 -18.068 -21.775  0.00  0.00    +0.001 C 
ENDBRANCH  17  20
ENDBRANCH   1  17
TORSDOF 8
ENDMDL
MODEL 7
REMARK VINA RESULT:      -8.9      8.581     15.462
REMARK  Name = 6762
REMARK  8 active torsions:
REMARK  status: ('A' for Active; 'I' for Inactive)
REMARK    1  A    between atoms: C_1  and  C_2
REMARK    2  A    between atoms: C_1  and  C_17
REMARK    3  A    between atoms: C_2  and  N_3
REMARK    4  A    between atoms: N_4  and  C_11
REMARK    5  A    between atoms: C_11  and  C_12
REMARK    6  A    between atoms: C_12  and  O_13
REMARK    7  A    between atoms: O_13  and  C_15
REMARK    8  A    between atoms: C_17  and  N_20
REMARK                            x       y       z     vdW  Elec       q    Type
REMARK                         _______ _______ _______ _____ _____    ______ ____
ROOT
ATOM      1  C   UNL     1      32.610  -8.957 -23.855  0.00  0.00    -0.001 C 
ENDROOT
BRANCH   1   2
ATOM      2  C   UNL     1      31.649  -9.579 -22.837  0.00  0.00    -0.076 C 
BRANCH   2   3
ATOM      3  N   UNL     1      31.934 -10.993 -22.610  0.00  0.00    +0.384 N 
ATOM      4  N   UNL     1      33.517 -13.160 -21.533  0.00  0.00    +0.387 N 
ATOM      5  C   UNL     1      31.928 -11.303 -21.175  0.00  0.00    -0.101 C 
ATOM      6  C   UNL     1      33.221 -11.369 -23.209  0.00  0.00    -0.101 C 
ATOM      7  C   UNL     1      32.230 -12.786 -20.934  0.00  0.00    -0.101 C 
ATOM      8  C   UNL     1      33.524 -12.851 -22.968  0.00  0.00    -0.101 C 
ATOM      9  H   UNL     1      31.199 -11.539 -23.059  0.00  0.00    -0.080 HD
ATOM     10  H   UNL     1      34.251 -12.613 -21.082  0.00  0.00    -0.080 HD
BRANCH   4  11
ATOM     11  C   UNL     1      33.804 -14.575 -21.304  0.00  0.00    -0.029 C 
BRANCH  11  12
ATOM     12  C   UNL     1      34.114 -15.278 -22.615  0.00  0.00    +0.186 C 
BRANCH  12  13
ATOM     13  O   UNL     1      35.244 -16.119 -22.427  0.00  0.00    -0.451 OA
BRANCH  13  15
ATOM     14  O   UNL     1      35.434 -17.400 -20.513  0.00  0.00    -0.250 OA
ATOM     15  C   UNL     1      35.037 -17.232 -21.658  0.00  0.00    +0.317 C 
ATOM     16  C   UNL     1      34.240 -18.242 -22.426  0.00  0.00    +0.121 C 
ENDBRANCH  13  15
ENDBRANCH  12  13
ENDBRANCH  11  12
ENDBRANCH   4  11
ENDBRANCH   2   3
ENDBRANCH   1   2
BRANCH   1  17
ATOM     17  C   UNL     1      33.499  -7.846 -23.294  0.00  0.00    +0.093 C 
BRANCH  17  20
ATOM     18 CL   UNL     1      31.187  -6.340 -18.741  0.00  0.00    -0.082 Cl
ATOM     19  S   UNL     1      31.116  -4.244 -24.675  0.00  0.00    -0.084 S 
ATOM     20  N   UNL     1      32.940  -6.525 -23.610  0.00  0.00    -0.286 N 
ATOM     21  C   UNL     1      32.067  -5.941 -22.658  0.00  0.00    +0.058 C 
ATOM     22  C   UNL     1      33.368  -5.905 -24.811  0.00  0.00    +0.058 C 
ATOM     23  C   UNL     1      31.208  -4.882 -23.013  0.00  0.00    +0.043 C 
ATOM     24  C   UNL     1      32.639  -4.843 -25.381  0.00  0.00    +0.043 C 
ATOM     25  C   UNL     1      32.041  -6.362 -21.311  0.00  0.00    +0.027 C 
ATOM     26  C   UNL     1      34.555  -6.293 -25.471  0.00  0.00    +0.015 C 
ATOM     27  C   UNL     1      30.350  -4.301 -22.063  0.00  0.00    +0.009 C 
ATOM     28  C   UNL     1      33.072  -4.227 -26.568  0.00  0.00    +0.008 C 
ATOM     29  C   UNL     1      31.189  -5.777 -20.368  0.00  0.00    +0.059 C 
ATOM     30  C   UNL     1      34.984  -5.674 -26.648  0.00  0.00    +0.001 C 
ATOM     31  C   UNL     1      30.342  -4.747 -20.746  0.00  0.00    +0.012 C 
ATOM     32  C   UNL     1      34.241  -4.641 -27.198  0.00  0.00    +0.001 C 
ENDBRANCH  17  20
ENDBRANCH   1  17
TORSDOF 8
ENDMDL
MODEL 8
REMARK VINA RESULT:      -8.6      7.620     11.117
REMARK  Name = 6762
REMARK  8 active torsions:
REMARK  status: ('A' for Active; 'I' for Inactive)
REMARK    1  A    between atoms: C_1  and  C_2
REMARK    2  A    between atoms: C_1  and  C_17
REMARK    3  A    between atoms: C_2  and  N_3
REMARK    4  A    between atoms: N_4  and  C_11
REMARK    5  A    between atoms: C_11  and  C_12
REMARK    6  A    between atoms: C_12  and  O_13
REMARK    7  A    between atoms: O_13  and  C_15
REMARK    8  A    between atoms: C_17  and  N_20
REMARK                            x       y       z     vdW  Elec       q    Type
REMARK                         _______ _______ _______ _____ _____    ______ ____
ROOT
ATOM      1  C   UNL     1      32.301 -14.024 -20.375  0.00  0.00    -0.001 C 
ENDROOT
BRANCH   1   2
ATOM      2  C   UNL     1      32.092 -12.746 -19.557  0.00  0.00    -0.076 C 
BRANCH   2   3
ATOM      3  N   UNL     1      31.953 -11.567 -20.409  0.00  0.00    +0.384 N 
ATOM      4  N   UNL     1      30.463  -9.349 -21.514  0.00  0.00    +0.387 N 
ATOM      5  C   UNL     1      31.652 -10.376 -19.607  0.00  0.00    -0.101 C 
ATOM      6  C   UNL     1      30.915 -11.778 -21.426  0.00  0.00    -0.101 C 
ATOM      7  C   UNL     1      31.502  -9.139 -20.500  0.00  0.00    -0.101 C 
ATOM      8  C   UNL     1      30.765 -10.541 -22.317  0.00  0.00    -0.101 C 
ATOM      9  H   UNL     1      32.843 -11.417 -20.886  0.00  0.00    -0.080 HD
ATOM     10  H   UNL     1      29.574  -9.501 -21.036  0.00  0.00    -0.080 HD
BRANCH   4  11
ATOM     11  C   UNL     1      30.322  -8.170 -22.366  0.00  0.00    -0.029 C 
BRANCH  11  12
ATOM     12  C   UNL     1      31.544  -7.274 -22.247  0.00  0.00    +0.186 C 
BRANCH  12  13
ATOM     13  O   UNL     1      31.196  -5.967 -22.685  0.00  0.00    -0.451 OA
BRANCH  13  15
ATOM     14  O   UNL     1      29.525  -4.564 -21.924  0.00  0.00    -0.250 OA
ATOM     15  C   UNL     1      30.572  -5.176 -21.759  0.00  0.00    +0.317 C 
ATOM     16  C   UNL     1      31.362  -5.159 -20.487  0.00  0.00    +0.121 C 
ENDBRANCH  13  15
ENDBRANCH  12  13
ENDBRANCH  11  12
ENDBRANCH   4  11
ENDBRANCH   2   3
ENDBRANCH   1   2
BRANCH   1  17
ATOM     17  C   UNL     1      33.761 -14.339 -20.700  0.00  0.00    +0.093 C 
BRANCH  17  20
ATOM     18 CL   UNL     1      33.470 -10.172 -24.001  0.00  0.00    -0.082 Cl
ATOM     19  S   UNL     1      33.247 -16.424 -24.693  0.00  0.00    -0.084 S 
ATOM     20  N   UNL     1      33.878 -14.944 -22.033  0.00  0.00    -0.286 N 
ATOM     21  C   UNL     1      33.620 -14.114 -23.152  0.00  0.00    +0.058 C 
ATOM     22  C   UNL     1      34.304 -16.295 -22.101  0.00  0.00    +0.058 C 
ATOM     23  C   UNL     1      33.345 -14.666 -24.419  0.00  0.00    +0.043 C 
ATOM     24  C   UNL     1      34.096 -17.064 -23.264  0.00  0.00    +0.043 C 
ATOM     25  C   UNL     1      33.662 -12.705 -23.063  0.00  0.00    +0.027 C 
ATOM     26  C   UNL     1      34.983 -16.921 -21.033  0.00  0.00    +0.015 C 
ATOM     27  C   UNL     1      33.098 -13.836 -25.527  0.00  0.00    +0.009 C 
ATOM     28  C   UNL     1      34.527 -18.401 -23.329  0.00  0.00    +0.008 C 
ATOM     29  C   UNL     1      33.421 -11.885 -24.170  0.00  0.00    +0.059 C 
ATOM     30  C   UNL     1      35.414 -18.248 -21.105  0.00  0.00    +0.001 C 
ATOM     31  C   UNL     1      33.136 -12.452 -25.402  0.00  0.00    +0.012 C 
ATOM     32  C   UNL     1      35.184 -18.989 -22.254  0.00  0.00    +0.001 C 
ENDBRANCH  17  20
ENDBRANCH   1  17
TORSDOF 8
ENDMDL
MODEL 9
REMARK VINA RESULT:      -8.2      8.510     15.035
REMARK  Name = 6762
REMARK  8 active torsions:
REMARK  status: ('A' for Active; 'I' for Inactive)
REMARK    1  A    between atoms: C_1  and  C_2
REMARK    2  A    between atoms: C_1  and  C_17
REMARK    3  A    between atoms: C_2  and  N_3
REMARK    4  A    between atoms: N_4  and  C_11
REMARK    5  A    between atoms: C_11  and  C_12
REMARK    6  A    between atoms: C_12  and  O_13
REMARK    7  A    between atoms: O_13  and  C_15
REMARK    8  A    between atoms: C_17  and  N_20
REMARK                            x       y       z     vdW  Elec       q    Type
REMARK                         _______ _______ _______ _____ _____    ______ ____
ROOT
ATOM      1  C   UNL     1      32.604  -9.248 -22.755  0.00  0.00    -0.001 C 
ENDROOT
BRANCH   1   2
ATOM      2  C   UNL     1      32.261 -10.407 -23.697  0.00  0.00    -0.076 C 
BRANCH   2   3
ATOM      3  N   UNL     1      32.377 -11.703 -23.035  0.00  0.00    +0.384 N 
ATOM      4  N   UNL     1      33.554 -13.518 -21.116  0.00  0.00    +0.387 N 
ATOM      5  C   UNL     1      32.097 -11.581 -21.599  0.00  0.00    -0.101 C 
ATOM      6  C   UNL     1      33.709 -12.282 -23.251  0.00  0.00    -0.101 C 
ATOM      7  C   UNL     1      32.222 -12.941 -20.901  0.00  0.00    -0.101 C 
ATOM      8  C   UNL     1      33.834 -13.640 -22.552  0.00  0.00    -0.101 C 
ATOM      9  H   UNL     1      31.684 -12.330 -23.445  0.00  0.00    -0.080 HD
ATOM     10  H   UNL     1      34.245 -12.890 -20.706  0.00  0.00    -0.080 HD
BRANCH   4  11
ATOM     11  C   UNL     1      33.671 -14.815 -20.451  0.00  0.00    -0.029 C 
BRANCH  11  12
ATOM     12  C   UNL     1      34.306 -15.837 -21.379  0.00  0.00    +0.186 C 
BRANCH  12  13
ATOM     13  O   UNL     1      34.990 -16.804 -20.592  0.00  0.00    -0.451 OA
BRANCH  13  15
ATOM     14  O   UNL     1      34.321 -18.906 -21.283  0.00  0.00    -0.250 OA
ATOM     15  C   UNL     1      35.168 -18.029 -21.176  0.00  0.00    +0.317 C 
ATOM     16  C   UNL     1      36.574 -18.154 -21.679  0.00  0.00    +0.121 C 
ENDBRANCH  13  15
ENDBRANCH  12  13
ENDBRANCH  11  12
ENDBRANCH   4  11
ENDBRANCH   2   3
ENDBRANCH   1   2
BRANCH   1  17
ATOM     17  C   UNL     1      33.344  -8.087 -23.419  0.00  0.00    +0.093 C 
BRANCH  17  20
ATOM     18 CL   UNL     1      32.681  -5.986 -28.265  0.00  0.00    -0.082 Cl
ATOM     19  S   UNL     1      32.051  -3.868 -22.372  0.00  0.00    -0.084 S 
ATOM     20  N   UNL     1      32.657  -6.816 -23.154  0.00  0.00    -0.286 N 
ATOM     21  C   UNL     1      32.526  -5.908 -24.234  0.00  0.00    +0.058 C 
ATOM     22  C   UNL     1      32.120  -6.622 -21.856  0.00  0.00    +0.058 C 
ATOM     23  C   UNL     1      32.228  -4.549 -24.010  0.00  0.00    +0.043 C 
ATOM     24  C   UNL     1      31.782  -5.334 -21.395  0.00  0.00    +0.043 C 
ATOM     25  C   UNL     1      32.648  -6.322 -25.578  0.00  0.00    +0.027 C 
ATOM     26  C   UNL     1      31.864  -7.702 -20.983  0.00  0.00    +0.015 C 
ATOM     27  C   UNL     1      32.090  -3.654 -25.086  0.00  0.00    +0.009 C 
ATOM     28  C   UNL     1      31.242  -5.149 -20.110  0.00  0.00    +0.008 C 
ATOM     29  C   UNL     1      32.506  -5.429 -26.645  0.00  0.00    +0.059 C 
ATOM     30  C   UNL     1      31.323  -7.513 -19.709  0.00  0.00    +0.001 C 
ATOM     31  C   UNL     1      32.229  -4.093 -26.398  0.00  0.00    +0.012 C 
ATOM     32  C   UNL     1      31.013  -6.234 -19.271  0.00  0.00    +0.001 C 
ENDBRANCH  17  20
ENDBRANCH   1  17
TORSDOF 8
ENDMDL
