MODEL 1
REMARK VINA RESULT:     -12.6      0.000      0.000
REMARK  Name = 10250490
REMARK  6 active torsions:
REMARK  status: ('A' for Active; 'I' for Inactive)
REMARK    1  A    between atoms: N_2  and  C_18
REMARK    2  A    between atoms: C_3  and  C_6
REMARK    3  A    between atoms: C_5  and  N_12
REMARK    4  A    between atoms: C_18  and  C_19
REMARK    5  A    between atoms: C_19  and  N_21
REMARK    6  A    between atoms: C_22  and  C_26
REMARK                            x       y       z     vdW  Elec       q    Type
REMARK                         _______ _______ _______ _____ _____    ______ ____
ROOT
ATOM      1  O   UNL     1      33.466 -23.394 -17.656  0.00  0.00    -0.270 OA
ATOM      2  N   UNL     1      35.173 -22.241 -16.593  0.00  0.00    -0.299 N 
ATOM      3  C   UNL     1      34.245 -22.426 -17.624  0.00  0.00    +0.246 C 
ATOM      4  H   UNL     1      35.760 -21.452 -16.630  0.00  0.00    +0.150 HD
ENDROOT
BRANCH   3   6
ATOM      5  C   UNL     1      34.231 -19.544 -20.741  0.00  0.00    +0.058 C 
ATOM      6  C   UNL     1      34.239 -21.438 -18.692  0.00  0.00    +0.053 C 
ATOM      7  C   UNL     1      33.025 -20.034 -20.237  0.00  0.00    +0.015 C 
ATOM      8  C   UNL     1      35.441 -20.002 -20.218  0.00  0.00    +0.015 C 
ATOM      9  C   UNL     1      33.030 -20.980 -19.212  0.00  0.00    +0.006 C 
ATOM     10  C   UNL     1      35.445 -20.949 -19.194  0.00  0.00    +0.006 C 
BRANCH   5  12
ATOM     11  O   UNL     1      34.958 -16.760 -20.451  0.00  0.00    -0.269 OA
ATOM     12  N   UNL     1      34.225 -18.561 -21.806  0.00  0.00    -0.233 N 
ATOM     13  C   UNL     1      34.644 -17.231 -21.544  0.00  0.00    +0.257 C 
ATOM     14  C   UNL     1      33.789 -18.907 -23.087  0.00  0.00    +0.072 C 
ATOM     15  C   UNL     1      34.653 -16.293 -22.709  0.00  0.00    +0.059 C 
ATOM     16  C   UNL     1      33.775 -18.041 -24.106  0.00  0.00    +0.017 C 
ATOM     17  C   UNL     1      34.227 -16.697 -23.909  0.00  0.00    +0.006 C 
ENDBRANCH   5  12
ENDBRANCH   3   6
BRANCH   2  18
ATOM     18  C   UNL     1      35.317 -23.147 -15.476  0.00  0.00    +0.111 C 
BRANCH  18  19
ATOM     19  C   UNL     1      34.385 -22.797 -14.329  0.00  0.00    +0.111 C 
BRANCH  19  21
ATOM     20  O   UNL     1      32.492 -24.240 -12.725  0.00  0.00    -0.270 OA
ATOM     21  N   UNL     1      33.009 -23.059 -14.653  0.00  0.00    -0.299 N 
ATOM     22  C   UNL     1      32.163 -23.771 -13.811  0.00  0.00    +0.252 C 
ATOM     23  H   UNL     1      32.652 -22.721 -15.507  0.00  0.00    +0.150 HD
BRANCH  22  26
ATOM     24 CL   UNL     1      27.508 -23.351 -16.664  0.00  0.00    -0.075 Cl
ATOM     25  S   UNL     1      30.258 -23.028 -15.591  0.00  0.00    -0.071 S 
ATOM     26  C   UNL     1      30.776 -23.980 -14.302  0.00  0.00    +0.084 C 
ATOM     27  C   UNL     1      29.877 -24.855 -13.826  0.00  0.00    +0.012 C 
ATOM     28  C   UNL     1      28.660 -24.755 -14.560  0.00  0.00    +0.019 C 
ATOM     29  C   UNL     1      28.730 -23.800 -15.550  0.00  0.00    +0.087 C 
ENDBRANCH  22  26
ENDBRANCH  19  21
ENDBRANCH  18  19
ENDBRANCH   2  18
TORSDOF 6
ENDMDL
MODEL 2
REMARK VINA RESULT:     -12.4      4.591     10.028
REMARK  Name = 10250490
REMARK  6 active torsions:
REMARK  status: ('A' for Active; 'I' for Inactive)
REMARK    1  A    between atoms: N_2  and  C_18
REMARK    2  A    between atoms: C_3  and  C_6
REMARK    3  A    between atoms: C_5  and  N_12
REMARK    4  A    between atoms: C_18  and  C_19
REMARK    5  A    between atoms: C_19  and  N_21
REMARK    6  A    between atoms: C_22  and  C_26
REMARK                            x       y       z     vdW  Elec       q    Type
REMARK                         _______ _______ _______ _____ _____    ______ ____
ROOT
ATOM      1  O   UNL     1      33.097 -21.299 -19.753  0.00  0.00    -0.270 OA
ATOM      2  N   UNL     1      35.035 -20.050 -19.989  0.00  0.00    -0.299 N 
ATOM      3  C   UNL     1      34.221 -20.978 -19.330  0.00  0.00    +0.246 C 
ATOM      4  H   UNL     1      35.915 -19.841 -19.599  0.00  0.00    +0.150 HD
ENDROOT
BRANCH   3   6
ATOM      5  C   UNL     1      35.723 -22.646 -15.728  0.00  0.00    +0.058 C 
ATOM      6  C   UNL     1      34.736 -21.549 -18.096  0.00  0.00    +0.053 C 
ATOM      7  C   UNL     1      36.568 -21.919 -16.566  0.00  0.00    +0.015 C 
ATOM      8  C   UNL     1      34.383 -22.824 -16.074  0.00  0.00    +0.015 C 
ATOM      9  C   UNL     1      36.074 -21.370 -17.749  0.00  0.00    +0.006 C 
ATOM     10  C   UNL     1      33.890 -22.276 -17.258  0.00  0.00    +0.006 C 
BRANCH   5  12
ATOM     11  O   UNL     1      36.120 -25.468 -15.233  0.00  0.00    -0.269 OA
ATOM     12  N   UNL     1      36.237 -23.217 -14.498  0.00  0.00    -0.233 N 
ATOM     13  C   UNL     1      36.424 -24.620 -14.394  0.00  0.00    +0.257 C 
ATOM     14  C   UNL     1      36.529 -22.399 -13.405  0.00  0.00    +0.072 C 
ATOM     15  C   UNL     1      37.003 -25.121 -13.109  0.00  0.00    +0.059 C 
ATOM     16  C   UNL     1      37.015 -22.875 -12.253  0.00  0.00    +0.017 C 
ATOM     17  C   UNL     1      37.264 -24.278 -12.107  0.00  0.00    +0.006 C 
ENDBRANCH   5  12
ENDBRANCH   3   6
BRANCH   2  18
ATOM     18  C   UNL     1      34.654 -19.379 -21.212  0.00  0.00    +0.111 C 
BRANCH  18  19
ATOM     19  C   UNL     1      35.724 -18.414 -21.694  0.00  0.00    +0.111 C 
BRANCH  19  21
ATOM     20  O   UNL     1      34.561 -16.143 -20.380  0.00  0.00    -0.270 OA
ATOM     21  N   UNL     1      35.158 -17.253 -22.327  0.00  0.00    -0.299 N 
ATOM     22  C   UNL     1      34.615 -16.197 -21.606  0.00  0.00    +0.252 C 
ATOM     23  H   UNL     1      35.155 -17.206 -23.310  0.00  0.00    +0.150 HD
BRANCH  22  26
ATOM     24 CL   UNL     1      32.686 -13.202 -25.765  0.00  0.00    -0.075 Cl
ATOM     25  S   UNL     1      33.817 -15.350 -24.055  0.00  0.00    -0.071 S 
ATOM     26  C   UNL     1      34.045 -15.083 -22.408  0.00  0.00    +0.084 C 
ATOM     27  C   UNL     1      33.689 -13.870 -21.959  0.00  0.00    +0.012 C 
ATOM     28  C   UNL     1      33.186 -13.079 -23.034  0.00  0.00    +0.019 C 
ATOM     29  C   UNL     1      33.199 -13.763 -24.229  0.00  0.00    +0.087 C 
ENDBRANCH  22  26
ENDBRANCH  19  21
ENDBRANCH  18  19
ENDBRANCH   2  18
TORSDOF 6
ENDMDL
MODEL 3
REMARK VINA RESULT:     -12.2      3.124      4.211
REMARK  Name = 10250490
REMARK  6 active torsions:
REMARK  status: ('A' for Active; 'I' for Inactive)
REMARK    1  A    between atoms: N_2  and  C_18
REMARK    2  A    between atoms: C_3  and  C_6
REMARK    3  A    between atoms: C_5  and  N_12
REMARK    4  A    between atoms: C_18  and  C_19
REMARK    5  A    between atoms: C_19  and  N_21
REMARK    6  A    between atoms: C_22  and  C_26
REMARK                            x       y       z     vdW  Elec       q    Type
REMARK                         _______ _______ _______ _____ _____    ______ ____
ROOT
ATOM      1  O   UNL     1      34.335 -23.160 -17.297  0.00  0.00    -0.270 OA
ATOM      2  N   UNL     1      32.172 -22.406 -16.942  0.00  0.00    -0.299 N 
ATOM      3  C   UNL     1      33.403 -22.398 -17.606  0.00  0.00    +0.246 C 
ATOM      4  H   UNL     1      31.476 -21.776 -17.239  0.00  0.00    +0.150 HD
ENDROOT
BRANCH   3   6
ATOM      5  C   UNL     1      33.884 -19.573 -20.738  0.00  0.00    +0.058 C 
ATOM      6  C   UNL     1      33.567 -21.429 -18.679  0.00  0.00    +0.053 C 
ATOM      7  C   UNL     1      32.607 -19.887 -20.271  0.00  0.00    +0.015 C 
ATOM      8  C   UNL     1      35.002 -20.187 -20.174  0.00  0.00    +0.015 C 
ATOM      9  C   UNL     1      32.449 -20.814 -19.241  0.00  0.00    +0.006 C 
ATOM     10  C   UNL     1      34.844 -21.116 -19.146  0.00  0.00    +0.006 C 
BRANCH   5  12
ATOM     11  O   UNL     1      35.009 -16.925 -20.446  0.00  0.00    -0.269 OA
ATOM     12  N   UNL     1      34.047 -18.609 -21.809  0.00  0.00    -0.233 N 
ATOM     13  C   UNL     1      34.653 -17.353 -21.544  0.00  0.00    +0.257 C 
ATOM     14  C   UNL     1      33.593 -18.898 -23.097  0.00  0.00    +0.072 C 
ATOM     15  C   UNL     1      34.826 -16.438 -22.714  0.00  0.00    +0.059 C 
ATOM     16  C   UNL     1      33.729 -18.048 -24.121  0.00  0.00    +0.017 C 
ATOM     17  C   UNL     1      34.372 -16.784 -23.921  0.00  0.00    +0.006 C 
ENDBRANCH   5  12
ENDBRANCH   3   6
BRANCH   2  18
ATOM     18  C   UNL     1      31.864 -23.292 -15.842  0.00  0.00    +0.111 C 
BRANCH  18  19
ATOM     19  C   UNL     1      32.514 -22.844 -14.544  0.00  0.00    +0.111 C 
BRANCH  19  21
ATOM     20  O   UNL     1      33.731 -23.908 -12.172  0.00  0.00    -0.270 OA
ATOM     21  N   UNL     1      33.859 -23.338 -14.416  0.00  0.00    -0.299 N 
ATOM     22  C   UNL     1      34.364 -23.836 -13.222  0.00  0.00    +0.252 C 
ATOM     23  H   UNL     1      34.445 -23.320 -15.208  0.00  0.00    +0.150 HD
BRANCH  22  26
ATOM     24 CL   UNL     1      39.562 -24.653 -14.739  0.00  0.00    -0.075 Cl
ATOM     25  S   UNL     1      36.716 -23.823 -14.571  0.00  0.00    -0.071 S 
ATOM     26  C   UNL     1      35.781 -24.284 -13.248  0.00  0.00    +0.084 C 
ATOM     27  C   UNL     1      36.407 -25.026 -12.322  0.00  0.00    +0.012 C 
ATOM     28  C   UNL     1      37.762 -25.246 -12.706  0.00  0.00    +0.019 C 
ATOM     29  C   UNL     1      38.064 -24.647 -13.909  0.00  0.00    +0.087 C 
ENDBRANCH  22  26
ENDBRANCH  19  21
ENDBRANCH  18  19
ENDBRANCH   2  18
TORSDOF 6
ENDMDL
MODEL 4
REMARK VINA RESULT:     -11.9      4.151      6.885
REMARK  Name = 10250490
REMARK  6 active torsions:
REMARK  status: ('A' for Active; 'I' for Inactive)
REMARK    1  A    between atoms: N_2  and  C_18
REMARK    2  A    between atoms: C_3  and  C_6
REMARK    3  A    between atoms: C_5  and  N_12
REMARK    4  A    between atoms: C_18  and  C_19
REMARK    5  A    between atoms: C_19  and  N_21
REMARK    6  A    between atoms: C_22  and  C_26
REMARK                            x       y       z     vdW  Elec       q    Type
REMARK                         _______ _______ _______ _____ _____    ______ ____
ROOT
ATOM      1  O   UNL     1      35.261 -17.874 -23.112  0.00  0.00    -0.270 OA
ATOM      2  N   UNL     1      35.578 -17.710 -20.822  0.00  0.00    -0.299 N 
ATOM      3  C   UNL     1      35.103 -17.244 -22.053  0.00  0.00    +0.246 C 
ATOM      4  H   UNL     1      35.418 -17.160 -20.021  0.00  0.00    +0.150 HD
ENDROOT
BRANCH   3   6
ATOM      5  C   UNL     1      33.122 -13.490 -22.057  0.00  0.00    +0.058 C 
ATOM      6  C   UNL     1      34.425 -15.957 -22.053  0.00  0.00    +0.053 C 
ATOM      7  C   UNL     1      33.493 -14.082 -20.850  0.00  0.00    +0.015 C 
ATOM      8  C   UNL     1      33.403 -14.132 -23.263  0.00  0.00    +0.015 C 
ATOM      9  C   UNL     1      34.145 -15.315 -20.848  0.00  0.00    +0.006 C 
ATOM     10  C   UNL     1      34.054 -15.366 -23.261  0.00  0.00    +0.006 C 
BRANCH   5  12
ATOM     11  O   UNL     1      33.665 -11.312 -23.881  0.00  0.00    -0.269 OA
ATOM     12  N   UNL     1      32.444 -12.208 -22.058  0.00  0.00    -0.233 N 
ATOM     13  C   UNL     1      32.775 -11.234 -23.034  0.00  0.00    +0.257 C 
ATOM     14  C   UNL     1      31.481 -11.916 -21.090  0.00  0.00    +0.072 C 
ATOM     15  C   UNL     1      31.994  -9.958 -22.993  0.00  0.00    +0.059 C 
ATOM     16  C   UNL     1      30.819 -10.754 -21.053  0.00  0.00    +0.017 C 
ATOM     17  C   UNL     1      31.082  -9.750 -22.041  0.00  0.00    +0.006 C 
ENDBRANCH   5  12
ENDBRANCH   3   6
BRANCH   2  18
ATOM     18  C   UNL     1      36.291 -18.957 -20.661  0.00  0.00    +0.111 C 
BRANCH  18  19
ATOM     19  C   UNL     1      35.387 -20.077 -20.174  0.00  0.00    +0.111 C 
BRANCH  19  21
ATOM     20  O   UNL     1      34.154 -22.205 -18.693  0.00  0.00    -0.270 OA
ATOM     21  N   UNL     1      35.768 -20.548 -18.870  0.00  0.00    -0.299 N 
ATOM     22  C   UNL     1      35.109 -21.589 -18.227  0.00  0.00    +0.252 C 
ATOM     23  H   UNL     1      36.526 -20.114 -18.414  0.00  0.00    +0.150 HD
BRANCH  22  26
ATOM     24 CL   UNL     1      35.376 -23.346 -13.047  0.00  0.00    -0.075 Cl
ATOM     25  S   UNL     1      34.503 -22.603 -15.787  0.00  0.00    -0.071 S 
ATOM     26  C   UNL     1      35.607 -21.940 -16.872  0.00  0.00    +0.084 C 
ATOM     27  C   UNL     1      36.857 -21.784 -16.409  0.00  0.00    +0.012 C 
ATOM     28  C   UNL     1      36.940 -22.237 -15.060  0.00  0.00    +0.019 C 
ATOM     29  C   UNL     1      35.731 -22.708 -14.597  0.00  0.00    +0.087 C 
ENDBRANCH  22  26
ENDBRANCH  19  21
ENDBRANCH  18  19
ENDBRANCH   2  18
TORSDOF 6
ENDMDL
MODEL 5
REMARK VINA RESULT:     -11.7      1.600      2.246
REMARK  Name = 10250490
REMARK  6 active torsions:
REMARK  status: ('A' for Active; 'I' for Inactive)
REMARK    1  A    between atoms: N_2  and  C_18
REMARK    2  A    between atoms: C_3  and  C_6
REMARK    3  A    between atoms: C_5  and  N_12
REMARK    4  A    between atoms: C_18  and  C_19
REMARK    5  A    between atoms: C_19  and  N_21
REMARK    6  A    between atoms: C_22  and  C_26
REMARK                            x       y       z     vdW  Elec       q    Type
REMARK                         _______ _______ _______ _____ _____    ______ ____
ROOT
ATOM      1  O   UNL     1      34.719 -22.408 -18.819  0.00  0.00    -0.270 OA
ATOM      2  N   UNL     1      36.307 -21.099 -17.751  0.00  0.00    -0.299 N 
ATOM      3  C   UNL     1      35.338 -21.333 -18.732  0.00  0.00    +0.246 C 
ATOM      4  H   UNL     1      36.758 -20.224 -17.739  0.00  0.00    +0.150 HD
ENDROOT
BRANCH   3   6
ATOM      5  C   UNL     1      34.610 -18.202 -21.505  0.00  0.00    +0.058 C 
ATOM      6  C   UNL     1      35.089 -20.260 -19.683  0.00  0.00    +0.053 C 
ATOM      7  C   UNL     1      35.884 -18.372 -20.962  0.00  0.00    +0.015 C 
ATOM      8  C   UNL     1      33.575 -19.063 -21.136  0.00  0.00    +0.015 C 
ATOM      9  C   UNL     1      36.123 -19.401 -20.051  0.00  0.00    +0.006 C 
ATOM     10  C   UNL     1      33.815 -20.091 -20.225  0.00  0.00    +0.006 C 
BRANCH   5  12
ATOM     11  O   UNL     1      34.452 -15.391 -20.843  0.00  0.00    -0.269 OA
ATOM     12  N   UNL     1      34.361 -17.131 -22.450  0.00  0.00    -0.233 N 
ATOM     13  C   UNL     1      34.348 -15.784 -22.005  0.00  0.00    +0.257 C 
ATOM     14  C   UNL     1      34.113 -17.416 -23.794  0.00  0.00    +0.072 C 
ATOM     15  C   UNL     1      34.132 -14.738 -23.053  0.00  0.00    +0.059 C 
ATOM     16  C   UNL     1      33.889 -16.465 -24.708  0.00  0.00    +0.017 C 
ATOM     17  C   UNL     1      33.906 -15.086 -24.323  0.00  0.00    +0.006 C 
ENDBRANCH   5  12
ENDBRANCH   3   6
BRANCH   2  18
ATOM     18  C   UNL     1      36.683 -22.074 -16.751  0.00  0.00    +0.111 C 
BRANCH  18  19
ATOM     19  C   UNL     1      35.961 -21.851 -15.433  0.00  0.00    +0.111 C 
BRANCH  19  21
ATOM     20  O   UNL     1      34.491 -23.403 -13.517  0.00  0.00    -0.270 OA
ATOM     21  N   UNL     1      34.573 -22.218 -15.509  0.00  0.00    -0.299 N 
ATOM     22  C   UNL     1      33.943 -22.976 -14.530  0.00  0.00    +0.252 C 
ATOM     23  H   UNL     1      34.048 -21.921 -16.288  0.00  0.00    +0.150 HD
BRANCH  22  26
ATOM     24 CL   UNL     1      28.883 -25.009 -14.027  0.00  0.00    -0.075 Cl
ATOM     25  S   UNL     1      31.743 -24.301 -13.660  0.00  0.00    -0.071 S 
ATOM     26  C   UNL     1      32.511 -23.293 -14.769  0.00  0.00    +0.084 C 
ATOM     27  C   UNL     1      31.750 -22.860 -15.787  0.00  0.00    +0.012 C 
ATOM     28  C   UNL     1      30.430 -23.384 -15.668  0.00  0.00    +0.019 C 
ATOM     29  C   UNL     1      30.288 -24.183 -14.555  0.00  0.00    +0.087 C 
ENDBRANCH  22  26
ENDBRANCH  19  21
ENDBRANCH  18  19
ENDBRANCH   2  18
TORSDOF 6
ENDMDL
MODEL 6
REMARK VINA RESULT:     -11.5      2.793      4.776
REMARK  Name = 10250490
REMARK  6 active torsions:
REMARK  status: ('A' for Active; 'I' for Inactive)
REMARK    1  A    between atoms: N_2  and  C_18
REMARK    2  A    between atoms: C_3  and  C_6
REMARK    3  A    between atoms: C_5  and  N_12
REMARK    4  A    between atoms: C_18  and  C_19
REMARK    5  A    between atoms: C_19  and  N_21
REMARK    6  A    between atoms: C_22  and  C_26
REMARK                            x       y       z     vdW  Elec       q    Type
REMARK                         _______ _______ _______ _____ _____    ______ ____
ROOT
ATOM      1  O   UNL     1      36.685 -18.721 -20.140  0.00  0.00    -0.270 OA
ATOM      2  N   UNL     1      34.600 -19.722 -20.298  0.00  0.00    -0.299 N 
ATOM      3  C   UNL     1      35.514 -18.695 -20.557  0.00  0.00    +0.246 C 
ATOM      4  H   UNL     1      33.688 -19.638 -20.660  0.00  0.00    +0.150 HD
ENDROOT
BRANCH   3   6
ATOM      5  C   UNL     1      34.102 -15.380 -22.802  0.00  0.00    +0.058 C 
ATOM      6  C   UNL     1      35.030 -17.560 -21.327  0.00  0.00    +0.053 C 
ATOM      7  C   UNL     1      34.555 -16.526 -23.457  0.00  0.00    +0.015 C 
ATOM      8  C   UNL     1      34.114 -15.325 -21.408  0.00  0.00    +0.015 C 
ATOM      9  C   UNL     1      35.018 -17.616 -22.720  0.00  0.00    +0.006 C 
ATOM     10  C   UNL     1      34.578 -16.415 -20.671  0.00  0.00    +0.006 C 
BRANCH   5  12
ATOM     11  O   UNL     1      33.176 -15.488 -25.540  0.00  0.00    -0.269 OA
ATOM     12  N   UNL     1      33.622 -14.248 -23.570  0.00  0.00    -0.233 N 
ATOM     13  C   UNL     1      33.156 -14.440 -24.896  0.00  0.00    +0.257 C 
ATOM     14  C   UNL     1      33.636 -12.964 -23.021  0.00  0.00    +0.072 C 
ATOM     15  C   UNL     1      32.633 -13.227 -25.599  0.00  0.00    +0.059 C 
ATOM     16  C   UNL     1      33.194 -11.889 -23.683  0.00  0.00    +0.017 C 
ATOM     17  C   UNL     1      32.671 -12.029 -25.009  0.00  0.00    +0.006 C 
ENDBRANCH   5  12
ENDBRANCH   3   6
BRANCH   2  18
ATOM     18  C   UNL     1      34.923 -20.903 -19.529  0.00  0.00    +0.111 C 
BRANCH  18  19
ATOM     19  C   UNL     1      33.776 -21.899 -19.499  0.00  0.00    +0.111 C 
BRANCH  19  21
ATOM     20  O   UNL     1      31.376 -21.699 -17.936  0.00  0.00    -0.270 OA
ATOM     21  N   UNL     1      33.562 -22.435 -18.181  0.00  0.00    -0.299 N 
ATOM     22  C   UNL     1      32.361 -22.288 -17.498  0.00  0.00    +0.252 C 
ATOM     23  H   UNL     1      34.297 -22.926 -17.747  0.00  0.00    +0.150 HD
BRANCH  22  26
ATOM     24 CL   UNL     1      30.556 -24.481 -12.816  0.00  0.00    -0.075 Cl
ATOM     25  S   UNL     1      30.794 -23.295 -15.528  0.00  0.00    -0.071 S 
ATOM     26  C   UNL     1      32.308 -22.877 -16.135  0.00  0.00    +0.084 C 
ATOM     27  C   UNL     1      33.348 -23.116 -15.321  0.00  0.00    +0.012 C 
ATOM     28  C   UNL     1      32.891 -23.686 -14.098  0.00  0.00    +0.019 C 
ATOM     29  C   UNL     1      31.523 -23.839 -14.077  0.00  0.00    +0.087 C 
ENDBRANCH  22  26
ENDBRANCH  19  21
ENDBRANCH  18  19
ENDBRANCH   2  18
TORSDOF 6
ENDMDL
MODEL 7
REMARK VINA RESULT:     -11.5      6.234     11.010
REMARK  Name = 10250490
REMARK  6 active torsions:
REMARK  status: ('A' for Active; 'I' for Inactive)
REMARK    1  A    between atoms: N_2  and  C_18
REMARK    2  A    between atoms: C_3  and  C_6
REMARK    3  A    between atoms: C_5  and  N_12
REMARK    4  A    between atoms: C_18  and  C_19
REMARK    5  A    between atoms: C_19  and  N_21
REMARK    6  A    between atoms: C_22  and  C_26
REMARK                            x       y       z     vdW  Elec       q    Type
REMARK                         _______ _______ _______ _____ _____    ______ ____
ROOT
ATOM      1  O   UNL     1      34.193 -15.648 -25.214  0.00  0.00    -0.270 OA
ATOM      2  N   UNL     1      33.929 -14.183 -23.437  0.00  0.00    -0.299 N 
ATOM      3  C   UNL     1      34.111 -15.456 -23.988  0.00  0.00    +0.246 C 
ATOM      4  H   UNL     1      33.872 -14.102 -22.457  0.00  0.00    +0.150 HD
ENDROOT
BRANCH   3   6
ATOM      5  C   UNL     1      34.311 -18.720 -21.281  0.00  0.00    +0.058 C 
ATOM      6  C   UNL     1      34.179 -16.574 -23.060  0.00  0.00    +0.053 C 
ATOM      7  C   UNL     1      34.636 -17.434 -20.850  0.00  0.00    +0.015 C 
ATOM      8  C   UNL     1      33.918 -18.932 -22.604  0.00  0.00    +0.015 C 
ATOM      9  C   UNL     1      34.570 -16.361 -21.739  0.00  0.00    +0.006 C 
ATOM     10  C   UNL     1      33.853 -17.859 -23.493  0.00  0.00    +0.006 C 
BRANCH   5  12
ATOM     11  O   UNL     1      32.037 -20.167 -20.232  0.00  0.00    -0.269 OA
ATOM     12  N   UNL     1      34.381 -19.835 -20.357  0.00  0.00    -0.233 N 
ATOM     13  C   UNL     1      33.190 -20.489 -19.947  0.00  0.00    +0.257 C 
ATOM     14  C   UNL     1      35.611 -20.256 -19.849  0.00  0.00    +0.072 C 
ATOM     15  C   UNL     1      33.356 -21.659 -19.030  0.00  0.00    +0.059 C 
ATOM     16  C   UNL     1      35.731 -21.286 -19.002  0.00  0.00    +0.017 C 
ATOM     17  C   UNL     1      34.567 -22.010 -18.588  0.00  0.00    +0.006 C 
ENDBRANCH   5  12
ENDBRANCH   3   6
BRANCH   2  18
ATOM     18  C   UNL     1      33.818 -12.978 -24.227  0.00  0.00    +0.111 C 
BRANCH  18  19
ATOM     19  C   UNL     1      32.391 -12.461 -24.291  0.00  0.00    +0.111 C 
BRANCH  19  21
ATOM     20  O   UNL     1      31.601 -12.702 -21.542  0.00  0.00    -0.270 OA
ATOM     21  N   UNL     1      32.166 -11.384 -23.365  0.00  0.00    -0.299 N 
ATOM     22  C   UNL     1      31.783 -11.597 -22.046  0.00  0.00    +0.252 C 
ATOM     23  H   UNL     1      32.287 -10.459 -23.679  0.00  0.00    +0.150 HD
BRANCH  22  26
ATOM     24 CL   UNL     1      31.255  -6.380 -20.468  0.00  0.00    -0.075 Cl
ATOM     25  S   UNL     1      31.671  -8.889 -22.002  0.00  0.00    -0.071 S 
ATOM     26  C   UNL     1      31.565 -10.379 -21.224  0.00  0.00    +0.084 C 
ATOM     27  C   UNL     1      31.290 -10.333 -19.911  0.00  0.00    +0.012 C 
ATOM     28  C   UNL     1      31.151  -8.979 -19.488  0.00  0.00    +0.019 C 
ATOM     29  C   UNL     1      31.333  -8.091 -20.524  0.00  0.00    +0.087 C 
ENDBRANCH  22  26
ENDBRANCH  19  21
ENDBRANCH  18  19
ENDBRANCH   2  18
TORSDOF 6
ENDMDL
MODEL 8
REMARK VINA RESULT:     -11.4      7.848     12.601
REMARK  Name = 10250490
REMARK  6 active torsions:
REMARK  status: ('A' for Active; 'I' for Inactive)
REMARK    1  A    between atoms: N_2  and  C_18
REMARK    2  A    between atoms: C_3  and  C_6
REMARK    3  A    between atoms: C_5  and  N_12
REMARK    4  A    between atoms: C_18  and  C_19
REMARK    5  A    between atoms: C_19  and  N_21
REMARK    6  A    between atoms: C_22  and  C_26
REMARK                            x       y       z     vdW  Elec       q    Type
REMARK                         _______ _______ _______ _____ _____    ______ ____
ROOT
ATOM      1  O   UNL     1      33.118 -13.598 -24.821  0.00  0.00    -0.270 OA
ATOM      2  N   UNL     1      33.754 -12.410 -22.935  0.00  0.00    -0.299 N 
ATOM      3  C   UNL     1      33.557 -13.591 -23.658  0.00  0.00    +0.246 C 
ATOM      4  H   UNL     1      34.105 -12.477 -22.017  0.00  0.00    +0.150 HD
ENDROOT
BRANCH   3   6
ATOM      5  C   UNL     1      34.462 -17.234 -21.675  0.00  0.00    +0.058 C 
ATOM      6  C   UNL     1      33.868 -14.840 -22.979  0.00  0.00    +0.053 C 
ATOM      7  C   UNL     1      34.330 -17.209 -23.064  0.00  0.00    +0.015 C 
ATOM      8  C   UNL     1      34.297 -16.060 -20.938  0.00  0.00    +0.015 C 
ATOM      9  C   UNL     1      34.034 -16.012 -23.715  0.00  0.00    +0.006 C 
ATOM     10  C   UNL     1      34.000 -14.864 -21.590  0.00  0.00    +0.006 C 
BRANCH   5  12
ATOM     11  O   UNL     1      37.119 -18.163 -21.010  0.00  0.00    -0.269 OA
ATOM     12  N   UNL     1      34.770 -18.479 -20.998  0.00  0.00    -0.233 N 
ATOM     13  C   UNL     1      36.117 -18.803 -20.692  0.00  0.00    +0.257 C 
ATOM     14  C   UNL     1      33.751 -19.374 -20.664  0.00  0.00    +0.072 C 
ATOM     15  C   UNL     1      36.341 -20.083 -19.950  0.00  0.00    +0.059 C 
ATOM     16  C   UNL     1      33.980 -20.529 -20.031  0.00  0.00    +0.017 C 
ATOM     17  C   UNL     1      35.316 -20.888 -19.658  0.00  0.00    +0.006 C 
ENDBRANCH   5  12
ENDBRANCH   3   6
BRANCH   2  18
ATOM     18  C   UNL     1      33.470 -11.094 -23.461  0.00  0.00    +0.111 C 
BRANCH  18  19
ATOM     19  C   UNL     1      32.076 -10.615 -23.090  0.00  0.00    +0.111 C 
BRANCH  19  21
ATOM     20  O   UNL     1      30.919  -9.452 -20.734  0.00  0.00    -0.270 OA
ATOM     21  N   UNL     1      32.061  -9.220 -22.740  0.00  0.00    -0.299 N 
ATOM     22  C   UNL     1      31.474  -8.747 -21.573  0.00  0.00    +0.252 C 
ATOM     23  H   UNL     1      32.483  -8.576 -23.353  0.00  0.00    +0.150 HD
BRANCH  22  26
ATOM     24 CL   UNL     1      31.430  -3.343 -22.456  0.00  0.00    -0.075 Cl
ATOM     25  S   UNL     1      31.357  -6.299 -22.732  0.00  0.00    -0.071 S 
ATOM     26  C   UNL     1      31.519  -7.276 -21.370  0.00  0.00    +0.084 C 
ATOM     27  C   UNL     1      31.677  -6.629 -20.204  0.00  0.00    +0.012 C 
ATOM     28  C   UNL     1      31.668  -5.220 -20.421  0.00  0.00    +0.019 C 
ATOM     29  C   UNL     1      31.502  -4.902 -21.750  0.00  0.00    +0.087 C 
ENDBRANCH  22  26
ENDBRANCH  19  21
ENDBRANCH  18  19
ENDBRANCH   2  18
TORSDOF 6
ENDMDL
MODEL 9
REMARK VINA RESULT:     -11.4      7.018     11.164
REMARK  Name = 10250490
REMARK  6 active torsions:
REMARK  status: ('A' for Active; 'I' for Inactive)
REMARK    1  A    between atoms: N_2  and  C_18
REMARK    2  A    between atoms: C_3  and  C_6
REMARK    3  A    between atoms: C_5  and  N_12
REMARK    4  A    between atoms: C_18  and  C_19
REMARK    5  A    between atoms: C_19  and  N_21
REMARK    6  A    between atoms: C_22  and  C_26
REMARK                            x       y       z     vdW  Elec       q    Type
REMARK                         _______ _______ _______ _____ _____    ______ ____
ROOT
ATOM      1  O   UNL     1      33.006 -13.859 -21.757  0.00  0.00    -0.270 OA
ATOM      2  N   UNL     1      32.567 -13.578 -24.016  0.00  0.00    -0.299 N 
ATOM      3  C   UNL     1      32.659 -13.122 -22.696  0.00  0.00    +0.246 C 
ATOM      4  H   UNL     1      32.287 -12.940 -24.712  0.00  0.00    +0.150 HD
ENDROOT
BRANCH   3   6
ATOM      5  C   UNL     1      31.628  -9.067 -21.980  0.00  0.00    +0.058 C 
ATOM      6  C   UNL     1      32.306 -11.732 -22.452  0.00  0.00    +0.053 C 
ATOM      7  C   UNL     1      32.548  -9.388 -22.978  0.00  0.00    +0.015 C 
ATOM      8  C   UNL     1      31.046 -10.081 -21.218  0.00  0.00    +0.015 C 
ATOM      9  C   UNL     1      32.887 -10.720 -23.214  0.00  0.00    +0.006 C 
ATOM     10  C   UNL     1      31.385 -11.413 -21.453  0.00  0.00    +0.006 C 
BRANCH   5  12
ATOM     11  O   UNL     1      32.214  -7.598 -19.559  0.00  0.00    -0.269 OA
ATOM     12  N   UNL     1      31.277  -7.682 -21.735  0.00  0.00    -0.233 N 
ATOM     13  C   UNL     1      31.658  -7.061 -20.517  0.00  0.00    +0.257 C 
ATOM     14  C   UNL     1      30.546  -6.958 -22.679  0.00  0.00    +0.072 C 
ATOM     15  C   UNL     1      31.299  -5.617 -20.365  0.00  0.00    +0.059 C 
ATOM     16  C   UNL     1      30.207  -5.676 -22.506  0.00  0.00    +0.017 C 
ATOM     17  C   UNL     1      30.603  -4.986 -21.315  0.00  0.00    +0.006 C 
ENDBRANCH   5  12
ENDBRANCH   3   6
BRANCH   2  18
ATOM     18  C   UNL     1      32.862 -14.935 -24.415  0.00  0.00    +0.111 C 
BRANCH  18  19
ATOM     19  C   UNL     1      34.356 -15.193 -24.515  0.00  0.00    +0.111 C 
BRANCH  19  21
ATOM     20  O   UNL     1      33.658 -17.953 -24.147  0.00  0.00    -0.270 OA
ATOM     21  N   UNL     1      34.824 -16.065 -23.471  0.00  0.00    -0.299 N 
ATOM     22  C   UNL     1      34.430 -17.394 -23.372  0.00  0.00    +0.252 C 
ATOM     23  H   UNL     1      35.449 -15.705 -22.800  0.00  0.00    +0.150 HD
BRANCH  22  26
ATOM     24 CL   UNL     1      34.983 -20.914 -19.214  0.00  0.00    -0.075 Cl
ATOM     25  S   UNL     1      33.995 -19.325 -21.520  0.00  0.00    -0.071 S 
ATOM     26  C   UNL     1      34.981 -18.154 -22.221  0.00  0.00    +0.084 C 
ATOM     27  C   UNL     1      36.196 -18.010 -21.670  0.00  0.00    +0.012 C 
ATOM     28  C   UNL     1      36.353 -18.921 -20.584  0.00  0.00    +0.019 C 
ATOM     29  C   UNL     1      35.231 -19.697 -20.394  0.00  0.00    +0.087 C 
ENDBRANCH  22  26
ENDBRANCH  19  21
ENDBRANCH  18  19
ENDBRANCH   2  18
TORSDOF 6
ENDMDL
