MODEL 1
REMARK VINA RESULT:     -10.0      0.000      0.000
REMARK  Name = 118599727
REMARK  3 active torsions:
REMARK  status: ('A' for Active; 'I' for Inactive)
REMARK    1  A    between atoms: C_5  and  C_26
REMARK    2  A    between atoms: C_9  and  C_17
REMARK    3  A    between atoms: C_26  and  C_29
REMARK                            x       y       z     vdW  Elec       q    Type
REMARK                         _______ _______ _______ _____ _____    ______ ____
ROOT
ATOM      1  F   UNL     1      38.746 -23.129 -11.308  0.00  0.00    -0.204 F 
ATOM      2  O   UNL     1      36.255 -24.560 -15.030  0.00  0.00    -0.472 OA
ATOM      3  O   UNL     1      32.314 -23.211 -12.033  0.00  0.00    -0.270 OA
ATOM      4  N   UNL     1      33.769 -23.677 -13.848  0.00  0.00    -0.250 N 
ATOM      5  C   UNL     1      33.894 -24.030 -15.284  0.00  0.00    +0.133 C 
ATOM      6  C   UNL     1      34.994 -25.071 -15.446  0.00  0.00    +0.226 C 
ATOM      7  C   UNL     1      35.030 -23.551 -13.154  0.00  0.00    +0.088 C 
ATOM      8  C   UNL     1      36.214 -23.985 -13.782  0.00  0.00    +0.154 C 
ATOM      9  C   UNL     1      32.526 -23.501 -13.209  0.00  0.00    +0.253 C 
ATOM     10  C   UNL     1      35.151 -22.971 -11.882  0.00  0.00    +0.020 C 
ATOM     11  C   UNL     1      37.463 -23.835 -13.167  0.00  0.00    +0.068 C 
ATOM     12  C   UNL     1      36.399 -22.836 -11.261  0.00  0.00    +0.031 C 
ATOM     13  C   UNL     1      37.554 -23.267 -11.902  0.00  0.00    +0.143 C 
ENDROOT
BRANCH   9  17
ATOM     14  O   UNL     1      27.834 -24.394 -16.179  0.00  0.00    -0.464 OA
ATOM     15  O   UNL     1      26.771 -20.983 -16.722  0.00  0.00    -0.271 OA
ATOM     16  N   UNL     1      28.622 -21.743 -15.589  0.00  0.00    -0.278 N 
ATOM     17  C   UNL     1      31.306 -23.717 -13.999  0.00  0.00    +0.055 C 
ATOM     18  C   UNL     1      30.554 -22.623 -14.432  0.00  0.00    +0.022 C 
ATOM     19  C   UNL     1      29.398 -22.834 -15.184  0.00  0.00    +0.085 C 
ATOM     20  C   UNL     1      30.895 -25.014 -14.309  0.00  0.00    +0.008 C 
ATOM     21  C   UNL     1      28.988 -24.130 -15.497  0.00  0.00    +0.153 C 
ATOM     22  C   UNL     1      29.732 -25.222 -15.050  0.00  0.00    +0.038 C 
ATOM     23  C   UNL     1      27.353 -23.307 -16.947  0.00  0.00    +0.290 C 
ATOM     24  C   UNL     1      27.521 -21.901 -16.397  0.00  0.00    +0.271 C 
ATOM     25  H   UNL     1      28.871 -20.839 -15.287  0.00  0.00    +0.155 HD
ENDBRANCH   9  17
BRANCH   5  26
ATOM     26  C   UNL     1      34.145 -22.784 -16.143  0.00  0.00    +0.109 C 
BRANCH  26  29
ATOM     27  O   UNL     1      32.121 -23.323 -17.352  0.00  0.00    -0.275 OA
ATOM     28  N   UNL     1      33.582 -21.737 -18.218  0.00  0.00    -0.303 N 
ATOM     29  C   UNL     1      33.157 -22.669 -17.282  0.00  0.00    +0.224 C 
ATOM     30  C   UNL     1      32.835 -21.423 -19.414  0.00  0.00    +0.111 C 
ATOM     31  H   UNL     1      34.433 -21.269 -18.061  0.00  0.00    +0.149 HD
ENDBRANCH  26  29
ENDBRANCH   5  26
TORSDOF 3
ENDMDL
MODEL 2
REMARK VINA RESULT:      -9.7      3.380      6.789
REMARK  Name = 118599727
REMARK  3 active torsions:
REMARK  status: ('A' for Active; 'I' for Inactive)
REMARK    1  A    between atoms: C_5  and  C_26
REMARK    2  A    between atoms: C_9  and  C_17
REMARK    3  A    between atoms: C_26  and  C_29
REMARK                            x       y       z     vdW  Elec       q    Type
REMARK                         _______ _______ _______ _____ _____    ______ ____
ROOT
ATOM      1  F   UNL     1      29.587 -25.057 -12.526  0.00  0.00    -0.204 F 
ATOM      2  O   UNL     1      33.903 -24.451 -14.288  0.00  0.00    -0.472 OA
ATOM      3  O   UNL     1      31.327 -21.769 -17.823  0.00  0.00    -0.270 OA
ATOM      4  N   UNL     1      32.943 -22.624 -16.313  0.00  0.00    -0.250 N 
ATOM      5  C   UNL     1      34.382 -22.769 -15.980  0.00  0.00    +0.133 C 
ATOM      6  C   UNL     1      34.636 -24.184 -15.478  0.00  0.00    +0.226 C 
ATOM      7  C   UNL     1      32.049 -23.259 -15.373  0.00  0.00    +0.088 C 
ATOM      8  C   UNL     1      32.571 -24.131 -14.396  0.00  0.00    +0.154 C 
ATOM      9  C   UNL     1      32.488 -21.944 -17.459  0.00  0.00    +0.253 C 
ATOM     10  C   UNL     1      30.666 -23.020 -15.348  0.00  0.00    +0.020 C 
ATOM     11  C   UNL     1      31.746 -24.727 -13.435  0.00  0.00    +0.068 C 
ATOM     12  C   UNL     1      29.840 -23.630 -14.396  0.00  0.00    +0.031 C 
ATOM     13  C   UNL     1      30.379 -24.482 -13.440  0.00  0.00    +0.143 C 
ENDROOT
BRANCH   9  17
ATOM     14  O   UNL     1      36.373 -19.908 -20.979  0.00  0.00    -0.464 OA
ATOM     15  O   UNL     1      34.260 -18.048 -23.245  0.00  0.00    -0.271 OA
ATOM     16  N   UNL     1      33.647 -19.283 -21.405  0.00  0.00    -0.278 N 
ATOM     17  C   UNL     1      33.491 -21.391 -18.378  0.00  0.00    +0.055 C 
ATOM     18  C   UNL     1      33.090 -20.585 -19.445  0.00  0.00    +0.022 C 
ATOM     19  C   UNL     1      34.049 -20.061 -20.314  0.00  0.00    +0.085 C 
ATOM     20  C   UNL     1      34.844 -21.679 -18.190  0.00  0.00    +0.008 C 
ATOM     21  C   UNL     1      35.400 -20.346 -20.125  0.00  0.00    +0.153 C 
ATOM     22  C   UNL     1      35.798 -21.164 -19.067  0.00  0.00    +0.038 C 
ATOM     23  C   UNL     1      36.000 -18.785 -21.754  0.00  0.00    +0.290 C 
ATOM     24  C   UNL     1      34.563 -18.683 -22.237  0.00  0.00    +0.271 C 
ATOM     25  H   UNL     1      32.687 -19.163 -21.581  0.00  0.00    +0.155 HD
ENDBRANCH   9  17
BRANCH   5  26
ATOM     26  C   UNL     1      34.829 -21.707 -14.967  0.00  0.00    +0.109 C 
BRANCH  26  29
ATOM     27  O   UNL     1      37.211 -22.089 -14.798  0.00  0.00    -0.275 OA
ATOM     28  N   UNL     1      35.859 -22.459 -12.944  0.00  0.00    -0.303 N 
ATOM     29  C   UNL     1      36.107 -22.097 -14.260  0.00  0.00    +0.224 C 
ATOM     30  C   UNL     1      36.898 -22.880 -12.032  0.00  0.00    +0.111 C 
ATOM     31  H   UNL     1      34.932 -22.429 -12.616  0.00  0.00    +0.149 HD
ENDBRANCH  26  29
ENDBRANCH   5  26
TORSDOF 3
ENDMDL
MODEL 3
REMARK VINA RESULT:      -9.4      3.286      7.135
REMARK  Name = 118599727
REMARK  3 active torsions:
REMARK  status: ('A' for Active; 'I' for Inactive)
REMARK    1  A    between atoms: C_5  and  C_26
REMARK    2  A    between atoms: C_9  and  C_17
REMARK    3  A    between atoms: C_26  and  C_29
REMARK                            x       y       z     vdW  Elec       q    Type
REMARK                         _______ _______ _______ _____ _____    ______ ____
ROOT
ATOM      1  F   UNL     1      34.266 -19.433 -21.571  0.00  0.00    -0.204 F 
ATOM      2  O   UNL     1      32.671 -22.578 -18.462  0.00  0.00    -0.472 OA
ATOM      3  O   UNL     1      37.344 -21.917 -16.447  0.00  0.00    -0.270 OA
ATOM      4  N   UNL     1      35.037 -22.323 -16.819  0.00  0.00    -0.250 N 
ATOM      5  C   UNL     1      33.796 -22.982 -16.342  0.00  0.00    +0.133 C 
ATOM      6  C   UNL     1      33.063 -23.583 -17.534  0.00  0.00    +0.226 C 
ATOM      7  C   UNL     1      34.883 -21.589 -18.054  0.00  0.00    +0.088 C 
ATOM      8  C   UNL     1      33.703 -21.739 -18.810  0.00  0.00    +0.154 C 
ATOM      9  C   UNL     1      36.266 -22.421 -16.139  0.00  0.00    +0.253 C 
ATOM     10  C   UNL     1      35.843 -20.683 -18.533  0.00  0.00    +0.020 C 
ATOM     11  C   UNL     1      33.492 -21.009 -19.985  0.00  0.00    +0.068 C 
ATOM     12  C   UNL     1      35.637 -19.965 -19.718  0.00  0.00    +0.031 C 
ATOM     13  C   UNL     1      34.463 -20.127 -20.443  0.00  0.00    +0.143 C 
ENDROOT
BRANCH   9  17
ATOM     14  O   UNL     1      36.555 -25.606 -11.511  0.00  0.00    -0.464 OA
ATOM     15  O   UNL     1      34.871 -23.447  -9.153  0.00  0.00    -0.271 OA
ATOM     16  N   UNL     1      35.297 -23.076 -11.382  0.00  0.00    -0.278 N 
ATOM     17  C   UNL     1      36.319 -23.248 -14.924  0.00  0.00    +0.055 C 
ATOM     18  C   UNL     1      35.766 -22.773 -13.734  0.00  0.00    +0.022 C 
ATOM     19  C   UNL     1      35.818 -23.564 -12.585  0.00  0.00    +0.085 C 
ATOM     20  C   UNL     1      36.931 -24.501 -14.960  0.00  0.00    +0.008 C 
ATOM     21  C   UNL     1      36.425 -24.818 -12.620  0.00  0.00    +0.153 C 
ATOM     22  C   UNL     1      36.991 -25.284 -13.807  0.00  0.00    +0.038 C 
ATOM     23  C   UNL     1      35.639 -25.305 -10.477  0.00  0.00    +0.290 C 
ATOM     24  C   UNL     1      35.256 -23.853 -10.247  0.00  0.00    +0.271 C 
ATOM     25  H   UNL     1      34.952 -22.155 -11.346  0.00  0.00    +0.155 HD
ENDBRANCH   9  17
BRANCH   5  26
ATOM     26  C   UNL     1      32.915 -22.006 -15.554  0.00  0.00    +0.109 C 
BRANCH  26  29
ATOM     27  O   UNL     1      30.548 -22.385 -15.226  0.00  0.00    -0.275 OA
ATOM     28  N   UNL     1      32.086 -23.684 -14.064  0.00  0.00    -0.303 N 
ATOM     29  C   UNL     1      31.706 -22.688 -14.953  0.00  0.00    +0.224 C 
ATOM     30  C   UNL     1      31.138 -24.499 -13.340  0.00  0.00    +0.111 C 
ATOM     31  H   UNL     1      33.047 -23.842 -13.920  0.00  0.00    +0.149 HD
ENDBRANCH  26  29
ENDBRANCH   5  26
TORSDOF 3
ENDMDL
MODEL 4
REMARK VINA RESULT:      -9.4      3.298      7.882
REMARK  Name = 118599727
REMARK  3 active torsions:
REMARK  status: ('A' for Active; 'I' for Inactive)
REMARK    1  A    between atoms: C_5  and  C_26
REMARK    2  A    between atoms: C_9  and  C_17
REMARK    3  A    between atoms: C_26  and  C_29
REMARK                            x       y       z     vdW  Elec       q    Type
REMARK                         _______ _______ _______ _____ _____    ______ ____
ROOT
ATOM      1  F   UNL     1      27.273 -23.025 -15.412  0.00  0.00    -0.204 F 
ATOM      2  O   UNL     1      31.093 -24.816 -13.340  0.00  0.00    -0.472 OA
ATOM      3  O   UNL     1      33.480 -22.199 -17.052  0.00  0.00    -0.270 OA
ATOM      4  N   UNL     1      32.869 -23.292 -15.038  0.00  0.00    -0.250 N 
ATOM      5  C   UNL     1      33.328 -23.971 -13.801  0.00  0.00    +0.133 C 
ATOM      6  C   UNL     1      32.451 -25.190 -13.548  0.00  0.00    +0.226 C 
ATOM      7  C   UNL     1      31.433 -23.225 -15.181  0.00  0.00    +0.088 C 
ATOM      8  C   UNL     1      30.613 -23.979 -14.317  0.00  0.00    +0.154 C 
ATOM      9  C   UNL     1      33.756 -22.774 -16.002  0.00  0.00    +0.253 C 
ATOM     10  C   UNL     1      30.793 -22.405 -16.123  0.00  0.00    +0.020 C 
ATOM     11  C   UNL     1      29.217 -23.905 -14.389  0.00  0.00    +0.068 C 
ATOM     12  C   UNL     1      29.396 -22.344 -16.203  0.00  0.00    +0.031 C 
ATOM     13  C   UNL     1      28.608 -23.092 -15.338  0.00  0.00    +0.143 C 
ENDROOT
BRANCH   9  17
ATOM     14  O   UNL     1      39.277 -23.382 -15.118  0.00  0.00    -0.464 OA
ATOM     15  O   UNL     1      39.362 -26.815 -13.990  0.00  0.00    -0.271 OA
ATOM     16  N   UNL     1      37.542 -25.560 -14.623  0.00  0.00    -0.278 N 
ATOM     17  C   UNL     1      35.198 -22.955 -15.781  0.00  0.00    +0.055 C 
ATOM     18  C   UNL     1      35.684 -24.180 -15.323  0.00  0.00    +0.022 C 
ATOM     19  C   UNL     1      37.055 -24.346 -15.117  0.00  0.00    +0.085 C 
ATOM     20  C   UNL     1      36.077 -21.899 -16.020  0.00  0.00    +0.008 C 
ATOM     21  C   UNL     1      37.935 -23.292 -15.359  0.00  0.00    +0.153 C 
ATOM     22  C   UNL     1      37.445 -22.064 -15.802  0.00  0.00    +0.038 C 
ATOM     23  C   UNL     1      39.771 -24.708 -15.079  0.00  0.00    +0.290 C 
ATOM     24  C   UNL     1      38.890 -25.792 -14.482  0.00  0.00    +0.271 C 
ATOM     25  H   UNL     1      36.904 -26.266 -14.370  0.00  0.00    +0.155 HD
ENDBRANCH   9  17
BRANCH   5  26
ATOM     26  C   UNL     1      33.339 -23.008 -12.608  0.00  0.00    +0.109 C 
BRANCH  26  29
ATOM     27  O   UNL     1      34.567 -23.786 -10.675  0.00  0.00    -0.275 OA
ATOM     28  N   UNL     1      35.674 -22.576 -12.323  0.00  0.00    -0.303 N 
ATOM     29  C   UNL     1      34.568 -23.183 -11.745  0.00  0.00    +0.224 C 
ATOM     30  C   UNL     1      36.985 -22.584 -11.716  0.00  0.00    +0.111 C 
ATOM     31  H   UNL     1      35.559 -22.119 -13.187  0.00  0.00    +0.149 HD
ENDBRANCH  26  29
ENDBRANCH   5  26
TORSDOF 3
ENDMDL
MODEL 5
REMARK VINA RESULT:      -8.7      2.840      5.855
REMARK  Name = 118599727
REMARK  3 active torsions:
REMARK  status: ('A' for Active; 'I' for Inactive)
REMARK    1  A    between atoms: C_5  and  C_26
REMARK    2  A    between atoms: C_9  and  C_17
REMARK    3  A    between atoms: C_26  and  C_29
REMARK                            x       y       z     vdW  Elec       q    Type
REMARK                         _______ _______ _______ _____ _____    ______ ____
ROOT
ATOM      1  F   UNL     1      35.955 -25.204 -10.687  0.00  0.00    -0.204 F 
ATOM      2  O   UNL     1      32.781 -22.844 -13.228  0.00  0.00    -0.472 OA
ATOM      3  O   UNL     1      36.667 -22.596 -16.569  0.00  0.00    -0.270 OA
ATOM      4  N   UNL     1      34.546 -22.704 -15.514  0.00  0.00    -0.250 N 
ATOM      5  C   UNL     1      33.096 -22.403 -15.601  0.00  0.00    +0.133 C 
ATOM      6  C   UNL     1      32.617 -21.873 -14.256  0.00  0.00    +0.226 C 
ATOM      7  C   UNL     1      34.951 -23.326 -14.274  0.00  0.00    +0.088 C 
ATOM      8  C   UNL     1      34.046 -23.380 -13.195  0.00  0.00    +0.154 C 
ATOM      9  C   UNL     1      35.456 -22.390 -16.542  0.00  0.00    +0.253 C 
ATOM     10  C   UNL     1      36.205 -23.931 -14.093  0.00  0.00    +0.020 C 
ATOM     11  C   UNL     1      34.379 -24.018 -11.995  0.00  0.00    +0.068 C 
ATOM     12  C   UNL     1      36.543 -24.555 -12.885  0.00  0.00    +0.031 C 
ATOM     13  C   UNL     1      35.632 -24.599 -11.838  0.00  0.00    +0.143 C 
ENDROOT
BRANCH   9  17
ATOM     14  O   UNL     1      33.406 -19.733 -21.056  0.00  0.00    -0.464 OA
ATOM     15  O   UNL     1      36.313 -17.825 -22.040  0.00  0.00    -0.271 OA
ATOM     16  N   UNL     1      36.084 -19.275 -20.270  0.00  0.00    -0.278 N 
ATOM     17  C   UNL     1      34.941 -21.701 -17.733  0.00  0.00    +0.055 C 
ATOM     18  C   UNL     1      35.766 -20.828 -18.444  0.00  0.00    +0.022 C 
ATOM     19  C   UNL     1      35.272 -20.177 -19.576  0.00  0.00    +0.085 C 
ATOM     20  C   UNL     1      33.625 -21.911 -18.146  0.00  0.00    +0.008 C 
ATOM     21  C   UNL     1      33.958 -20.389 -19.992  0.00  0.00    +0.153 C 
ATOM     22  C   UNL     1      33.130 -21.249 -19.270  0.00  0.00    +0.038 C 
ATOM     23  C   UNL     1      34.353 -19.220 -21.973  0.00  0.00    +0.290 C 
ATOM     24  C   UNL     1      35.663 -18.674 -21.433  0.00  0.00    +0.271 C 
ATOM     25  H   UNL     1      36.979 -19.064 -19.916  0.00  0.00    +0.155 HD
ENDBRANCH   9  17
BRANCH   5  26
ATOM     26  C   UNL     1      32.299 -23.632 -16.055  0.00  0.00    +0.109 C 
BRANCH  26  29
ATOM     27  O   UNL     1      30.333 -22.434 -16.799  0.00  0.00    -0.275 OA
ATOM     28  N   UNL     1      30.092 -24.255 -15.375  0.00  0.00    -0.303 N 
ATOM     29  C   UNL     1      30.815 -23.350 -16.139  0.00  0.00    +0.224 C 
ATOM     30  C   UNL     1      28.652 -24.223 -15.267  0.00  0.00    +0.111 C 
ATOM     31  H   UNL     1      30.583 -24.952 -14.884  0.00  0.00    +0.149 HD
ENDBRANCH  26  29
ENDBRANCH   5  26
TORSDOF 3
ENDMDL
MODEL 6
REMARK VINA RESULT:      -8.6     14.991     18.223
REMARK  Name = 118599727
REMARK  3 active torsions:
REMARK  status: ('A' for Active; 'I' for Inactive)
REMARK    1  A    between atoms: C_5  and  C_26
REMARK    2  A    between atoms: C_9  and  C_17
REMARK    3  A    between atoms: C_26  and  C_29
REMARK                            x       y       z     vdW  Elec       q    Type
REMARK                         _______ _______ _______ _____ _____    ______ ____
ROOT
ATOM      1  F   UNL     1      30.386  -1.786 -24.214  0.00  0.00    -0.204 F 
ATOM      2  O   UNL     1      31.783  -4.640 -20.750  0.00  0.00    -0.472 OA
ATOM      3  O   UNL     1      30.470  -8.258 -24.143  0.00  0.00    -0.270 OA
ATOM      4  N   UNL     1      31.467  -6.990 -22.405  0.00  0.00    -0.250 N 
ATOM      5  C   UNL     1      32.211  -7.007 -21.120  0.00  0.00    +0.133 C 
ATOM      6  C   UNL     1      31.632  -5.942 -20.197  0.00  0.00    +0.226 C 
ATOM      7  C   UNL     1      31.149  -5.667 -22.890  0.00  0.00    +0.088 C 
ATOM      8  C   UNL     1      31.335  -4.553 -22.046  0.00  0.00    +0.154 C 
ATOM      9  C   UNL     1      31.084  -8.163 -23.082  0.00  0.00    +0.253 C 
ATOM     10  C   UNL     1      30.696  -5.416 -24.195  0.00  0.00    +0.020 C 
ATOM     11  C   UNL     1      31.087  -3.250 -22.493  0.00  0.00    +0.068 C 
ATOM     12  C   UNL     1      30.434  -4.113 -24.635  0.00  0.00    +0.031 C 
ATOM     13  C   UNL     1      30.630  -3.031 -23.787  0.00  0.00    +0.143 C 
ENDROOT
BRANCH   9  17
ATOM     14  O   UNL     1      32.231 -13.121 -20.686  0.00  0.00    -0.464 OA
ATOM     15  O   UNL     1      34.496 -14.500 -23.141  0.00  0.00    -0.271 OA
ATOM     16  N   UNL     1      33.426 -12.465 -23.165  0.00  0.00    -0.278 N 
ATOM     17  C   UNL     1      31.407  -9.456 -22.462  0.00  0.00    +0.055 C 
ATOM     18  C   UNL     1      32.278 -10.338 -23.103  0.00  0.00    +0.022 C 
ATOM     19  C   UNL     1      32.582 -11.563 -22.508  0.00  0.00    +0.085 C 
ATOM     20  C   UNL     1      30.835  -9.804 -21.238  0.00  0.00    +0.008 C 
ATOM     21  C   UNL     1      32.014 -11.911 -21.283  0.00  0.00    +0.153 C 
ATOM     22  C   UNL     1      31.131 -11.035 -20.652  0.00  0.00    +0.038 C 
ATOM     23  C   UNL     1      33.406 -13.778 -21.120  0.00  0.00    +0.290 C 
ATOM     24  C   UNL     1      33.813 -13.647 -22.578  0.00  0.00    +0.271 C 
ATOM     25  H   UNL     1      33.749 -12.249 -24.069  0.00  0.00    +0.155 HD
ENDBRANCH   9  17
BRANCH   5  26
ATOM     26  C   UNL     1      33.716  -6.820 -21.347  0.00  0.00    +0.109 C 
BRANCH  26  29
ATOM     27  O   UNL     1      34.299  -7.782 -23.488  0.00  0.00    -0.275 OA
ATOM     28  N   UNL     1      34.102  -5.475 -23.287  0.00  0.00    -0.303 N 
ATOM     29  C   UNL     1      34.071  -6.780 -22.816  0.00  0.00    +0.224 C 
ATOM     30  C   UNL     1      34.416  -5.137 -24.656  0.00  0.00    +0.111 C 
ATOM     31  H   UNL     1      33.901  -4.745 -22.658  0.00  0.00    +0.149 HD
ENDBRANCH  26  29
ENDBRANCH   5  26
TORSDOF 3
ENDMDL
MODEL 7
REMARK VINA RESULT:      -8.6     11.825     15.184
REMARK  Name = 118599727
REMARK  3 active torsions:
REMARK  status: ('A' for Active; 'I' for Inactive)
REMARK    1  A    between atoms: C_5  and  C_26
REMARK    2  A    between atoms: C_9  and  C_17
REMARK    3  A    between atoms: C_26  and  C_29
REMARK                            x       y       z     vdW  Elec       q    Type
REMARK                         _______ _______ _______ _____ _____    ______ ____
ROOT
ATOM      1  F   UNL     1      34.218 -18.277 -23.393  0.00  0.00    -0.204 F 
ATOM      2  O   UNL     1      34.038 -14.455 -20.661  0.00  0.00    -0.472 OA
ATOM      3  O   UNL     1      33.629 -12.088 -25.195  0.00  0.00    -0.270 OA
ATOM      4  N   UNL     1      33.492 -12.730 -22.916  0.00  0.00    -0.250 N 
ATOM      5  C   UNL     1      33.305 -12.296 -21.510  0.00  0.00    +0.133 C 
ATOM      6  C   UNL     1      34.282 -13.054 -20.621  0.00  0.00    +0.226 C 
ATOM      7  C   UNL     1      33.706 -14.149 -23.076  0.00  0.00    +0.088 C 
ATOM      8  C   UNL     1      33.955 -14.947 -21.941  0.00  0.00    +0.154 C 
ATOM      9  C   UNL     1      33.484 -11.832 -24.002  0.00  0.00    +0.253 C 
ATOM     10  C   UNL     1      33.638 -14.801 -24.318  0.00  0.00    +0.020 C 
ATOM     11  C   UNL     1      34.118 -16.334 -22.047  0.00  0.00    +0.068 C 
ATOM     12  C   UNL     1      33.817 -16.185 -24.423  0.00  0.00    +0.031 C 
ATOM     13  C   UNL     1      34.056 -16.952 -23.289  0.00  0.00    +0.143 C 
ENDROOT
BRANCH   9  17
ATOM     14  O   UNL     1      32.916  -6.334 -22.964  0.00  0.00    -0.464 OA
ATOM     15  O   UNL     1      29.335  -6.142 -22.516  0.00  0.00    -0.271 OA
ATOM     16  N   UNL     1      30.622  -7.988 -22.992  0.00  0.00    -0.278 N 
ATOM     17  C   UNL     1      33.320 -10.401 -23.713  0.00  0.00    +0.055 C 
ATOM     18  C   UNL     1      32.048  -9.880 -23.473  0.00  0.00    +0.022 C 
ATOM     19  C   UNL     1      31.899  -8.520 -23.198  0.00  0.00    +0.085 C 
ATOM     20  C   UNL     1      34.435  -9.562 -23.689  0.00  0.00    +0.008 C 
ATOM     21  C   UNL     1      33.012  -7.681 -23.170  0.00  0.00    +0.153 C 
ATOM     22  C   UNL     1      34.281  -8.201 -23.426  0.00  0.00    +0.038 C 
ATOM     23  C   UNL     1      31.725  -5.931 -22.317  0.00  0.00    +0.290 C 
ATOM     24  C   UNL     1      30.438  -6.671 -22.640  0.00  0.00    +0.271 C 
ATOM     25  H   UNL     1      29.836  -8.570 -23.103  0.00  0.00    +0.155 HD
ENDBRANCH   9  17
BRANCH   5  26
ATOM     26  C   UNL     1      31.851 -12.480 -21.059  0.00  0.00    +0.109 C 
BRANCH  26  29
ATOM     27  O   UNL     1      30.244 -10.682 -21.254  0.00  0.00    -0.275 OA
ATOM     28  N   UNL     1      31.844 -10.609 -19.570  0.00  0.00    -0.303 N 
ATOM     29  C   UNL     1      31.205 -11.170 -20.666  0.00  0.00    +0.224 C 
ATOM     30  C   UNL     1      31.441  -9.353 -18.979  0.00  0.00    +0.111 C 
ATOM     31  H   UNL     1      32.608 -11.088 -19.176  0.00  0.00    +0.149 HD
ENDBRANCH  26  29
ENDBRANCH   5  26
TORSDOF 3
ENDMDL
MODEL 8
REMARK VINA RESULT:      -8.1     15.152     18.582
REMARK  Name = 118599727
REMARK  3 active torsions:
REMARK  status: ('A' for Active; 'I' for Inactive)
REMARK    1  A    between atoms: C_5  and  C_26
REMARK    2  A    between atoms: C_9  and  C_17
REMARK    3  A    between atoms: C_26  and  C_29
REMARK                            x       y       z     vdW  Elec       q    Type
REMARK                         _______ _______ _______ _____ _____    ______ ____
ROOT
ATOM      1  F   UNL     1      31.448  -1.786 -26.280  0.00  0.00    -0.204 F 
ATOM      2  O   UNL     1      30.433  -4.165 -22.356  0.00  0.00    -0.472 OA
ATOM      3  O   UNL     1      31.816  -8.166 -25.255  0.00  0.00    -0.270 OA
ATOM      4  N   UNL     1      31.386  -6.652 -23.482  0.00  0.00    -0.250 N 
ATOM      5  C   UNL     1      31.126  -6.476 -22.031  0.00  0.00    +0.133 C 
ATOM      6  C   UNL     1      30.032  -5.432 -21.846  0.00  0.00    +0.226 C 
ATOM      7  C   UNL     1      31.386  -5.423 -24.239  0.00  0.00    +0.088 C 
ATOM      8  C   UNL     1      30.923  -4.235 -23.637  0.00  0.00    +0.154 C 
ATOM      9  C   UNL     1      31.595  -7.913 -24.073  0.00  0.00    +0.253 C 
ATOM     10  C   UNL     1      31.869  -5.331 -25.554  0.00  0.00    +0.020 C 
ATOM     11  C   UNL     1      30.952  -3.013 -24.319  0.00  0.00    +0.068 C 
ATOM     12  C   UNL     1      31.883  -4.111 -26.240  0.00  0.00    +0.031 C 
ATOM     13  C   UNL     1      31.426  -2.952 -25.624  0.00  0.00    +0.143 C 
ENDROOT
BRANCH   9  17
ATOM     14  O   UNL     1      31.182 -12.467 -20.799  0.00  0.00    -0.464 OA
ATOM     15  O   UNL     1      34.085 -14.310 -21.910  0.00  0.00    -0.271 OA
ATOM     16  N   UNL     1      33.325 -12.263 -22.633  0.00  0.00    -0.278 N 
ATOM     17  C   UNL     1      31.510  -9.102 -23.214  0.00  0.00    +0.055 C 
ATOM     18  C   UNL     1      32.470 -10.110 -23.322  0.00  0.00    +0.022 C 
ATOM     19  C   UNL     1      32.386 -11.235 -22.502  0.00  0.00    +0.085 C 
ATOM     20  C   UNL     1      30.466  -9.228 -22.297  0.00  0.00    +0.008 C 
ATOM     21  C   UNL     1      31.345 -11.360 -21.583  0.00  0.00    +0.153 C 
ATOM     22  C   UNL     1      30.378 -10.360 -21.487  0.00  0.00    +0.038 C 
ATOM     23  C   UNL     1      32.359 -13.232 -20.624  0.00  0.00    +0.290 C 
ATOM     24  C   UNL     1      33.325 -13.352 -21.791  0.00  0.00    +0.271 C 
ATOM     25  H   UNL     1      34.002 -12.207 -23.345  0.00  0.00    +0.155 HD
ENDBRANCH   9  17
BRANCH   5  26
ATOM     26  C   UNL     1      32.409  -6.108 -21.276  0.00  0.00    +0.109 C 
BRANCH  26  29
ATOM     27  O   UNL     1      32.687  -5.929 -18.880  0.00  0.00    -0.275 OA
ATOM     28  N   UNL     1      32.026  -7.956 -19.806  0.00  0.00    -0.303 N 
ATOM     29  C   UNL     1      32.398  -6.620 -19.853  0.00  0.00    +0.224 C 
ATOM     30  C   UNL     1      31.932  -8.706 -18.575  0.00  0.00    +0.111 C 
ATOM     31  H   UNL     1      31.815  -8.414 -20.651  0.00  0.00    +0.149 HD
ENDBRANCH  26  29
ENDBRANCH   5  26
TORSDOF 3
ENDMDL
MODEL 9
REMARK VINA RESULT:      -7.2     14.526     17.428
REMARK  Name = 118599727
REMARK  3 active torsions:
REMARK  status: ('A' for Active; 'I' for Inactive)
REMARK    1  A    between atoms: C_5  and  C_26
REMARK    2  A    between atoms: C_9  and  C_17
REMARK    3  A    between atoms: C_26  and  C_29
REMARK                            x       y       z     vdW  Elec       q    Type
REMARK                         _______ _______ _______ _____ _____    ______ ____
ROOT
ATOM      1  F   UNL     1      33.240 -14.968 -20.242  0.00  0.00    -0.204 F 
ATOM      2  O   UNL     1      33.375 -11.973 -23.863  0.00  0.00    -0.472 OA
ATOM      3  O   UNL     1      30.495  -9.124 -20.713  0.00  0.00    -0.270 OA
ATOM      4  N   UNL     1      32.007  -9.916 -22.360  0.00  0.00    -0.250 N 
ATOM      5  C   UNL     1      32.714  -9.642 -23.635  0.00  0.00    +0.133 C 
ATOM      6  C   UNL     1      32.691 -10.898 -24.496  0.00  0.00    +0.226 C 
ATOM      7  C   UNL     1      32.281 -11.218 -21.796  0.00  0.00    +0.088 C 
ATOM      8  C   UNL     1      32.964 -12.180 -22.568  0.00  0.00    +0.154 C 
ATOM      9  C   UNL     1      31.126  -8.995 -21.760  0.00  0.00    +0.253 C 
ATOM     10  C   UNL     1      31.936 -11.574 -20.483  0.00  0.00    +0.020 C 
ATOM     11  C   UNL     1      33.293 -13.435 -22.043  0.00  0.00    +0.068 C 
ATOM     12  C   UNL     1      32.253 -12.835 -19.965  0.00  0.00    +0.031 C 
ATOM     13  C   UNL     1      32.931 -13.765 -20.743  0.00  0.00    +0.143 C 
ENDROOT
BRANCH   9  17
ATOM     14  O   UNL     1      30.083  -4.169 -24.452  0.00  0.00    -0.464 OA
ATOM     15  O   UNL     1      31.229  -1.802 -21.973  0.00  0.00    -0.271 OA
ATOM     16  N   UNL     1      31.214  -4.099 -21.861  0.00  0.00    -0.278 N 
ATOM     17  C   UNL     1      30.874  -7.726 -22.456  0.00  0.00    +0.055 C 
ATOM     18  C   UNL     1      31.181  -6.516 -21.831  0.00  0.00    +0.022 C 
ATOM     19  C   UNL     1      30.942  -5.314 -22.498  0.00  0.00    +0.085 C 
ATOM     20  C   UNL     1      30.321  -7.730 -23.737  0.00  0.00    +0.008 C 
ATOM     21  C   UNL     1      30.392  -5.317 -23.779  0.00  0.00    +0.153 C 
ATOM     22  C   UNL     1      30.072  -6.527 -24.396  0.00  0.00    +0.038 C 
ATOM     23  C   UNL     1      30.781  -3.025 -23.997  0.00  0.00    +0.290 C 
ATOM     24  C   UNL     1      31.068  -2.896 -22.511  0.00  0.00    +0.271 C 
ATOM     25  H   UNL     1      31.516  -4.105 -20.924  0.00  0.00    +0.155 HD
ENDBRANCH   9  17
BRANCH   5  26
ATOM     26  C   UNL     1      34.141  -9.139 -23.383  0.00  0.00    +0.109 C 
BRANCH  26  29
ATOM     27  O   UNL     1      34.550  -6.956 -22.424  0.00  0.00    -0.275 OA
ATOM     28  N   UNL     1      33.882  -7.123 -24.645  0.00  0.00    -0.303 N 
ATOM     29  C   UNL     1      34.224  -7.629 -23.398  0.00  0.00    +0.224 C 
ATOM     30  C   UNL     1      33.872  -5.710 -24.947  0.00  0.00    +0.111 C 
ATOM     31  H   UNL     1      33.636  -7.757 -25.356  0.00  0.00    +0.149 HD
ENDBRANCH  26  29
ENDBRANCH   5  26
TORSDOF 3
ENDMDL
