MODEL 1
REMARK VINA RESULT:     -11.5      0.000      0.000
REMARK  Name = 16741237
REMARK  5 active torsions:
REMARK  status: ('A' for Active; 'I' for Inactive)
REMARK    1  A    between atoms: C_5  and  C_23
REMARK    2  A    between atoms: C_7  and  C_29
REMARK    3  A    between atoms: N_28  and  C_31
REMARK    4  A    between atoms: C_31  and  C_32
REMARK    5  A    between atoms: C_32  and  N_33
REMARK                            x       y       z     vdW  Elec       q    Type
REMARK                         _______ _______ _______ _____ _____    ______ ____
ROOT
ATOM      1  S   UNL     1      33.321 -21.823 -18.613  0.00  0.00    -0.059 S 
ATOM      2  O   UNL     1      36.551 -18.728 -19.897  0.00  0.00    -0.270 OA
ATOM      3  N   UNL     1      34.488 -19.853 -19.938  0.00  0.00    -0.251 N 
ATOM      4  N   UNL     1      35.705 -20.945 -18.135  0.00  0.00    -0.380 NA
ATOM      5  C   UNL     1      35.418 -18.900 -20.372  0.00  0.00    +0.252 C 
ATOM      6  C   UNL     1      34.653 -20.780 -18.904  0.00  0.00    +0.213 C 
ATOM      7  C   UNL     1      35.450 -21.970 -17.244  0.00  0.00    +0.175 C 
ATOM      8  C   UNL     1      34.212 -22.567 -17.350  0.00  0.00    +0.129 C 
ATOM      9  H   UNL     1      33.624 -19.873 -20.412  0.00  0.00    +0.158 HD
ENDROOT
BRANCH   5  23
ATOM     10  O   UNL     1      32.750 -12.978 -25.577  0.00  0.00    -0.269 OA
ATOM     11  N   UNL     1      33.749 -15.562 -24.519  0.00  0.00    -0.350 N 
ATOM     12  N   UNL     1      32.258 -12.381 -23.406  0.00  0.00    -0.299 N 
ATOM     13  C   UNL     1      33.171 -13.675 -21.450  0.00  0.00    +0.044 C 
ATOM     14  C   UNL     1      33.513 -14.704 -22.484  0.00  0.00    +0.001 A 
ATOM     15  C   UNL     1      32.053 -12.767 -22.007  0.00  0.00    +0.094 C 
ATOM     16  C   UNL     1      33.315 -14.462 -23.830  0.00  0.00    +0.107 A 
ATOM     17  C   UNL     1      34.067 -16.007 -22.349  0.00  0.00    +0.013 A 
ATOM     18  C   UNL     1      34.204 -16.523 -23.641  0.00  0.00    +0.056 A 
ATOM     19  C   UNL     1      34.401 -12.851 -21.061  0.00  0.00    +0.007 C 
ATOM     20  C   UNL     1      32.764 -13.245 -24.377  0.00  0.00    +0.261 C 
ATOM     21  C   UNL     1      34.475 -16.799 -21.257  0.00  0.00    +0.006 C 
ATOM     22  C   UNL     1      34.724 -17.797 -23.893  0.00  0.00    +0.017 C 
ATOM     23  C   UNL     1      34.996 -18.076 -21.496  0.00  0.00    +0.054 C 
ATOM     24  C   UNL     1      35.117 -18.566 -22.794  0.00  0.00    +0.006 C 
ATOM     25  H   UNL     1      33.737 -15.654 -25.500  0.00  0.00    +0.166 HD
ATOM     26  H   UNL     1      32.025 -11.463 -23.675  0.00  0.00    +0.150 HD
ENDBRANCH   5  23
BRANCH   7  29
ATOM     27  O   UNL     1      37.545 -21.778 -16.179  0.00  0.00    -0.268 OA
ATOM     28  N   UNL     1      36.115 -23.423 -15.428  0.00  0.00    -0.301 N 
ATOM     29  C   UNL     1      36.444 -22.359 -16.284  0.00  0.00    +0.272 C 
ATOM     30  H   UNL     1      35.238 -23.858 -15.539  0.00  0.00    +0.150 HD
BRANCH  28  31
ATOM     31  C   UNL     1      36.996 -23.911 -14.392  0.00  0.00    +0.067 C 
BRANCH  31  32
ATOM     32  C   UNL     1      37.453 -25.334 -14.682  0.00  0.00    -0.056 C 
BRANCH  32  33
ATOM     33  N   UNL     1      38.366 -25.794 -13.644  0.00  0.00    +0.385 N 
ATOM     34  C   UNL     1      37.924 -25.336 -12.325  0.00  0.00    -0.101 C 
ATOM     35  C   UNL     1      39.728 -25.328 -13.911  0.00  0.00    -0.101 C 
ATOM     36  H   UNL     1      38.365 -26.814 -13.650  0.00  0.00    -0.080 HD
ENDBRANCH  32  33
ENDBRANCH  31  32
ENDBRANCH  28  31
ENDBRANCH   7  29
TORSDOF 5
ENDMDL
MODEL 2
REMARK VINA RESULT:     -11.2      3.690     11.192
REMARK  Name = 16741237
REMARK  5 active torsions:
REMARK  status: ('A' for Active; 'I' for Inactive)
REMARK    1  A    between atoms: C_5  and  C_23
REMARK    2  A    between atoms: C_7  and  C_29
REMARK    3  A    between atoms: N_28  and  C_31
REMARK    4  A    between atoms: C_31  and  C_32
REMARK    5  A    between atoms: C_32  and  N_33
REMARK                            x       y       z     vdW  Elec       q    Type
REMARK                         _______ _______ _______ _____ _____    ______ ____
ROOT
ATOM      1  S   UNL     1      36.255 -18.722 -21.013  0.00  0.00    -0.059 S 
ATOM      2  O   UNL     1      31.950 -20.324 -20.261  0.00  0.00    -0.270 OA
ATOM      3  N   UNL     1      34.249 -20.020 -19.877  0.00  0.00    -0.251 N 
ATOM      4  N   UNL     1      33.821 -18.712 -21.885  0.00  0.00    -0.380 NA
ATOM      5  C   UNL     1      32.977 -20.536 -19.597  0.00  0.00    +0.252 C 
ATOM      6  C   UNL     1      34.603 -19.183 -20.940  0.00  0.00    +0.213 C 
ATOM      7  C   UNL     1      34.574 -17.925 -22.736  0.00  0.00    +0.175 C 
ATOM      8  C   UNL     1      35.913 -17.812 -22.426  0.00  0.00    +0.129 C 
ATOM      9  H   UNL     1      34.973 -20.276 -19.259  0.00  0.00    +0.158 HD
ENDROOT
BRANCH   5  23
ATOM     10  O   UNL     1      30.796 -25.273 -13.112  0.00  0.00    -0.269 OA
ATOM     11  N   UNL     1      32.418 -23.860 -15.153  0.00  0.00    -0.350 N 
ATOM     12  N   UNL     1      29.016 -23.950 -13.737  0.00  0.00    -0.299 N 
ATOM     13  C   UNL     1      29.068 -22.602 -15.862  0.00  0.00    +0.044 C 
ATOM     14  C   UNL     1      30.534 -22.908 -15.843  0.00  0.00    +0.001 A 
ATOM     15  C   UNL     1      28.510 -22.763 -14.431  0.00  0.00    +0.094 C 
ATOM     16  C   UNL     1      31.079 -23.751 -14.894  0.00  0.00    +0.107 A 
ATOM     17  C   UNL     1      31.584 -22.472 -16.697  0.00  0.00    +0.013 A 
ATOM     18  C   UNL     1      32.756 -23.084 -16.241  0.00  0.00    +0.056 A 
ATOM     19  C   UNL     1      28.325 -23.512 -16.843  0.00  0.00    +0.007 C 
ATOM     20  C   UNL     1      30.333 -24.399 -13.841  0.00  0.00    +0.261 C 
ATOM     21  C   UNL     1      31.658 -21.623 -17.819  0.00  0.00    +0.006 C 
ATOM     22  C   UNL     1      33.999 -22.883 -16.851  0.00  0.00    +0.017 C 
ATOM     23  C   UNL     1      32.895 -21.412 -18.438  0.00  0.00    +0.054 C 
ATOM     24  C   UNL     1      34.047 -22.033 -17.960  0.00  0.00    +0.006 C 
ATOM     25  H   UNL     1      33.049 -24.413 -14.636  0.00  0.00    +0.166 HD
ATOM     26  H   UNL     1      28.395 -24.458 -13.168  0.00  0.00    +0.150 HD
ENDBRANCH   5  23
BRANCH   7  29
ATOM     27  O   UNL     1      33.362 -17.924 -24.758  0.00  0.00    -0.268 OA
ATOM     28  N   UNL     1      34.027 -15.884 -23.913  0.00  0.00    -0.301 N 
ATOM     29  C   UNL     1      33.959 -17.286 -23.864  0.00  0.00    +0.272 C 
ATOM     30  H   UNL     1      34.505 -15.414 -23.191  0.00  0.00    +0.150 HD
BRANCH  28  31
ATOM     31  C   UNL     1      33.432 -15.095 -24.968  0.00  0.00    +0.067 C 
BRANCH  31  32
ATOM     32  C   UNL     1      32.667 -13.907 -24.402  0.00  0.00    -0.056 C 
BRANCH  32  33
ATOM     33  N   UNL     1      33.481 -13.201 -23.420  0.00  0.00    +0.385 N 
ATOM     34  C   UNL     1      33.065 -13.548 -22.060  0.00  0.00    -0.101 C 
ATOM     35  C   UNL     1      33.395 -11.754 -23.623  0.00  0.00    -0.101 C 
ATOM     36  H   UNL     1      34.451 -13.490 -23.546  0.00  0.00    -0.080 HD
ENDBRANCH  32  33
ENDBRANCH  31  32
ENDBRANCH  28  31
ENDBRANCH   7  29
TORSDOF 5
ENDMDL
MODEL 3
REMARK VINA RESULT:     -11.1      5.105      9.288
REMARK  Name = 16741237
REMARK  5 active torsions:
REMARK  status: ('A' for Active; 'I' for Inactive)
REMARK    1  A    between atoms: C_5  and  C_23
REMARK    2  A    between atoms: C_7  and  C_29
REMARK    3  A    between atoms: N_28  and  C_31
REMARK    4  A    between atoms: C_31  and  C_32
REMARK    5  A    between atoms: C_32  and  N_33
REMARK                            x       y       z     vdW  Elec       q    Type
REMARK                         _______ _______ _______ _____ _____    ______ ____
ROOT
ATOM      1  S   UNL     1      32.833 -13.110 -25.515  0.00  0.00    -0.059 S 
ATOM      2  O   UNL     1      32.477 -12.979 -20.876  0.00  0.00    -0.270 OA
ATOM      3  N   UNL     1      32.403 -12.168 -23.081  0.00  0.00    -0.251 N 
ATOM      4  N   UNL     1      33.065 -14.495 -23.345  0.00  0.00    -0.380 NA
ATOM      5  C   UNL     1      32.279 -12.063 -21.690  0.00  0.00    +0.252 C 
ATOM      6  C   UNL     1      32.768 -13.303 -23.811  0.00  0.00    +0.213 C 
ATOM      7  C   UNL     1      33.368 -15.326 -24.406  0.00  0.00    +0.175 C 
ATOM      8  C   UNL     1      33.298 -14.755 -25.659  0.00  0.00    +0.129 C 
ATOM      9  H   UNL     1      32.214 -11.353 -23.602  0.00  0.00    +0.158 HD
ENDROOT
BRANCH   5  23
ATOM     10  O   UNL     1      30.340  -4.059 -20.488  0.00  0.00    -0.269 OA
ATOM     11  N   UNL     1      30.904  -6.929 -19.997  0.00  0.00    -0.350 N 
ATOM     12  N   UNL     1      31.272  -4.325 -22.579  0.00  0.00    -0.299 N 
ATOM     13  C   UNL     1      31.700  -6.610 -23.543  0.00  0.00    +0.044 C 
ATOM     14  C   UNL     1      31.466  -7.081 -22.141  0.00  0.00    +0.001 A 
ATOM     15  C   UNL     1      32.087  -5.116 -23.506  0.00  0.00    +0.094 C 
ATOM     16  C   UNL     1      31.068  -6.206 -21.148  0.00  0.00    +0.107 A 
ATOM     17  C   UNL     1      31.569  -8.378 -21.567  0.00  0.00    +0.013 A 
ATOM     18  C   UNL     1      31.212  -8.254 -20.221  0.00  0.00    +0.056 A 
ATOM     19  C   UNL     1      30.463  -6.833 -24.416  0.00  0.00    +0.007 C 
ATOM     20  C   UNL     1      30.854  -4.790 -21.333  0.00  0.00    +0.261 C 
ATOM     21  C   UNL     1      31.923  -9.651 -22.058  0.00  0.00    +0.006 C 
ATOM     22  C   UNL     1      31.197  -9.342 -19.341  0.00  0.00    +0.017 C 
ATOM     23  C   UNL     1      31.914 -10.747 -21.188  0.00  0.00    +0.054 C 
ATOM     24  C   UNL     1      31.557 -10.593 -19.851  0.00  0.00    +0.006 C 
ATOM     25  H   UNL     1      30.610  -6.556 -19.134  0.00  0.00    +0.166 HD
ATOM     26  H   UNL     1      31.005  -3.417 -22.851  0.00  0.00    +0.150 HD
ENDBRANCH   5  23
BRANCH   7  29
ATOM     27  O   UNL     1      33.306 -17.636 -24.874  0.00  0.00    -0.268 OA
ATOM     28  N   UNL     1      34.634 -16.939 -23.122  0.00  0.00    -0.301 N 
ATOM     29  C   UNL     1      33.734 -16.695 -24.172  0.00  0.00    +0.272 C 
ATOM     30  H   UNL     1      34.950 -16.173 -22.590  0.00  0.00    +0.150 HD
BRANCH  28  31
ATOM     31  C   UNL     1      35.119 -18.257 -22.781  0.00  0.00    +0.067 C 
BRANCH  31  32
ATOM     32  C   UNL     1      34.274 -18.890 -21.684  0.00  0.00    -0.056 C 
BRANCH  32  33
ATOM     33  N   UNL     1      35.075 -19.097 -20.484  0.00  0.00    +0.385 N 
ATOM     34  C   UNL     1      36.469 -18.713 -20.720  0.00  0.00    -0.101 C 
ATOM     35  C   UNL     1      35.001 -20.493 -20.050  0.00  0.00    -0.101 C 
ATOM     36  H   UNL     1      34.697 -18.506 -19.745  0.00  0.00    -0.080 HD
ENDBRANCH  32  33
ENDBRANCH  31  32
ENDBRANCH  28  31
ENDBRANCH   7  29
TORSDOF 5
ENDMDL
MODEL 4
REMARK VINA RESULT:     -10.8      2.302     11.222
REMARK  Name = 16741237
REMARK  5 active torsions:
REMARK  status: ('A' for Active; 'I' for Inactive)
REMARK    1  A    between atoms: C_5  and  C_23
REMARK    2  A    between atoms: C_7  and  C_29
REMARK    3  A    between atoms: N_28  and  C_31
REMARK    4  A    between atoms: C_31  and  C_32
REMARK    5  A    between atoms: C_32  and  N_33
REMARK                            x       y       z     vdW  Elec       q    Type
REMARK                         _______ _______ _______ _____ _____    ______ ____
ROOT
ATOM      1  S   UNL     1      36.431 -18.642 -21.077  0.00  0.00    -0.059 S 
ATOM      2  O   UNL     1      32.252 -20.453 -20.120  0.00  0.00    -0.270 OA
ATOM      3  N   UNL     1      34.546 -20.028 -19.842  0.00  0.00    -0.251 N 
ATOM      4  N   UNL     1      33.964 -18.767 -21.841  0.00  0.00    -0.380 NA
ATOM      5  C   UNL     1      33.316 -20.604 -19.500  0.00  0.00    +0.252 C 
ATOM      6  C   UNL     1      34.810 -19.186 -20.927  0.00  0.00    +0.213 C 
ATOM      7  C   UNL     1      34.637 -17.953 -22.732  0.00  0.00    +0.175 C 
ATOM      8  C   UNL     1      35.981 -17.768 -22.483  0.00  0.00    +0.129 C 
ATOM      9  H   UNL     1      35.309 -20.238 -19.254  0.00  0.00    +0.158 HD
ENDROOT
BRANCH   5  23
ATOM     10  O   UNL     1      35.062 -25.064 -12.695  0.00  0.00    -0.269 OA
ATOM     11  N   UNL     1      33.611 -23.872 -14.989  0.00  0.00    -0.350 N 
ATOM     12  N   UNL     1      37.021 -24.347 -13.674  0.00  0.00    -0.299 N 
ATOM     13  C   UNL     1      37.011 -22.675 -15.555  0.00  0.00    +0.044 C 
ATOM     14  C   UNL     1      35.546 -22.981 -15.619  0.00  0.00    +0.001 A 
ATOM     15  C   UNL     1      37.731 -23.846 -14.854  0.00  0.00    +0.094 C 
ATOM     16  C   UNL     1      34.946 -23.812 -14.693  0.00  0.00    +0.107 A 
ATOM     17  C   UNL     1      34.544 -22.538 -16.525  0.00  0.00    +0.013 A 
ATOM     18  C   UNL     1      33.339 -23.112 -16.107  0.00  0.00    +0.056 A 
ATOM     19  C   UNL     1      37.269 -21.357 -14.821  0.00  0.00    +0.007 C 
ATOM     20  C   UNL     1      35.633 -24.468 -13.606  0.00  0.00    +0.261 C 
ATOM     21  C   UNL     1      34.536 -21.698 -17.657  0.00  0.00    +0.006 C 
ATOM     22  C   UNL     1      32.127 -22.890 -16.771  0.00  0.00    +0.017 C 
ATOM     23  C   UNL     1      33.330 -21.469 -18.331  0.00  0.00    +0.054 C 
ATOM     24  C   UNL     1      32.146 -22.058 -17.894  0.00  0.00    +0.006 C 
ATOM     25  H   UNL     1      32.942 -24.384 -14.479  0.00  0.00    +0.166 HD
ATOM     26  H   UNL     1      37.551 -24.611 -12.888  0.00  0.00    +0.150 HD
ENDBRANCH   5  23
BRANCH   7  29
ATOM     27  O   UNL     1      33.237 -18.025 -24.628  0.00  0.00    -0.268 OA
ATOM     28  N   UNL     1      34.060 -15.968 -23.989  0.00  0.00    -0.301 N 
ATOM     29  C   UNL     1      33.942 -17.360 -23.839  0.00  0.00    +0.272 C 
ATOM     30  H   UNL     1      34.624 -15.476 -23.348  0.00  0.00    +0.150 HD
BRANCH  28  31
ATOM     31  C   UNL     1      33.397 -15.222 -25.034  0.00  0.00    +0.067 C 
BRANCH  31  32
ATOM     32  C   UNL     1      32.667 -14.012 -24.469  0.00  0.00    -0.056 C 
BRANCH  32  33
ATOM     33  N   UNL     1      33.481 -13.358 -23.452  0.00  0.00    +0.385 N 
ATOM     34  C   UNL     1      33.052 -13.758 -22.110  0.00  0.00    -0.101 C 
ATOM     35  C   UNL     1      33.411 -11.903 -23.593  0.00  0.00    -0.101 C 
ATOM     36  H   UNL     1      34.449 -13.651 -23.584  0.00  0.00    -0.080 HD
ENDBRANCH  32  33
ENDBRANCH  31  32
ENDBRANCH  28  31
ENDBRANCH   7  29
TORSDOF 5
ENDMDL
MODEL 5
REMARK VINA RESULT:     -10.5      4.319      7.689
REMARK  Name = 16741237
REMARK  5 active torsions:
REMARK  status: ('A' for Active; 'I' for Inactive)
REMARK    1  A    between atoms: C_5  and  C_23
REMARK    2  A    between atoms: C_7  and  C_29
REMARK    3  A    between atoms: N_28  and  C_31
REMARK    4  A    between atoms: C_31  and  C_32
REMARK    5  A    between atoms: C_32  and  N_33
REMARK                            x       y       z     vdW  Elec       q    Type
REMARK                         _______ _______ _______ _____ _____    ______ ____
ROOT
ATOM      1  S   UNL     1      33.469 -15.435 -24.670  0.00  0.00    -0.059 S 
ATOM      2  O   UNL     1      33.186 -13.045 -20.686  0.00  0.00    -0.270 OA
ATOM      3  N   UNL     1      32.887 -13.490 -22.975  0.00  0.00    -0.251 N 
ATOM      4  N   UNL     1      34.052 -15.462 -22.152  0.00  0.00    -0.380 NA
ATOM      5  C   UNL     1      32.770 -12.721 -21.810  0.00  0.00    +0.252 C 
ATOM      6  C   UNL     1      33.484 -14.748 -23.097  0.00  0.00    +0.213 C 
ATOM      7  C   UNL     1      34.514 -16.642 -22.701  0.00  0.00    +0.175 C 
ATOM      8  C   UNL     1      34.292 -16.807 -24.051  0.00  0.00    +0.129 C 
ATOM      9  H   UNL     1      32.507 -13.102 -23.797  0.00  0.00    +0.158 HD
ENDROOT
BRANCH   5  23
ATOM     10  O   UNL     1      30.648  -4.819 -23.332  0.00  0.00    -0.269 OA
ATOM     11  N   UNL     1      30.519  -7.665 -22.511  0.00  0.00    -0.350 N 
ATOM     12  N   UNL     1      32.942  -5.026 -23.373  0.00  0.00    -0.299 N 
ATOM     13  C   UNL     1      34.057  -7.283 -23.317  0.00  0.00    +0.044 C 
ATOM     14  C   UNL     1      32.701  -7.775 -22.913  0.00  0.00    +0.001 A 
ATOM     15  C   UNL     1      34.148  -5.773 -23.004  0.00  0.00    +0.094 C 
ATOM     16  C   UNL     1      31.610  -6.927 -22.880  0.00  0.00    +0.107 A 
ATOM     17  C   UNL     1      32.260  -9.071 -22.530  0.00  0.00    +0.013 A 
ATOM     18  C   UNL     1      30.887  -8.974 -22.282  0.00  0.00    +0.056 A 
ATOM     19  C   UNL     1      34.325  -7.550 -24.799  0.00  0.00    +0.007 C 
ATOM     20  C   UNL     1      31.649  -5.520 -23.202  0.00  0.00    +0.261 C 
ATOM     21  C   UNL     1      32.888 -10.323 -22.374  0.00  0.00    +0.006 C 
ATOM     22  C   UNL     1      30.114 -10.069 -21.882  0.00  0.00    +0.017 C 
ATOM     23  C   UNL     1      32.126 -11.426 -21.973  0.00  0.00    +0.054 C 
ATOM     24  C   UNL     1      30.760 -11.299 -21.730  0.00  0.00    +0.006 C 
ATOM     25  H   UNL     1      29.603  -7.313 -22.422  0.00  0.00    +0.166 HD
ATOM     26  H   UNL     1      33.050  -4.129 -23.762  0.00  0.00    +0.150 HD
ENDBRANCH   5  23
BRANCH   7  29
ATOM     27  O   UNL     1      36.394 -17.519 -21.579  0.00  0.00    -0.268 OA
ATOM     28  N   UNL     1      34.405 -18.670 -21.386  0.00  0.00    -0.301 N 
ATOM     29  C   UNL     1      35.184 -17.610 -21.878  0.00  0.00    +0.272 C 
ATOM     30  H   UNL     1      33.454 -18.709 -21.641  0.00  0.00    +0.150 HD
BRANCH  28  31
ATOM     31  C   UNL     1      34.926 -19.705 -20.522  0.00  0.00    +0.067 C 
BRANCH  31  32
ATOM     32  C   UNL     1      33.803 -20.539 -19.921  0.00  0.00    -0.056 C 
BRANCH  32  33
ATOM     33  N   UNL     1      34.352 -21.658 -19.165  0.00  0.00    +0.385 N 
ATOM     34  C   UNL     1      33.395 -22.118 -18.157  0.00  0.00    -0.101 C 
ATOM     35  C   UNL     1      35.616 -21.281 -18.530  0.00  0.00    -0.101 C 
ATOM     36  H   UNL     1      34.530 -22.422 -19.816  0.00  0.00    -0.080 HD
ENDBRANCH  32  33
ENDBRANCH  31  32
ENDBRANCH  28  31
ENDBRANCH   7  29
TORSDOF 5
ENDMDL
MODEL 6
REMARK VINA RESULT:     -10.0      5.770      9.741
REMARK  Name = 16741237
REMARK  5 active torsions:
REMARK  status: ('A' for Active; 'I' for Inactive)
REMARK    1  A    between atoms: C_5  and  C_23
REMARK    2  A    between atoms: C_7  and  C_29
REMARK    3  A    between atoms: N_28  and  C_31
REMARK    4  A    between atoms: C_31  and  C_32
REMARK    5  A    between atoms: C_32  and  N_33
REMARK                            x       y       z     vdW  Elec       q    Type
REMARK                         _______ _______ _______ _____ _____    ______ ____
ROOT
ATOM      1  S   UNL     1      33.068 -13.472 -25.022  0.00  0.00    -0.059 S 
ATOM      2  O   UNL     1      32.559 -10.640 -21.365  0.00  0.00    -0.270 OA
ATOM      3  N   UNL     1      32.463 -11.317 -23.613  0.00  0.00    -0.251 N 
ATOM      4  N   UNL     1      33.386 -13.255 -22.466  0.00  0.00    -0.380 NA
ATOM      5  C   UNL     1      32.286 -10.417 -22.554  0.00  0.00    +0.252 C 
ATOM      6  C   UNL     1      32.973 -12.617 -23.538  0.00  0.00    +0.213 C 
ATOM      7  C   UNL     1      33.812 -14.517 -22.835  0.00  0.00    +0.175 C 
ATOM      8  C   UNL     1      33.717 -14.817 -24.177  0.00  0.00    +0.129 C 
ATOM      9  H   UNL     1      32.201 -10.999 -24.508  0.00  0.00    +0.158 HD
ENDROOT
BRANCH   5  23
ATOM     10  O   UNL     1      30.851  -2.724 -25.385  0.00  0.00    -0.269 OA
ATOM     11  N   UNL     1      30.496  -5.353 -24.061  0.00  0.00    -0.350 N 
ATOM     12  N   UNL     1      33.108  -3.176 -25.484  0.00  0.00    -0.299 N 
ATOM     13  C   UNL     1      34.000  -5.493 -25.068  0.00  0.00    +0.044 C 
ATOM     14  C   UNL     1      32.630  -5.761 -24.527  0.00  0.00    +0.001 A 
ATOM     15  C   UNL     1      34.256  -3.970 -25.036  0.00  0.00    +0.094 C 
ATOM     16  C   UNL     1      31.630  -4.809 -24.601  0.00  0.00    +0.107 A 
ATOM     17  C   UNL     1      32.089  -6.916 -23.898  0.00  0.00    +0.013 A 
ATOM     18  C   UNL     1      30.749  -6.633 -23.615  0.00  0.00    +0.056 A 
ATOM     19  C   UNL     1      34.152  -6.042 -26.488  0.00  0.00    +0.007 C 
ATOM     20  C   UNL     1      31.786  -3.493 -25.173  0.00  0.00    +0.261 C 
ATOM     21  C   UNL     1      32.602  -8.181 -23.546  0.00  0.00    +0.006 C 
ATOM     22  C   UNL     1      29.899  -7.553 -22.992  0.00  0.00    +0.017 C 
ATOM     23  C   UNL     1      31.762  -9.110 -22.921  0.00  0.00    +0.054 C 
ATOM     24  C   UNL     1      30.432  -8.799 -22.649  0.00  0.00    +0.006 C 
ATOM     25  H   UNL     1      29.626  -4.896 -23.998  0.00  0.00    +0.166 HD
ATOM     26  H   UNL     1      33.279  -2.377 -26.032  0.00  0.00    +0.150 HD
ENDBRANCH   5  23
BRANCH   7  29
ATOM     27  O   UNL     1      34.224 -15.213 -20.620  0.00  0.00    -0.268 OA
ATOM     28  N   UNL     1      34.913 -16.609 -22.322  0.00  0.00    -0.301 N 
ATOM     29  C   UNL     1      34.319 -15.427 -21.848  0.00  0.00    +0.272 C 
ATOM     30  H   UNL     1      34.970 -16.744 -23.296  0.00  0.00    +0.150 HD
BRANCH  28  31
ATOM     31  C   UNL     1      35.443 -17.636 -21.454  0.00  0.00    +0.067 C 
BRANCH  31  32
ATOM     32  C   UNL     1      34.643 -18.925 -21.573  0.00  0.00    -0.056 C 
BRANCH  32  33
ATOM     33  N   UNL     1      34.380 -19.481 -20.251  0.00  0.00    +0.385 N 
ATOM     34  C   UNL     1      35.421 -20.442 -19.879  0.00  0.00    -0.101 C 
ATOM     35  C   UNL     1      33.064 -20.120 -20.213  0.00  0.00    -0.101 C 
ATOM     36  H   UNL     1      34.389 -18.716 -19.578  0.00  0.00    -0.080 HD
ENDBRANCH  32  33
ENDBRANCH  31  32
ENDBRANCH  28  31
ENDBRANCH   7  29
TORSDOF 5
ENDMDL
MODEL 7
REMARK VINA RESULT:      -9.9      5.826      9.825
REMARK  Name = 16741237
REMARK  5 active torsions:
REMARK  status: ('A' for Active; 'I' for Inactive)
REMARK    1  A    between atoms: C_5  and  C_23
REMARK    2  A    between atoms: C_7  and  C_29
REMARK    3  A    between atoms: N_28  and  C_31
REMARK    4  A    between atoms: C_31  and  C_32
REMARK    5  A    between atoms: C_32  and  N_33
REMARK                            x       y       z     vdW  Elec       q    Type
REMARK                         _______ _______ _______ _____ _____    ______ ____
ROOT
ATOM      1  S   UNL     1      31.962 -12.997 -20.216  0.00  0.00    -0.059 S 
ATOM      2  O   UNL     1      33.397 -10.654 -23.972  0.00  0.00    -0.270 OA
ATOM      3  N   UNL     1      32.222 -11.037 -21.973  0.00  0.00    -0.251 N 
ATOM      4  N   UNL     1      33.450 -13.109 -22.326  0.00  0.00    -0.380 NA
ATOM      5  C   UNL     1      32.616 -10.280 -23.084  0.00  0.00    +0.252 C 
ATOM      6  C   UNL     1      32.626 -12.337 -21.654  0.00  0.00    +0.213 C 
ATOM      7  C   UNL     1      33.574 -14.314 -21.663  0.00  0.00    +0.175 C 
ATOM      8  C   UNL     1      32.843 -14.441 -20.500  0.00  0.00    +0.129 C 
ATOM      9  H   UNL     1      31.593 -10.606 -21.348  0.00  0.00    +0.158 HD
ENDROOT
BRANCH   5  23
ATOM     10  O   UNL     1      30.455  -2.436 -24.837  0.00  0.00    -0.269 OA
ATOM     11  N   UNL     1      30.495  -5.150 -23.644  0.00  0.00    -0.350 N 
ATOM     12  N   UNL     1      32.575  -2.853 -25.640  0.00  0.00    -0.299 N 
ATOM     13  C   UNL     1      33.532  -5.181 -25.666  0.00  0.00    +0.044 C 
ATOM     14  C   UNL     1      32.386  -5.501 -24.756  0.00  0.00    +0.001 A 
ATOM     15  C   UNL     1      33.797  -3.661 -25.612  0.00  0.00    +0.094 C 
ATOM     16  C   UNL     1      31.418  -4.559 -24.464  0.00  0.00    +0.107 A 
ATOM     17  C   UNL     1      32.051  -6.702 -24.072  0.00  0.00    +0.013 A 
ATOM     18  C   UNL     1      30.860  -6.454 -23.381  0.00  0.00    +0.056 A 
ATOM     19  C   UNL     1      33.246  -5.635 -27.099  0.00  0.00    +0.007 C 
ATOM     20  C   UNL     1      31.405  -3.206 -24.967  0.00  0.00    +0.261 C 
ATOM     21  C   UNL     1      32.636  -7.980 -23.975  0.00  0.00    +0.006 C 
ATOM     22  C   UNL     1      30.230  -7.423 -22.593  0.00  0.00    +0.017 C 
ATOM     23  C   UNL     1      32.016  -8.958 -23.189  0.00  0.00    +0.054 C 
ATOM     24  C   UNL     1      30.832  -8.682 -22.509  0.00  0.00    +0.006 C 
ATOM     25  H   UNL     1      29.688  -4.709 -23.293  0.00  0.00    +0.166 HD
ATOM     26  H   UNL     1      32.579  -2.018 -26.160  0.00  0.00    +0.150 HD
ENDBRANCH   5  23
BRANCH   7  29
ATOM     27  O   UNL     1      34.973 -15.262 -23.307  0.00  0.00    -0.268 OA
ATOM     28  N   UNL     1      34.634 -16.469 -21.371  0.00  0.00    -0.301 N 
ATOM     29  C   UNL     1      34.420 -15.347 -22.190  0.00  0.00    +0.272 C 
ATOM     30  H   UNL     1      34.183 -16.502 -20.497  0.00  0.00    +0.150 HD
BRANCH  28  31
ATOM     31  C   UNL     1      35.483 -17.577 -21.747  0.00  0.00    +0.067 C 
BRANCH  31  32
ATOM     32  C   UNL     1      34.708 -18.887 -21.754  0.00  0.00    -0.056 C 
BRANCH  32  33
ATOM     33  N   UNL     1      34.500 -19.359 -20.391  0.00  0.00    +0.385 N 
ATOM     34  C   UNL     1      35.579 -20.263 -19.986  0.00  0.00    -0.101 C 
ATOM     35  C   UNL     1      33.204 -20.030 -20.269  0.00  0.00    -0.101 C 
ATOM     36  H   UNL     1      34.506 -18.549 -19.770  0.00  0.00    -0.080 HD
ENDBRANCH  32  33
ENDBRANCH  31  32
ENDBRANCH  28  31
ENDBRANCH   7  29
TORSDOF 5
ENDMDL
MODEL 8
REMARK VINA RESULT:      -9.1      2.933      4.784
REMARK  Name = 16741237
REMARK  5 active torsions:
REMARK  status: ('A' for Active; 'I' for Inactive)
REMARK    1  A    between atoms: C_5  and  C_23
REMARK    2  A    between atoms: C_7  and  C_29
REMARK    3  A    between atoms: N_28  and  C_31
REMARK    4  A    between atoms: C_31  and  C_32
REMARK    5  A    between atoms: C_32  and  N_33
REMARK                            x       y       z     vdW  Elec       q    Type
REMARK                         _______ _______ _______ _____ _____    ______ ____
ROOT
ATOM      1  S   UNL     1      34.480 -18.982 -23.094  0.00  0.00    -0.059 S 
ATOM      2  O   UNL     1      34.132 -15.399 -20.144  0.00  0.00    -0.270 OA
ATOM      3  N   UNL     1      34.085 -16.521 -22.209  0.00  0.00    -0.251 N 
ATOM      4  N   UNL     1      34.666 -18.268 -20.617  0.00  0.00    -0.380 NA
ATOM      5  C   UNL     1      33.966 -15.403 -21.374  0.00  0.00    +0.252 C 
ATOM      6  C   UNL     1      34.410 -17.826 -21.827  0.00  0.00    +0.213 C 
ATOM      7  C   UNL     1      34.940 -19.620 -20.684  0.00  0.00    +0.175 C 
ATOM      8  C   UNL     1      34.888 -20.184 -21.941  0.00  0.00    +0.129 C 
ATOM      9  H   UNL     1      33.923 -16.371 -23.170  0.00  0.00    +0.158 HD
ENDROOT
BRANCH   5  23
ATOM     10  O   UNL     1      31.446  -7.807 -23.657  0.00  0.00    -0.269 OA
ATOM     11  N   UNL     1      32.627 -10.526 -23.728  0.00  0.00    -0.350 N 
ATOM     12  N   UNL     1      30.441  -8.390 -21.668  0.00  0.00    -0.299 N 
ATOM     13  C   UNL     1      31.148 -10.442 -20.393  0.00  0.00    +0.044 C 
ATOM     14  C   UNL     1      31.854 -10.804 -21.664  0.00  0.00    +0.001 A 
ATOM     15  C   UNL     1      30.030  -9.430 -20.720  0.00  0.00    +0.094 C 
ATOM     16  C   UNL     1      31.890  -9.935 -22.737  0.00  0.00    +0.107 A 
ATOM     17  C   UNL     1      32.577 -11.975 -22.023  0.00  0.00    +0.013 A 
ATOM     18  C   UNL     1      33.051 -11.774 -23.324  0.00  0.00    +0.056 A 
ATOM     19  C   UNL     1      32.123  -9.866 -19.364  0.00  0.00    +0.007 C 
ATOM     20  C   UNL     1      31.265  -8.634 -22.766  0.00  0.00    +0.261 C 
ATOM     21  C   UNL     1      32.885 -13.186 -21.371  0.00  0.00    +0.006 C 
ATOM     22  C   UNL     1      33.814 -12.729 -24.004  0.00  0.00    +0.017 C 
ATOM     23  C   UNL     1      33.646 -14.150 -22.042  0.00  0.00    +0.054 C 
ATOM     24  C   UNL     1      34.102 -13.924 -23.339  0.00  0.00    +0.006 C 
ATOM     25  H   UNL     1      32.826 -10.118 -24.602  0.00  0.00    +0.166 HD
ATOM     26  H   UNL     1      30.118  -7.472 -21.522  0.00  0.00    +0.150 HD
ENDBRANCH   5  23
BRANCH   7  29
ATOM     27  O   UNL     1      36.321 -20.183 -18.857  0.00  0.00    -0.268 OA
ATOM     28  N   UNL     1      34.296 -21.271 -19.037  0.00  0.00    -0.301 N 
ATOM     29  C   UNL     1      35.258 -20.354 -19.492  0.00  0.00    +0.272 C 
ATOM     30  H   UNL     1      33.470 -21.380 -19.562  0.00  0.00    +0.150 HD
BRANCH  28  31
ATOM     31  C   UNL     1      34.456 -22.063 -17.839  0.00  0.00    +0.067 C 
BRANCH  31  32
ATOM     32  C   UNL     1      33.125 -22.639 -17.377  0.00  0.00    -0.056 C 
BRANCH  32  33
ATOM     33  N   UNL     1      33.250 -23.189 -16.033  0.00  0.00    +0.385 N 
ATOM     34  C   UNL     1      31.985 -23.067 -15.305  0.00  0.00    -0.101 C 
ATOM     35  C   UNL     1      34.323 -22.517 -15.299  0.00  0.00    -0.101 C 
ATOM     36  H   UNL     1      33.482 -24.178 -16.115  0.00  0.00    -0.080 HD
ENDBRANCH  32  33
ENDBRANCH  31  32
ENDBRANCH  28  31
ENDBRANCH   7  29
TORSDOF 5
ENDMDL
MODEL 9
REMARK VINA RESULT:      -8.9      5.237      8.933
REMARK  Name = 16741237
REMARK  5 active torsions:
REMARK  status: ('A' for Active; 'I' for Inactive)
REMARK    1  A    between atoms: C_5  and  C_23
REMARK    2  A    between atoms: C_7  and  C_29
REMARK    3  A    between atoms: N_28  and  C_31
REMARK    4  A    between atoms: C_31  and  C_32
REMARK    5  A    between atoms: C_32  and  N_33
REMARK                            x       y       z     vdW  Elec       q    Type
REMARK                         _______ _______ _______ _____ _____    ______ ____
ROOT
ATOM      1  S   UNL     1      33.420 -14.317 -24.901  0.00  0.00    -0.059 S 
ATOM      2  O   UNL     1      32.740 -11.504 -21.257  0.00  0.00    -0.270 OA
ATOM      3  N   UNL     1      32.765 -12.163 -23.513  0.00  0.00    -0.251 N 
ATOM      4  N   UNL     1      33.592 -14.123 -22.329  0.00  0.00    -0.380 NA
ATOM      5  C   UNL     1      32.540 -11.268 -22.459  0.00  0.00    +0.252 C 
ATOM      6  C   UNL     1      33.251 -13.471 -23.418  0.00  0.00    +0.213 C 
ATOM      7  C   UNL     1      34.020 -15.388 -22.683  0.00  0.00    +0.175 C 
ATOM      8  C   UNL     1      33.999 -15.677 -24.031  0.00  0.00    +0.129 C 
ATOM      9  H   UNL     1      32.560 -11.835 -24.419  0.00  0.00    +0.158 HD
ENDROOT
BRANCH   5  23
ATOM     10  O   UNL     1      30.067  -3.340 -22.995  0.00  0.00    -0.269 OA
ATOM     11  N   UNL     1      30.713  -6.146 -23.702  0.00  0.00    -0.350 N 
ATOM     12  N   UNL     1      30.218  -3.955 -20.780  0.00  0.00    -0.299 N 
ATOM     13  C   UNL     1      31.259  -6.142 -20.095  0.00  0.00    +0.044 C 
ATOM     14  C   UNL     1      31.133  -6.485 -21.547  0.00  0.00    +0.001 A 
ATOM     15  C   UNL     1      30.261  -5.012 -19.764  0.00  0.00    +0.094 C 
ATOM     16  C   UNL     1      30.689  -5.555 -22.468  0.00  0.00    +0.107 A 
ATOM     17  C   UNL     1      31.416  -7.692 -22.244  0.00  0.00    +0.013 A 
ATOM     18  C   UNL     1      31.143  -7.452 -23.595  0.00  0.00    +0.056 A 
ATOM     19  C   UNL     1      32.690  -5.727 -19.746  0.00  0.00    +0.007 C 
ATOM     20  C   UNL     1      30.297  -4.203 -22.150  0.00  0.00    +0.261 C 
ATOM     21  C   UNL     1      31.884  -8.966 -21.865  0.00  0.00    +0.006 C 
ATOM     22  C   UNL     1      31.312  -8.427 -24.583  0.00  0.00    +0.017 C 
ATOM     23  C   UNL     1      32.057  -9.951 -22.844  0.00  0.00    +0.054 C 
ATOM     24  C   UNL     1      31.774  -9.684 -24.182  0.00  0.00    +0.006 C 
ATOM     25  H   UNL     1      30.459  -5.703 -24.545  0.00  0.00    +0.166 HD
ATOM     26  H   UNL     1      30.129  -3.022 -20.479  0.00  0.00    +0.150 HD
ENDBRANCH   5  23
BRANCH   7  29
ATOM     27  O   UNL     1      34.491 -16.021 -20.461  0.00  0.00    -0.268 OA
ATOM     28  N   UNL     1      34.821 -17.598 -22.111  0.00  0.00    -0.301 N 
ATOM     29  C   UNL     1      34.455 -16.313 -21.675  0.00  0.00    +0.272 C 
ATOM     30  H   UNL     1      34.780 -17.793 -23.075  0.00  0.00    +0.150 HD
BRANCH  28  31
ATOM     31  C   UNL     1      35.251 -18.648 -21.216  0.00  0.00    +0.067 C 
BRANCH  31  32
ATOM     32  C   UNL     1      34.108 -19.597 -20.888  0.00  0.00    -0.056 C 
BRANCH  32  33
ATOM     33  N   UNL     1      34.325 -20.224 -19.591  0.00  0.00    +0.385 N 
ATOM     34  C   UNL     1      35.620 -20.907 -19.557  0.00  0.00    -0.101 C 
ATOM     35  C   UNL     1      33.247 -21.166 -19.286  0.00  0.00    -0.101 C 
ATOM     36  H   UNL     1      34.327 -19.491 -18.881  0.00  0.00    -0.080 HD
ENDBRANCH  32  33
ENDBRANCH  31  32
ENDBRANCH  28  31
ENDBRANCH   7  29
TORSDOF 5
ENDMDL
