MODEL 1
REMARK VINA RESULT:     -11.7      0.000      0.000
REMARK  Name = 23647657
REMARK  5 active torsions:
REMARK  status: ('A' for Active; 'I' for Inactive)
REMARK    1  A    between atoms: C_1  and  S_26
REMARK    2  A    between atoms: C_2  and  C_25
REMARK    3  A    between atoms: C_3  and  C_8
REMARK    4  A    between atoms: C_10  and  C_16
REMARK    5  A    between atoms: S_26  and  N_29
REMARK                            x       y       z     vdW  Elec       q    Type
REMARK                         _______ _______ _______ _____ _____    ______ ____
ROOT
ATOM      1  C   UNL     1      33.857 -22.018 -17.564  0.00  0.00    +0.126 C 
ATOM      2  C   UNL     1      35.181 -21.579 -17.520  0.00  0.00    +0.090 C 
ATOM      3  C   UNL     1      34.847 -20.366 -19.583  0.00  0.00    +0.035 C 
ATOM      4  C   UNL     1      35.676 -20.754 -18.529  0.00  0.00    +0.008 C 
ATOM      5  C   UNL     1      33.029 -21.630 -18.617  0.00  0.00    +0.020 C 
ATOM      6  C   UNL     1      33.524 -20.805 -19.626  0.00  0.00    +0.004 C 
ENDROOT
BRANCH   3   8
ATOM      7  O   UNL     1      34.423 -18.978 -21.454  0.00  0.00    -0.453 OA
ATOM      8  C   UNL     1      35.359 -19.513 -20.627  0.00  0.00    +0.145 C 
ATOM      9  C   UNL     1      36.619 -19.100 -20.991  0.00  0.00    +0.041 C 
ATOM     10  C   UNL     1      35.093 -18.215 -22.357  0.00  0.00    +0.147 C 
ATOM     11  C   UNL     1      36.446 -18.256 -22.115  0.00  0.00    +0.041 C 
BRANCH  10  16
ATOM     12  S   UNL     1      34.288 -15.164 -21.971  0.00  0.00    -0.027 S 
ATOM     13  O   UNL     1      33.058 -16.007 -25.471  0.00  0.00    -0.209 OA
ATOM     14  N   UNL     1      33.086 -14.178 -24.046  0.00  0.00    -0.311 NA
ATOM     15  N   UNL     1      33.387 -12.665 -22.225  0.00  0.00    -0.327 N 
ATOM     16  C   UNL     1      34.427 -17.503 -23.380  0.00  0.00    +0.057 C 
ATOM     17  C   UNL     1      34.049 -16.210 -23.307  0.00  0.00    +0.131 C 
ATOM     18  C   UNL     1      33.350 -15.488 -24.402  0.00  0.00    +0.213 C 
ATOM     19  C   UNL     1      33.498 -13.867 -22.856  0.00  0.00    +0.222 C 
ATOM     20  H   UNL     1      33.742 -12.552 -21.314  0.00  0.00    +0.145 HD
ATOM     21  H   UNL     1      32.951 -11.909 -22.680  0.00  0.00    +0.145 HD
ENDBRANCH  10  16
ENDBRANCH   3   8
BRANCH   2  25
ATOM     22  F   UNL     1      35.964 -23.282 -16.034  0.00  0.00    -0.166 F 
ATOM     23  F   UNL     1      37.418 -21.819 -16.706  0.00  0.00    -0.166 F 
ATOM     24  F   UNL     1      35.886 -21.247 -15.273  0.00  0.00    -0.166 F 
ATOM     25  C   UNL     1      36.094 -21.976 -16.406  0.00  0.00    +0.420 C 
ENDBRANCH   2  25
BRANCH   1  26
ATOM     26  S   UNL     1      33.204 -23.054 -16.314  0.00  0.00    +0.057 S 
ATOM     27  O   UNL     1      33.793 -24.376 -16.464  0.00  0.00    -0.153 OA
ATOM     28  O   UNL     1      33.301 -22.356 -15.042  0.00  0.00    -0.153 OA
BRANCH  26  29
ATOM     29  N   UNL     1      31.562 -23.123 -16.781  0.00  0.00    -0.203 NA
ATOM     30  H   UNL     1      31.373 -24.021 -17.226  0.00  0.00    +0.144 HD
ATOM     31  H   UNL     1      31.363 -22.369 -17.438  0.00  0.00    +0.144 HD
ENDBRANCH  26  29
ENDBRANCH   1  26
TORSDOF 5
ENDMDL
MODEL 2
REMARK VINA RESULT:     -11.7      4.083      9.090
REMARK  Name = 23647657
REMARK  5 active torsions:
REMARK  status: ('A' for Active; 'I' for Inactive)
REMARK    1  A    between atoms: C_1  and  S_26
REMARK    2  A    between atoms: C_2  and  C_25
REMARK    3  A    between atoms: C_3  and  C_8
REMARK    4  A    between atoms: C_10  and  C_16
REMARK    5  A    between atoms: S_26  and  N_29
REMARK                            x       y       z     vdW  Elec       q    Type
REMARK                         _______ _______ _______ _____ _____    ______ ____
ROOT
ATOM      1  C   UNL     1      33.531 -14.514 -23.268  0.00  0.00    +0.126 C 
ATOM      2  C   UNL     1      33.826 -14.500 -21.904  0.00  0.00    +0.090 C 
ATOM      3  C   UNL     1      34.600 -16.785 -22.050  0.00  0.00    +0.035 C 
ATOM      4  C   UNL     1      34.360 -15.636 -21.295  0.00  0.00    +0.008 C 
ATOM      5  C   UNL     1      33.771 -15.662 -24.022  0.00  0.00    +0.020 C 
ATOM      6  C   UNL     1      34.305 -16.798 -23.413  0.00  0.00    +0.004 C 
ENDROOT
BRANCH   3   8
ATOM      7  O   UNL     1      34.250 -18.777 -20.818  0.00  0.00    -0.453 OA
ATOM      8  C   UNL     1      35.152 -17.959 -21.420  0.00  0.00    +0.145 C 
ATOM      9  C   UNL     1      36.426 -18.460 -21.284  0.00  0.00    +0.041 C 
ATOM     10  C   UNL     1      34.955 -19.812 -20.291  0.00  0.00    +0.147 C 
ATOM     11  C   UNL     1      36.297 -19.664 -20.550  0.00  0.00    +0.041 C 
BRANCH  10  16
ATOM     12  S   UNL     1      36.193 -20.929 -17.584  0.00  0.00    -0.027 S 
ATOM     13  O   UNL     1      33.064 -23.029 -18.102  0.00  0.00    -0.209 OA
ATOM     14  N   UNL     1      34.787 -22.851 -16.561  0.00  0.00    -0.311 NA
ATOM     15  N   UNL     1      36.739 -22.247 -15.329  0.00  0.00    -0.327 N 
ATOM     16  C   UNL     1      34.330 -20.864 -19.583  0.00  0.00    +0.057 C 
ATOM     17  C   UNL     1      34.780 -21.400 -18.431  0.00  0.00    +0.131 C 
ATOM     18  C   UNL     1      34.099 -22.507 -17.710  0.00  0.00    +0.213 C 
ATOM     19  C   UNL     1      35.858 -22.147 -16.363  0.00  0.00    +0.222 C 
ATOM     20  H   UNL     1      37.522 -21.651 -15.290  0.00  0.00    +0.145 HD
ATOM     21  H   UNL     1      36.594 -22.915 -14.621  0.00  0.00    +0.145 HD
ENDBRANCH  10  16
ENDBRANCH   3   8
BRANCH   2  25
ATOM     22  F   UNL     1      33.856 -12.117 -21.713  0.00  0.00    -0.166 F 
ATOM     23  F   UNL     1      32.287 -13.169 -20.649  0.00  0.00    -0.166 F 
ATOM     24  F   UNL     1      34.338 -13.271 -19.935  0.00  0.00    -0.166 F 
ATOM     25  C   UNL     1      33.581 -13.287 -21.069  0.00  0.00    +0.420 C 
ENDBRANCH   2  25
BRANCH   1  26
ATOM     26  S   UNL     1      32.861 -13.107 -24.065  0.00  0.00    +0.057 S 
ATOM     27  O   UNL     1      31.640 -12.729 -23.369  0.00  0.00    -0.153 OA
ATOM     28  O   UNL     1      33.925 -12.132 -24.247  0.00  0.00    -0.153 OA
BRANCH  26  29
ATOM     29  N   UNL     1      32.450 -13.765 -25.586  0.00  0.00    -0.203 NA
ATOM     30  H   UNL     1      32.903 -13.225 -26.324  0.00  0.00    +0.144 HD
ATOM     31  H   UNL     1      31.438 -13.729 -25.711  0.00  0.00    +0.144 HD
ENDBRANCH  26  29
ENDBRANCH   1  26
TORSDOF 5
ENDMDL
MODEL 3
REMARK VINA RESULT:     -11.0      3.602      5.148
REMARK  Name = 23647657
REMARK  5 active torsions:
REMARK  status: ('A' for Active; 'I' for Inactive)
REMARK    1  A    between atoms: C_1  and  S_26
REMARK    2  A    between atoms: C_2  and  C_25
REMARK    3  A    between atoms: C_3  and  C_8
REMARK    4  A    between atoms: C_10  and  C_16
REMARK    5  A    between atoms: S_26  and  N_29
REMARK                            x       y       z     vdW  Elec       q    Type
REMARK                         _______ _______ _______ _____ _____    ______ ____
ROOT
ATOM      1  C   UNL     1      35.820 -23.970 -13.150  0.00  0.00    +0.126 C 
ATOM      2  C   UNL     1      36.776 -23.886 -14.162  0.00  0.00    +0.090 C 
ATOM      3  C   UNL     1      35.144 -22.862 -15.620  0.00  0.00    +0.035 C 
ATOM      4  C   UNL     1      36.438 -23.333 -15.397  0.00  0.00    +0.008 C 
ATOM      5  C   UNL     1      34.526 -23.500 -13.373  0.00  0.00    +0.020 C 
ATOM      6  C   UNL     1      34.188 -22.947 -14.608  0.00  0.00    +0.004 C 
ENDROOT
BRANCH   3   8
ATOM      7  O   UNL     1      35.716 -21.446 -17.429  0.00  0.00    -0.453 OA
ATOM      8  C   UNL     1      34.794 -22.290 -16.896  0.00  0.00    +0.145 C 
ATOM      9  C   UNL     1      33.706 -22.405 -17.729  0.00  0.00    +0.041 C 
ATOM     10  C   UNL     1      35.211 -21.016 -18.615  0.00  0.00    +0.147 C 
ATOM     11  C   UNL     1      33.977 -21.578 -18.846  0.00  0.00    +0.041 C 
BRANCH  10  16
ATOM     12  S   UNL     1      33.842 -19.775 -21.202  0.00  0.00    -0.027 S 
ATOM     13  O   UNL     1      37.328 -18.254 -21.184  0.00  0.00    -0.209 OA
ATOM     14  N   UNL     1      35.414 -18.166 -22.490  0.00  0.00    -0.311 NA
ATOM     15  N   UNL     1      33.241 -18.444 -23.436  0.00  0.00    -0.327 N 
ATOM     16  C   UNL     1      35.912 -20.116 -19.449  0.00  0.00    +0.057 C 
ATOM     17  C   UNL     1      35.414 -19.539 -20.562  0.00  0.00    +0.131 C 
ATOM     18  C   UNL     1      36.177 -18.595 -21.418  0.00  0.00    +0.213 C 
ATOM     19  C   UNL     1      34.220 -18.671 -22.515  0.00  0.00    +0.222 C 
ATOM     20  H   UNL     1      32.369 -18.891 -23.346  0.00  0.00    +0.145 HD
ATOM     21  H   UNL     1      33.407 -17.834 -24.190  0.00  0.00    +0.145 HD
ENDBRANCH  10  16
ENDBRANCH   3   8
BRANCH   2  25
ATOM     22  F   UNL     1      38.735 -23.950 -12.790  0.00  0.00    -0.166 F 
ATOM     23  F   UNL     1      38.264 -25.743 -13.916  0.00  0.00    -0.166 F 
ATOM     24  F   UNL     1      39.019 -23.983 -14.946  0.00  0.00    -0.166 F 
ATOM     25  C   UNL     1      38.171 -24.381 -13.955  0.00  0.00    +0.420 C 
ENDBRANCH   2  25
BRANCH   1  26
ATOM     26  S   UNL     1      36.209 -24.658 -11.588  0.00  0.00    +0.057 S 
ATOM     27  O   UNL     1      36.617 -26.041 -11.789  0.00  0.00    -0.153 OA
ATOM     28  O   UNL     1      37.089 -23.737 -10.887  0.00  0.00    -0.153 OA
BRANCH  26  29
ATOM     29  N   UNL     1      34.676 -24.636 -10.837  0.00  0.00    -0.203 NA
ATOM     30  H   UNL     1      34.258 -23.712 -10.943  0.00  0.00    +0.144 HD
ATOM     31  H   UNL     1      34.780 -24.851  -9.844  0.00  0.00    +0.144 HD
ENDBRANCH  26  29
ENDBRANCH   1  26
TORSDOF 5
ENDMDL
MODEL 4
REMARK VINA RESULT:     -11.0      8.596     13.257
REMARK  Name = 23647657
REMARK  5 active torsions:
REMARK  status: ('A' for Active; 'I' for Inactive)
REMARK    1  A    between atoms: C_1  and  S_26
REMARK    2  A    between atoms: C_2  and  C_25
REMARK    3  A    between atoms: C_3  and  C_8
REMARK    4  A    between atoms: C_10  and  C_16
REMARK    5  A    between atoms: S_26  and  N_29
REMARK                            x       y       z     vdW  Elec       q    Type
REMARK                         _______ _______ _______ _____ _____    ______ ____
ROOT
ATOM      1  C   UNL     1      31.365  -6.262 -22.290  0.00  0.00    +0.126 C 
ATOM      2  C   UNL     1      31.306  -7.091 -23.410  0.00  0.00    +0.090 C 
ATOM      3  C   UNL     1      31.585  -9.027 -21.992  0.00  0.00    +0.035 C 
ATOM      4  C   UNL     1      31.417  -8.473 -23.261  0.00  0.00    +0.008 C 
ATOM      5  C   UNL     1      31.533  -6.815 -21.021  0.00  0.00    +0.020 C 
ATOM      6  C   UNL     1      31.644  -8.198 -20.872  0.00  0.00    +0.004 C 
ENDROOT
BRANCH   3   8
ATOM      7  O   UNL     1      32.265 -11.112 -22.884  0.00  0.00    -0.453 OA
ATOM      8  C   UNL     1      31.699 -10.456 -21.838  0.00  0.00    +0.145 C 
ATOM      9  C   UNL     1      31.355 -11.340 -20.841  0.00  0.00    +0.041 C 
ATOM     10  C   UNL     1      32.283 -12.430 -22.553  0.00  0.00    +0.147 C 
ATOM     11  C   UNL     1      31.735 -12.623 -21.306  0.00  0.00    +0.041 C 
BRANCH  10  16
ATOM     12  S   UNL     1      33.861 -14.943 -21.410  0.00  0.00    -0.027 S 
ATOM     13  O   UNL     1      33.899 -15.465 -25.178  0.00  0.00    -0.209 OA
ATOM     14  N   UNL     1      34.679 -16.543 -23.279  0.00  0.00    -0.311 NA
ATOM     15  N   UNL     1      35.231 -17.204 -21.054  0.00  0.00    -0.327 N 
ATOM     16  C   UNL     1      32.808 -13.416 -23.419  0.00  0.00    +0.057 C 
ATOM     17  C   UNL     1      33.488 -14.513 -23.027  0.00  0.00    +0.131 C 
ATOM     18  C   UNL     1      34.028 -15.532 -23.963  0.00  0.00    +0.213 C 
ATOM     19  C   UNL     1      34.677 -16.386 -21.991  0.00  0.00    +0.222 C 
ATOM     20  H   UNL     1      35.163 -16.976 -20.099  0.00  0.00    +0.145 HD
ATOM     21  H   UNL     1      35.700 -18.024 -21.331  0.00  0.00    +0.145 HD
ENDBRANCH  10  16
ENDBRANCH   3   8
BRANCH   2  25
ATOM     22  F   UNL     1      30.170  -5.561 -24.855  0.00  0.00    -0.166 F 
ATOM     23  F   UNL     1      32.258  -5.953 -25.287  0.00  0.00    -0.166 F 
ATOM     24  F   UNL     1      30.762  -7.477 -25.692  0.00  0.00    -0.166 F 
ATOM     25  C   UNL     1      31.127  -6.530 -24.783  0.00  0.00    +0.420 C 
ENDBRANCH   2  25
BRANCH   1  26
ATOM     26  S   UNL     1      31.230  -4.523 -22.440  0.00  0.00    +0.057 S 
ATOM     27  O   UNL     1      32.283  -4.060 -23.332  0.00  0.00    -0.153 OA
ATOM     28  O   UNL     1      29.842  -4.193 -22.722  0.00  0.00    -0.153 OA
BRANCH  26  29
ATOM     29  N   UNL     1      31.600  -4.034 -20.846  0.00  0.00    -0.203 NA
ATOM     30  H   UNL     1      31.794  -4.856 -20.274  0.00  0.00    +0.144 HD
ATOM     31  H   UNL     1      30.807  -3.526 -20.453  0.00  0.00    +0.144 HD
ENDBRANCH  26  29
ENDBRANCH   1  26
TORSDOF 5
ENDMDL
MODEL 5
REMARK VINA RESULT:     -10.9      8.282     13.091
REMARK  Name = 23647657
REMARK  5 active torsions:
REMARK  status: ('A' for Active; 'I' for Inactive)
REMARK    1  A    between atoms: C_1  and  S_26
REMARK    2  A    between atoms: C_2  and  C_25
REMARK    3  A    between atoms: C_3  and  C_8
REMARK    4  A    between atoms: C_10  and  C_16
REMARK    5  A    between atoms: S_26  and  N_29
REMARK                            x       y       z     vdW  Elec       q    Type
REMARK                         _______ _______ _______ _____ _____    ______ ____
ROOT
ATOM      1  C   UNL     1      31.251  -6.256 -22.750  0.00  0.00    +0.126 C 
ATOM      2  C   UNL     1      31.324  -6.749 -21.447  0.00  0.00    +0.090 C 
ATOM      3  C   UNL     1      31.547  -8.995 -22.309  0.00  0.00    +0.035 C 
ATOM      4  C   UNL     1      31.472  -8.118 -21.226  0.00  0.00    +0.008 C 
ATOM      5  C   UNL     1      31.327  -7.133 -23.832  0.00  0.00    +0.020 C 
ATOM      6  C   UNL     1      31.474  -8.502 -23.611  0.00  0.00    +0.004 C 
ENDROOT
BRANCH   3   8
ATOM      7  O   UNL     1      32.264 -11.108 -23.101  0.00  0.00    -0.453 OA
ATOM      8  C   UNL     1      31.700 -10.411 -22.081  0.00  0.00    +0.145 C 
ATOM      9  C   UNL     1      31.397 -11.248 -21.032  0.00  0.00    +0.041 C 
ATOM     10  C   UNL     1      32.322 -12.405 -22.701  0.00  0.00    +0.147 C 
ATOM     11  C   UNL     1      31.801 -12.544 -21.435  0.00  0.00    +0.041 C 
BRANCH  10  16
ATOM     12  S   UNL     1      33.843 -14.898 -21.441  0.00  0.00    -0.027 S 
ATOM     13  O   UNL     1      33.968 -15.538 -25.189  0.00  0.00    -0.209 OA
ATOM     14  N   UNL     1      34.688 -16.564 -23.238  0.00  0.00    -0.311 NA
ATOM     15  N   UNL     1      35.179 -17.161 -20.981  0.00  0.00    -0.327 N 
ATOM     16  C   UNL     1      32.857 -13.423 -23.522  0.00  0.00    +0.057 C 
ATOM     17  C   UNL     1      33.515 -14.514 -23.079  0.00  0.00    +0.131 C 
ATOM     18  C   UNL     1      34.066 -15.568 -23.970  0.00  0.00    +0.213 C 
ATOM     19  C   UNL     1      34.657 -16.367 -21.957  0.00  0.00    +0.222 C 
ATOM     20  H   UNL     1      35.090 -16.902 -20.035  0.00  0.00    +0.145 HD
ATOM     21  H   UNL     1      35.644 -17.994 -21.221  0.00  0.00    +0.145 HD
ENDBRANCH  10  16
ENDBRANCH   3   8
BRANCH   2  25
ATOM     22  F   UNL     1      32.317  -5.000 -20.152  0.00  0.00    -0.166 F 
ATOM     23  F   UNL     1      30.153  -5.019 -20.283  0.00  0.00    -0.166 F 
ATOM     24  F   UNL     1      31.180  -6.515 -19.085  0.00  0.00    -0.166 F 
ATOM     25  C   UNL     1      31.246  -5.837 -20.266  0.00  0.00    +0.420 C 
ENDBRANCH   2  25
BRANCH   1  26
ATOM     26  S   UNL     1      31.066  -4.544 -23.063  0.00  0.00    +0.057 S 
ATOM     27  O   UNL     1      29.725  -4.150 -22.660  0.00  0.00    -0.153 OA
ATOM     28  O   UNL     1      32.222  -3.850 -22.517  0.00  0.00    -0.153 OA
BRANCH  26  29
ATOM     29  N   UNL     1      31.162  -4.518 -24.768  0.00  0.00    -0.203 NA
ATOM     30  H   UNL     1      30.874  -5.424 -25.139  0.00  0.00    +0.144 HD
ATOM     31  H   UNL     1      32.122  -4.324 -25.053  0.00  0.00    +0.144 HD
ENDBRANCH  26  29
ENDBRANCH   1  26
TORSDOF 5
ENDMDL
MODEL 6
REMARK VINA RESULT:     -10.8      2.115      2.696
REMARK  Name = 23647657
REMARK  5 active torsions:
REMARK  status: ('A' for Active; 'I' for Inactive)
REMARK    1  A    between atoms: C_1  and  S_26
REMARK    2  A    between atoms: C_2  and  C_25
REMARK    3  A    between atoms: C_3  and  C_8
REMARK    4  A    between atoms: C_10  and  C_16
REMARK    5  A    between atoms: S_26  and  N_29
REMARK                            x       y       z     vdW  Elec       q    Type
REMARK                         _______ _______ _______ _____ _____    ______ ____
ROOT
ATOM      1  C   UNL     1      35.175 -22.202 -16.708  0.00  0.00    +0.126 C 
ATOM      2  C   UNL     1      34.095 -22.022 -17.573  0.00  0.00    +0.090 C 
ATOM      3  C   UNL     1      35.453 -20.593 -18.970  0.00  0.00    +0.035 C 
ATOM      4  C   UNL     1      34.233 -21.217 -18.703  0.00  0.00    +0.008 C 
ATOM      5  C   UNL     1      36.393 -21.578 -16.974  0.00  0.00    +0.020 C 
ATOM      6  C   UNL     1      36.532 -20.773 -18.105  0.00  0.00    +0.004 C 
ENDROOT
BRANCH   3   8
ATOM      7  O   UNL     1      34.536 -19.761 -20.989  0.00  0.00    -0.453 OA
ATOM      8  C   UNL     1      35.596 -19.761 -20.139  0.00  0.00    +0.145 C 
ATOM      9  C   UNL     1      36.593 -18.938 -20.609  0.00  0.00    +0.041 C 
ATOM     10  C   UNL     1      34.859 -18.929 -22.013  0.00  0.00    +0.147 C 
ATOM     11  C   UNL     1      36.113 -18.397 -21.827  0.00  0.00    +0.041 C 
BRANCH  10  16
ATOM     12  S   UNL     1      34.397 -15.987 -23.126  0.00  0.00    -0.027 S 
ATOM     13  O   UNL     1      32.173 -18.161 -25.316  0.00  0.00    -0.209 OA
ATOM     14  N   UNL     1      32.723 -15.919 -25.104  0.00  0.00    -0.311 NA
ATOM     15  N   UNL     1      33.624 -13.806 -24.456  0.00  0.00    -0.327 N 
ATOM     16  C   UNL     1      33.978 -18.689 -23.092  0.00  0.00    +0.057 C 
ATOM     17  C   UNL     1      33.721 -17.479 -23.630  0.00  0.00    +0.131 C 
ATOM     18  C   UNL     1      32.789 -17.258 -24.766  0.00  0.00    +0.213 C 
ATOM     19  C   UNL     1      33.474 -15.157 -24.370  0.00  0.00    +0.222 C 
ATOM     20  H   UNL     1      34.230 -13.338 -23.837  0.00  0.00    +0.145 HD
ATOM     21  H   UNL     1      33.128 -13.298 -25.137  0.00  0.00    +0.145 HD
ENDBRANCH  10  16
ENDBRANCH   3   8
BRANCH   2  25
ATOM     22  F   UNL     1      32.383 -22.614 -16.011  0.00  0.00    -0.166 F 
ATOM     23  F   UNL     1      31.748 -22.125 -18.026  0.00  0.00    -0.166 F 
ATOM     24  F   UNL     1      32.777 -24.001 -17.638  0.00  0.00    -0.166 F 
ATOM     25  C   UNL     1      32.776 -22.676 -17.316  0.00  0.00    +0.420 C 
ENDBRANCH   2  25
BRANCH   1  26
ATOM     26  S   UNL     1      35.036 -23.206 -15.280  0.00  0.00    +0.057 S 
ATOM     27  O   UNL     1      34.140 -22.543 -14.344  0.00  0.00    -0.153 OA
ATOM     28  O   UNL     1      34.763 -24.570 -15.703  0.00  0.00    -0.153 OA
BRANCH  26  29
ATOM     29  N   UNL     1      36.630 -23.124 -14.675  0.00  0.00    -0.203 NA
ATOM     30  H   UNL     1      37.288 -23.082 -15.453  0.00  0.00    +0.144 HD
ATOM     31  H   UNL     1      36.823 -23.952 -14.111  0.00  0.00    +0.144 HD
ENDBRANCH  26  29
ENDBRANCH   1  26
TORSDOF 5
ENDMDL
MODEL 7
REMARK VINA RESULT:     -10.6      5.069      9.349
REMARK  Name = 23647657
REMARK  5 active torsions:
REMARK  status: ('A' for Active; 'I' for Inactive)
REMARK    1  A    between atoms: C_1  and  S_26
REMARK    2  A    between atoms: C_2  and  C_25
REMARK    3  A    between atoms: C_3  and  C_8
REMARK    4  A    between atoms: C_10  and  C_16
REMARK    5  A    between atoms: S_26  and  N_29
REMARK                            x       y       z     vdW  Elec       q    Type
REMARK                         _______ _______ _______ _____ _____    ______ ____
ROOT
ATOM      1  C   UNL     1      32.819 -13.112 -21.716  0.00  0.00    +0.126 C 
ATOM      2  C   UNL     1      33.202 -13.635 -22.951  0.00  0.00    +0.090 C 
ATOM      3  C   UNL     1      34.157 -15.558 -21.841  0.00  0.00    +0.035 C 
ATOM      4  C   UNL     1      33.871 -14.858 -23.014  0.00  0.00    +0.008 C 
ATOM      5  C   UNL     1      33.105 -13.812 -20.544  0.00  0.00    +0.020 C 
ATOM      6  C   UNL     1      33.774 -15.034 -20.606  0.00  0.00    +0.004 C 
ENDROOT
BRANCH   3   8
ATOM      7  O   UNL     1      34.993 -17.468 -20.720  0.00  0.00    -0.453 OA
ATOM      8  C   UNL     1      34.848 -16.821 -21.906  0.00  0.00    +0.145 C 
ATOM      9  C   UNL     1      35.415 -17.548 -22.927  0.00  0.00    +0.041 C 
ATOM     10  C   UNL     1      35.660 -18.623 -20.986  0.00  0.00    +0.147 C 
ATOM     11  C   UNL     1      35.942 -18.719 -22.329  0.00  0.00    +0.041 C 
BRANCH  10  16
ATOM     12  S   UNL     1      33.437 -20.507 -19.713  0.00  0.00    -0.027 S 
ATOM     13  O   UNL     1      36.629 -21.480 -17.886  0.00  0.00    -0.209 OA
ATOM     14  N   UNL     1      34.390 -22.083 -17.889  0.00  0.00    -0.311 NA
ATOM     15  N   UNL     1      32.050 -22.301 -18.306  0.00  0.00    -0.327 N 
ATOM     16  C   UNL     1      35.986 -19.552 -19.973  0.00  0.00    +0.057 C 
ATOM     17  C   UNL     1      35.114 -20.391 -19.377  0.00  0.00    +0.131 C 
ATOM     18  C   UNL     1      35.489 -21.358 -18.313  0.00  0.00    +0.213 C 
ATOM     19  C   UNL     1      33.289 -21.769 -18.500  0.00  0.00    +0.222 C 
ATOM     20  H   UNL     1      31.287 -21.975 -18.836  0.00  0.00    +0.145 HD
ATOM     21  H   UNL     1      31.918 -23.010 -17.636  0.00  0.00    +0.145 HD
ENDBRANCH  10  16
ENDBRANCH   3   8
BRANCH   2  25
ATOM     22  F   UNL     1      31.619 -12.489 -24.330  0.00  0.00    -0.166 F 
ATOM     23  F   UNL     1      33.669 -11.787 -24.396  0.00  0.00    -0.166 F 
ATOM     24  F   UNL     1      33.140 -13.679 -25.328  0.00  0.00    -0.166 F 
ATOM     25  C   UNL     1      32.912 -12.911 -24.225  0.00  0.00    +0.420 C 
ENDBRANCH   2  25
BRANCH   1  26
ATOM     26  S   UNL     1      31.978 -11.582 -21.600  0.00  0.00    +0.057 S 
ATOM     27  O   UNL     1      32.810 -10.558 -22.214  0.00  0.00    -0.153 OA
ATOM     28  O   UNL     1      30.610 -11.774 -22.055  0.00  0.00    -0.153 OA
BRANCH  26  29
ATOM     29  N   UNL     1      31.969 -11.347 -19.909  0.00  0.00    -0.203 NA
ATOM     30  H   UNL     1      32.665 -10.644 -19.659  0.00  0.00    +0.144 HD
ATOM     31  H   UNL     1      32.193 -12.227 -19.442  0.00  0.00    +0.144 HD
ENDBRANCH  26  29
ENDBRANCH   1  26
TORSDOF 5
ENDMDL
MODEL 8
REMARK VINA RESULT:     -10.3      6.601      9.395
REMARK  Name = 23647657
REMARK  5 active torsions:
REMARK  status: ('A' for Active; 'I' for Inactive)
REMARK    1  A    between atoms: C_1  and  S_26
REMARK    2  A    between atoms: C_2  and  C_25
REMARK    3  A    between atoms: C_3  and  C_8
REMARK    4  A    between atoms: C_10  and  C_16
REMARK    5  A    between atoms: S_26  and  N_29
REMARK                            x       y       z     vdW  Elec       q    Type
REMARK                         _______ _______ _______ _____ _____    ______ ____
ROOT
ATOM      1  C   UNL     1      33.966 -15.346 -22.108  0.00  0.00    +0.126 C 
ATOM      2  C   UNL     1      33.434 -14.732 -23.243  0.00  0.00    +0.090 C 
ATOM      3  C   UNL     1      32.667 -12.886 -21.886  0.00  0.00    +0.035 C 
ATOM      4  C   UNL     1      32.785 -13.503 -23.132  0.00  0.00    +0.008 C 
ATOM      5  C   UNL     1      33.849 -14.729 -20.863  0.00  0.00    +0.020 C 
ATOM      6  C   UNL     1      33.199 -13.500 -20.752  0.00  0.00    +0.004 C 
ENDROOT
BRANCH   3   8
ATOM      7  O   UNL     1      32.148 -10.778 -22.830  0.00  0.00    -0.453 OA
ATOM      8  C   UNL     1      31.996 -11.615 -21.771  0.00  0.00    +0.145 C 
ATOM      9  C   UNL     1      31.210 -11.034 -20.803  0.00  0.00    +0.041 C 
ATOM     10  C   UNL     1      31.451  -9.649 -22.536  0.00  0.00    +0.147 C 
ATOM     11  C   UNL     1      30.856  -9.756 -21.300  0.00  0.00    +0.041 C 
BRANCH  10  16
ATOM     12  S   UNL     1      31.583  -6.660 -21.458  0.00  0.00    -0.027 S 
ATOM     13  O   UNL     1      31.265  -6.268 -25.229  0.00  0.00    -0.209 OA
ATOM     14  N   UNL     1      31.442  -4.906 -23.361  0.00  0.00    -0.311 NA
ATOM     15  N   UNL     1      31.644  -4.009 -21.159  0.00  0.00    -0.327 N 
ATOM     16  C   UNL     1      31.388  -8.551 -23.424  0.00  0.00    +0.057 C 
ATOM     17  C   UNL     1      31.438  -7.253 -23.060  0.00  0.00    +0.131 C 
ATOM     18  C   UNL     1      31.370  -6.121 -24.019  0.00  0.00    +0.213 C 
ATOM     19  C   UNL     1      31.552  -5.015 -22.073  0.00  0.00    +0.222 C 
ATOM     20  H   UNL     1      31.724  -4.222 -20.201  0.00  0.00    +0.145 HD
ATOM     21  H   UNL     1      31.631  -3.071 -21.456  0.00  0.00    +0.145 HD
ENDBRANCH  10  16
ENDBRANCH   3   8
BRANCH   2  25
ATOM     22  F   UNL     1      34.812 -15.747 -24.914  0.00  0.00    -0.166 F 
ATOM     23  F   UNL     1      32.785 -16.495 -24.724  0.00  0.00    -0.166 F 
ATOM     24  F   UNL     1      33.141 -14.535 -25.594  0.00  0.00    -0.166 F 
ATOM     25  C   UNL     1      33.542 -15.366 -24.591  0.00  0.00    +0.420 C 
ENDBRANCH   2  25
BRANCH   1  26
ATOM     26  S   UNL     1      34.787 -16.888 -22.212  0.00  0.00    +0.057 S 
ATOM     27  O   UNL     1      33.839 -17.876 -22.704  0.00  0.00    -0.153 OA
ATOM     28  O   UNL     1      36.052 -16.689 -22.901  0.00  0.00    -0.153 OA
BRANCH  26  29
ATOM     29  N   UNL     1      35.101 -17.195 -20.562  0.00  0.00    -0.203 NA
ATOM     30  H   UNL     1      36.103 -17.113 -20.385  0.00  0.00    +0.144 HD
ATOM     31  H   UNL     1      34.790 -18.138 -20.325  0.00  0.00    +0.144 HD
ENDBRANCH  26  29
ENDBRANCH   1  26
TORSDOF 5
ENDMDL
MODEL 9
REMARK VINA RESULT:     -10.1      4.388      9.801
REMARK  Name = 23647657
REMARK  5 active torsions:
REMARK  status: ('A' for Active; 'I' for Inactive)
REMARK    1  A    between atoms: C_1  and  S_26
REMARK    2  A    between atoms: C_2  and  C_25
REMARK    3  A    between atoms: C_3  and  C_8
REMARK    4  A    between atoms: C_10  and  C_16
REMARK    5  A    between atoms: S_26  and  N_29
REMARK                            x       y       z     vdW  Elec       q    Type
REMARK                         _______ _______ _______ _____ _____    ______ ____
ROOT
ATOM      1  C   UNL     1      35.093 -19.836 -20.008  0.00  0.00    +0.126 C 
ATOM      2  C   UNL     1      33.826 -20.360 -19.752  0.00  0.00    +0.090 C 
ATOM      3  C   UNL     1      34.734 -21.663 -17.930  0.00  0.00    +0.035 C 
ATOM      4  C   UNL     1      33.646 -21.274 -18.713  0.00  0.00    +0.008 C 
ATOM      5  C   UNL     1      36.180 -20.224 -19.225  0.00  0.00    +0.020 C 
ATOM      6  C   UNL     1      36.000 -21.138 -18.186  0.00  0.00    +0.004 C 
ENDROOT
BRANCH   3   8
ATOM      7  O   UNL     1      35.687 -23.026 -16.245  0.00  0.00    -0.453 OA
ATOM      8  C   UNL     1      34.548 -22.607 -16.856  0.00  0.00    +0.145 C 
ATOM      9  C   UNL     1      33.446 -23.203 -16.288  0.00  0.00    +0.041 C 
ATOM     10  C   UNL     1      35.309 -23.899 -15.274  0.00  0.00    +0.147 C 
ATOM     11  C   UNL     1      33.940 -24.042 -15.260  0.00  0.00    +0.041 C 
BRANCH  10  16
ATOM     12  S   UNL     1      35.510 -23.155 -12.190  0.00  0.00    -0.027 S 
ATOM     13  O   UNL     1      38.163 -25.839 -12.666  0.00  0.00    -0.209 OA
ATOM     14  N   UNL     1      37.331 -24.520 -10.950  0.00  0.00    -0.311 NA
ATOM     15  N   UNL     1      36.128 -22.962  -9.601  0.00  0.00    -0.327 N 
ATOM     16  C   UNL     1      36.246 -24.538 -14.431  0.00  0.00    +0.057 C 
ATOM     17  C   UNL     1      36.402 -24.289 -13.114  0.00  0.00    +0.131 C 
ATOM     18  C   UNL     1      37.397 -24.979 -12.253  0.00  0.00    +0.213 C 
ATOM     19  C   UNL     1      36.432 -23.604 -10.763  0.00  0.00    +0.222 C 
ATOM     20  H   UNL     1      35.419 -22.280  -9.587  0.00  0.00    +0.145 HD
ATOM     21  H   UNL     1      36.619 -23.180  -8.776  0.00  0.00    +0.145 HD
ENDBRANCH  10  16
ENDBRANCH   3   8
BRANCH   2  25
ATOM     22  F   UNL     1      32.944 -19.706 -21.877  0.00  0.00    -0.166 F 
ATOM     23  F   UNL     1      31.666 -20.921 -20.614  0.00  0.00    -0.166 F 
ATOM     24  F   UNL     1      32.033 -18.840 -20.104  0.00  0.00    -0.166 F 
ATOM     25  C   UNL     1      32.642 -19.966 -20.572  0.00  0.00    +0.420 C 
ENDBRANCH   2  25
BRANCH   1  26
ATOM     26  S   UNL     1      35.354 -18.687 -21.302  0.00  0.00    +0.057 S 
ATOM     27  O   UNL     1      35.106 -19.363 -22.567  0.00  0.00    -0.153 OA
ATOM     28  O   UNL     1      34.639 -17.462 -20.981  0.00  0.00    -0.153 OA
BRANCH  26  29
ATOM     29  N   UNL     1      37.031 -18.403 -21.146  0.00  0.00    -0.203 NA
ATOM     30  H   UNL     1      37.513 -18.742 -21.979  0.00  0.00    +0.144 HD
ATOM     31  H   UNL     1      37.385 -18.895 -20.325  0.00  0.00    +0.144 HD
ENDBRANCH  26  29
ENDBRANCH   1  26
TORSDOF 5
ENDMDL
