MODEL 1
REMARK VINA RESULT:     -12.6      0.000      0.000
REMARK  Name = 53354764
REMARK  8 active torsions:
REMARK  status: ('A' for Active; 'I' for Inactive)
REMARK    1  A    between atoms: C_1  and  C_3
REMARK    2  A    between atoms: C_1  and  O_18
REMARK    3  A    between atoms: N_2  and  C_9
REMARK    4  A    between atoms: C_9  and  C_11
REMARK    5  A    between atoms: C_11  and  O_16
REMARK    6  A    between atoms: O_18  and  C_21
REMARK    7  A    between atoms: C_23  and  O_28
REMARK    8  A    between atoms: O_28  and  C_30
REMARK                            x       y       z     vdW  Elec       q    Type
REMARK                         _______ _______ _______ _____ _____    ______ ____
ROOT
ATOM      1  C   UNL     1      35.328 -20.823 -18.910  0.00  0.00    +0.207 C 
ENDROOT
BRANCH   1   3
ATOM      2  N   UNL     1      34.561 -17.930 -22.025  0.00  0.00    +0.388 N 
ATOM      3  C   UNL     1      35.190 -20.220 -20.304  0.00  0.00    +0.040 C 
ATOM      4  C   UNL     1      33.629 -19.063 -21.923  0.00  0.00    -0.077 C 
ATOM      5  C   UNL     1      35.951 -18.372 -21.855  0.00  0.00    -0.077 C 
ATOM      6  C   UNL     1      36.154 -19.044 -20.495  0.00  0.00    -0.019 C 
ATOM      7  C   UNL     1      33.753 -19.757 -20.566  0.00  0.00    -0.019 C 
ATOM      8  H   UNL     1      34.345 -17.277 -21.274  0.00  0.00    -0.080 HD
BRANCH   2   9
ATOM      9  C   UNL     1      34.395 -17.246 -23.307  0.00  0.00    -0.050 C 
BRANCH   9  11
ATOM     10  O   UNL     1      32.699 -13.485 -22.219  0.00  0.00    -0.354 OA
ATOM     11  C   UNL     1      34.285 -15.733 -23.113  0.00  0.00    +0.074 C 
ATOM     12  C   UNL     1      33.126 -15.151 -23.935  0.00  0.00    +0.057 C 
ATOM     13  C   UNL     1      34.101 -15.383 -21.630  0.00  0.00    +0.057 C 
ATOM     14  C   UNL     1      32.910 -13.674 -23.617  0.00  0.00    +0.144 C 
ATOM     15  C   UNL     1      33.826 -13.892 -21.444  0.00  0.00    +0.144 C 
BRANCH  11  16
ATOM     16  O   UNL     1      35.512 -15.144 -23.556  0.00  0.00    -0.389 OA
ATOM     17  H   UNL     1      35.852 -14.551 -22.868  0.00  0.00    +0.210 HD
ENDBRANCH  11  16
ENDBRANCH   9  11
ENDBRANCH   2   9
ENDBRANCH   1   3
BRANCH   1  18
ATOM     18  O   UNL     1      34.667 -22.075 -18.894  0.00  0.00    -0.458 OA
BRANCH  18  21
ATOM     19  O   UNL     1      31.356 -21.970 -17.854  0.00  0.00    -0.350 OA
ATOM     20  N   UNL     1      32.356 -21.787 -18.801  0.00  0.00    -0.039 NA
ATOM     21  C   UNL     1      33.490 -22.150 -18.193  0.00  0.00    +0.267 A 
ATOM     22  C   UNL     1      33.274 -22.572 -16.866  0.00  0.00    +0.127 A 
ATOM     23  C   UNL     1      34.047 -23.044 -15.796  0.00  0.00    +0.146 C 
ATOM     24  C   UNL     1      31.906 -22.439 -16.701  0.00  0.00    +0.183 A 
ATOM     25  C   UNL     1      33.394 -23.362 -14.597  0.00  0.00    +0.037 C 
ATOM     26  C   UNL     1      31.226 -22.744 -15.526  0.00  0.00    +0.041 C 
ATOM     27  C   UNL     1      32.010 -23.213 -14.467  0.00  0.00    +0.006 C 
BRANCH  23  28
ATOM     28  O   UNL     1      35.403 -23.198 -15.896  0.00  0.00    -0.476 OA
BRANCH  28  30
ATOM     29  O   UNL     1      37.844 -23.422 -14.098  0.00  0.00    -0.350 OA
ATOM     30  C   UNL     1      36.211 -22.192 -15.295  0.00  0.00    +0.198 C 
ATOM     31  C   UNL     1      37.520 -22.101 -16.038  0.00  0.00    +0.078 C 
ATOM     32  C   UNL     1      36.652 -22.640 -13.917  0.00  0.00    +0.185 C 
ATOM     33  C   UNL     1      38.303 -23.255 -15.446  0.00  0.00    +0.146 C 
ENDBRANCH  28  30
ENDBRANCH  23  28
ENDBRANCH  18  21
ENDBRANCH   1  18
TORSDOF 8
ENDMDL
MODEL 2
REMARK VINA RESULT:     -11.6      1.486      2.044
REMARK  Name = 53354764
REMARK  8 active torsions:
REMARK  status: ('A' for Active; 'I' for Inactive)
REMARK    1  A    between atoms: C_1  and  C_3
REMARK    2  A    between atoms: C_1  and  O_18
REMARK    3  A    between atoms: N_2  and  C_9
REMARK    4  A    between atoms: C_9  and  C_11
REMARK    5  A    between atoms: C_11  and  O_16
REMARK    6  A    between atoms: O_18  and  C_21
REMARK    7  A    between atoms: C_23  and  O_28
REMARK    8  A    between atoms: O_28  and  C_30
REMARK                            x       y       z     vdW  Elec       q    Type
REMARK                         _______ _______ _______ _____ _____    ______ ____
ROOT
ATOM      1  C   UNL     1      34.347 -21.950 -17.479  0.00  0.00    +0.207 C 
ENDROOT
BRANCH   1   3
ATOM      2  N   UNL     1      34.484 -19.388 -20.954  0.00  0.00    +0.388 N 
ATOM      3  C   UNL     1      34.383 -21.518 -18.942  0.00  0.00    +0.040 C 
ATOM      4  C   UNL     1      33.243 -20.144 -20.732  0.00  0.00    -0.077 C 
ATOM      5  C   UNL     1      35.665 -20.222 -20.695  0.00  0.00    -0.077 C 
ATOM      6  C   UNL     1      35.668 -20.744 -19.256  0.00  0.00    -0.019 C 
ATOM      7  C   UNL     1      33.163 -20.662 -19.295  0.00  0.00    -0.019 C 
ATOM      8  H   UNL     1      34.500 -18.609 -20.297  0.00  0.00    -0.080 HD
BRANCH   2   9
ATOM      9  C   UNL     1      34.522 -18.856 -22.316  0.00  0.00    -0.050 C 
BRANCH   9  11
ATOM     10  O   UNL     1      33.649 -14.680 -22.335  0.00  0.00    -0.354 OA
ATOM     11  C   UNL     1      34.769 -17.347 -22.311  0.00  0.00    +0.074 C 
ATOM     12  C   UNL     1      34.209 -16.690 -23.581  0.00  0.00    +0.057 C 
ATOM     13  C   UNL     1      34.148 -16.695 -21.069  0.00  0.00    +0.057 C 
ATOM     14  C   UNL     1      34.305 -15.169 -23.503  0.00  0.00    +0.144 C 
ATOM     15  C   UNL     1      34.246 -15.172 -21.137  0.00  0.00    +0.144 C 
BRANCH  11  16
ATOM     16  O   UNL     1      36.183 -17.134 -22.262  0.00  0.00    -0.389 OA
ATOM     17  H   UNL     1      36.477 -16.725 -23.090  0.00  0.00    +0.210 HD
ENDBRANCH  11  16
ENDBRANCH   9  11
ENDBRANCH   2   9
ENDBRANCH   1   3
BRANCH   1  18
ATOM     18  O   UNL     1      33.490 -23.072 -17.362  0.00  0.00    -0.458 OA
BRANCH  18  21
ATOM     19  O   UNL     1      30.211 -22.240 -16.578  0.00  0.00    -0.350 OA
ATOM     20  N   UNL     1      31.288 -22.313 -17.453  0.00  0.00    -0.039 NA
ATOM     21  C   UNL     1      32.279 -22.869 -16.749  0.00  0.00    +0.267 A 
ATOM     22  C   UNL     1      31.894 -23.171 -15.428  0.00  0.00    +0.127 A 
ATOM     23  C   UNL     1      32.480 -23.737 -14.287  0.00  0.00    +0.146 C 
ATOM     24  C   UNL     1      30.575 -22.753 -15.371  0.00  0.00    +0.183 A 
ATOM     25  C   UNL     1      31.697 -23.854 -13.130  0.00  0.00    +0.037 C 
ATOM     26  C   UNL     1      29.770 -22.854 -14.240  0.00  0.00    +0.041 C 
ATOM     27  C   UNL     1      30.368 -23.420 -13.110  0.00  0.00    +0.006 C 
BRANCH  23  28
ATOM     28  O   UNL     1      33.777 -24.169 -14.280  0.00  0.00    -0.476 OA
BRANCH  28  30
ATOM     29  O   UNL     1      36.695 -24.714 -13.619  0.00  0.00    -0.350 OA
ATOM     30  C   UNL     1      34.677 -23.489 -13.412  0.00  0.00    +0.198 C 
ATOM     31  C   UNL     1      35.646 -22.682 -14.240  0.00  0.00    +0.078 C 
ATOM     32  C   UNL     1      35.589 -24.487 -12.729  0.00  0.00    +0.185 C 
ATOM     33  C   UNL     1      36.655 -23.731 -14.662  0.00  0.00    +0.146 C 
ENDBRANCH  28  30
ENDBRANCH  23  28
ENDBRANCH  18  21
ENDBRANCH   1  18
TORSDOF 8
ENDMDL
MODEL 3
REMARK VINA RESULT:     -11.4      1.930      4.160
REMARK  Name = 53354764
REMARK  8 active torsions:
REMARK  status: ('A' for Active; 'I' for Inactive)
REMARK    1  A    between atoms: C_1  and  C_3
REMARK    2  A    between atoms: C_1  and  O_18
REMARK    3  A    between atoms: N_2  and  C_9
REMARK    4  A    between atoms: C_9  and  C_11
REMARK    5  A    between atoms: C_11  and  O_16
REMARK    6  A    between atoms: O_18  and  C_21
REMARK    7  A    between atoms: C_23  and  O_28
REMARK    8  A    between atoms: O_28  and  C_30
REMARK                            x       y       z     vdW  Elec       q    Type
REMARK                         _______ _______ _______ _____ _____    ______ ____
ROOT
ATOM      1  C   UNL     1      33.662 -21.993 -17.147  0.00  0.00    +0.207 C 
ENDROOT
BRANCH   1   3
ATOM      2  N   UNL     1      34.269 -19.666 -20.735  0.00  0.00    +0.388 N 
ATOM      3  C   UNL     1      33.848 -21.656 -18.623  0.00  0.00    +0.040 C 
ATOM      4  C   UNL     1      32.961 -20.318 -20.577  0.00  0.00    -0.077 C 
ATOM      5  C   UNL     1      35.360 -20.563 -20.331  0.00  0.00    -0.077 C 
ATOM      6  C   UNL     1      35.208 -20.994 -18.870  0.00  0.00    -0.019 C 
ATOM      7  C   UNL     1      32.728 -20.740 -19.125  0.00  0.00    -0.019 C 
ATOM      8  H   UNL     1      34.289 -18.851 -20.124  0.00  0.00    -0.080 HD
BRANCH   2   9
ATOM      9  C   UNL     1      34.456 -19.223 -22.117  0.00  0.00    -0.050 C 
BRANCH   9  11
ATOM     10  O   UNL     1      33.791 -15.014 -22.308  0.00  0.00    -0.354 OA
ATOM     11  C   UNL     1      34.777 -17.730 -22.177  0.00  0.00    +0.074 C 
ATOM     12  C   UNL     1      34.241 -17.099 -23.471  0.00  0.00    +0.057 C 
ATOM     13  C   UNL     1      34.200 -16.995 -20.960  0.00  0.00    +0.057 C 
ATOM     14  C   UNL     1      34.413 -15.583 -23.458  0.00  0.00    +0.144 C 
ATOM     15  C   UNL     1      34.372 -15.484 -21.093  0.00  0.00    +0.144 C 
BRANCH  11  16
ATOM     16  O   UNL     1      36.201 -17.586 -22.145  0.00  0.00    -0.389 OA
ATOM     17  H   UNL     1      36.556 -17.684 -23.042  0.00  0.00    +0.210 HD
ENDBRANCH  11  16
ENDBRANCH   9  11
ENDBRANCH   2   9
ENDBRANCH   1   3
BRANCH   1  18
ATOM     18  O   UNL     1      34.556 -23.038 -16.808  0.00  0.00    -0.458 OA
BRANCH  18  21
ATOM     19  O   UNL     1      37.142 -22.257 -14.626  0.00  0.00    -0.350 OA
ATOM     20  N   UNL     1      36.586 -22.342 -15.897  0.00  0.00    -0.039 NA
ATOM     21  C   UNL     1      35.359 -22.840 -15.712  0.00  0.00    +0.267 A 
ATOM     22  C   UNL     1      35.080 -23.089 -14.354  0.00  0.00    +0.127 A 
ATOM     23  C   UNL     1      34.010 -23.584 -13.595  0.00  0.00    +0.146 C 
ATOM     24  C   UNL     1      36.242 -22.703 -13.708  0.00  0.00    +0.183 A 
ATOM     25  C   UNL     1      34.168 -23.667 -12.204  0.00  0.00    +0.037 C 
ATOM     26  C   UNL     1      36.433 -22.772 -12.331  0.00  0.00    +0.041 C 
ATOM     27  C   UNL     1      35.357 -23.268 -11.587  0.00  0.00    +0.006 C 
BRANCH  23  28
ATOM     28  O   UNL     1      32.836 -23.981 -14.174  0.00  0.00    -0.476 OA
BRANCH  28  30
ATOM     29  O   UNL     1      30.051 -23.833 -15.384  0.00  0.00    -0.350 OA
ATOM     30  C   UNL     1      31.643 -23.375 -13.690  0.00  0.00    +0.198 C 
ATOM     31  C   UNL     1      30.710 -24.451 -13.193  0.00  0.00    +0.078 C 
ATOM     32  C   UNL     1      30.863 -22.778 -14.842  0.00  0.00    +0.185 C 
ATOM     33  C   UNL     1      30.081 -24.946 -14.480  0.00  0.00    +0.146 C 
ENDBRANCH  28  30
ENDBRANCH  23  28
ENDBRANCH  18  21
ENDBRANCH   1  18
TORSDOF 8
ENDMDL
MODEL 4
REMARK VINA RESULT:     -11.0      1.782      2.673
REMARK  Name = 53354764
REMARK  8 active torsions:
REMARK  status: ('A' for Active; 'I' for Inactive)
REMARK    1  A    between atoms: C_1  and  C_3
REMARK    2  A    between atoms: C_1  and  O_18
REMARK    3  A    between atoms: N_2  and  C_9
REMARK    4  A    between atoms: C_9  and  C_11
REMARK    5  A    between atoms: C_11  and  O_16
REMARK    6  A    between atoms: O_18  and  C_21
REMARK    7  A    between atoms: C_23  and  O_28
REMARK    8  A    between atoms: O_28  and  C_30
REMARK                            x       y       z     vdW  Elec       q    Type
REMARK                         _______ _______ _______ _____ _____    ______ ____
ROOT
ATOM      1  C   UNL     1      33.503 -22.927 -18.690  0.00  0.00    +0.207 C 
ENDROOT
BRANCH   1   3
ATOM      2  N   UNL     1      34.532 -19.267 -20.741  0.00  0.00    +0.388 N 
ATOM      3  C   UNL     1      33.847 -21.458 -18.916  0.00  0.00    +0.040 C 
ATOM      4  C   UNL     1      35.552 -19.843 -19.853  0.00  0.00    -0.077 C 
ATOM      5  C   UNL     1      33.199 -19.335 -20.128  0.00  0.00    -0.077 C 
ATOM      6  C   UNL     1      32.807 -20.781 -19.816  0.00  0.00    -0.019 C 
ATOM      7  C   UNL     1      35.241 -21.306 -19.532  0.00  0.00    -0.019 C 
ATOM      8  H   UNL     1      34.513 -19.819 -21.597  0.00  0.00    -0.080 HD
BRANCH   2   9
ATOM      9  C   UNL     1      34.870 -17.885 -21.079  0.00  0.00    -0.050 C 
BRANCH   9  11
ATOM     10  O   UNL     1      33.165 -16.825 -24.844  0.00  0.00    -0.354 OA
ATOM     11  C   UNL     1      34.776 -17.648 -22.587  0.00  0.00    +0.074 C 
ATOM     12  C   UNL     1      33.712 -18.553 -23.226  0.00  0.00    +0.057 C 
ATOM     13  C   UNL     1      34.462 -16.178 -22.892  0.00  0.00    +0.057 C 
ATOM     14  C   UNL     1      33.501 -18.203 -24.696  0.00  0.00    +0.144 C 
ATOM     15  C   UNL     1      34.205 -15.965 -24.382  0.00  0.00    +0.144 C 
BRANCH  11  16
ATOM     16  O   UNL     1      36.052 -17.954 -23.159  0.00  0.00    -0.389 OA
ATOM     17  H   UNL     1      36.419 -17.158 -23.573  0.00  0.00    +0.210 HD
ENDBRANCH  11  16
ENDBRANCH   9  11
ENDBRANCH   2   9
ENDBRANCH   1   3
BRANCH   1  18
ATOM     18  O   UNL     1      33.431 -23.162 -17.295  0.00  0.00    -0.458 OA
BRANCH  18  21
ATOM     19  O   UNL     1      30.176 -22.230 -16.521  0.00  0.00    -0.350 OA
ATOM     20  N   UNL     1      31.251 -22.341 -17.395  0.00  0.00    -0.039 NA
ATOM     21  C   UNL     1      32.225 -22.919 -16.685  0.00  0.00    +0.267 A 
ATOM     22  C   UNL     1      31.831 -23.198 -15.362  0.00  0.00    +0.127 A 
ATOM     23  C   UNL     1      32.399 -23.769 -14.215  0.00  0.00    +0.146 C 
ATOM     24  C   UNL     1      30.524 -22.742 -15.309  0.00  0.00    +0.183 A 
ATOM     25  C   UNL     1      31.613 -23.854 -13.057  0.00  0.00    +0.037 C 
ATOM     26  C   UNL     1      29.716 -22.809 -14.178  0.00  0.00    +0.041 C 
ATOM     27  C   UNL     1      30.297 -23.381 -13.042  0.00  0.00    +0.006 C 
BRANCH  23  28
ATOM     28  O   UNL     1      33.684 -24.238 -14.203  0.00  0.00    -0.476 OA
BRANCH  28  30
ATOM     29  O   UNL     1      36.706 -24.512 -14.007  0.00  0.00    -0.350 OA
ATOM     30  C   UNL     1      34.644 -23.468 -13.487  0.00  0.00    +0.198 C 
ATOM     31  C   UNL     1      35.395 -22.590 -14.458  0.00  0.00    +0.078 C 
ATOM     32  C   UNL     1      35.737 -24.370 -12.955  0.00  0.00    +0.185 C 
ATOM     33  C   UNL     1      36.416 -23.553 -15.032  0.00  0.00    +0.146 C 
ENDBRANCH  28  30
ENDBRANCH  23  28
ENDBRANCH  18  21
ENDBRANCH   1  18
TORSDOF 8
ENDMDL
MODEL 5
REMARK VINA RESULT:     -10.4      2.363      4.231
REMARK  Name = 53354764
REMARK  8 active torsions:
REMARK  status: ('A' for Active; 'I' for Inactive)
REMARK    1  A    between atoms: C_1  and  C_3
REMARK    2  A    between atoms: C_1  and  O_18
REMARK    3  A    between atoms: N_2  and  C_9
REMARK    4  A    between atoms: C_9  and  C_11
REMARK    5  A    between atoms: C_11  and  O_16
REMARK    6  A    between atoms: O_18  and  C_21
REMARK    7  A    between atoms: C_23  and  O_28
REMARK    8  A    between atoms: O_28  and  C_30
REMARK                            x       y       z     vdW  Elec       q    Type
REMARK                         _______ _______ _______ _____ _____    ______ ____
ROOT
ATOM      1  C   UNL     1      33.712 -22.808 -16.203  0.00  0.00    +0.207 C 
ENDROOT
BRANCH   1   3
ATOM      2  N   UNL     1      35.031 -20.440 -19.567  0.00  0.00    +0.388 N 
ATOM      3  C   UNL     1      34.337 -22.451 -17.548  0.00  0.00    +0.040 C 
ATOM      4  C   UNL     1      33.937 -21.392 -19.810  0.00  0.00    -0.077 C 
ATOM      5  C   UNL     1      36.075 -21.037 -18.723  0.00  0.00    -0.077 C 
ATOM      6  C   UNL     1      35.507 -21.477 -17.372  0.00  0.00    -0.019 C 
ATOM      7  C   UNL     1      33.297 -21.843 -18.496  0.00  0.00    -0.019 C 
ATOM      8  H   UNL     1      34.645 -19.639 -19.070  0.00  0.00    -0.080 HD
BRANCH   2   9
ATOM      9  C   UNL     1      35.598 -19.980 -20.834  0.00  0.00    -0.050 C 
BRANCH   9  11
ATOM     10  O   UNL     1      34.551 -16.723 -23.383  0.00  0.00    -0.354 OA
ATOM     11  C   UNL     1      34.759 -18.851 -21.435  0.00  0.00    +0.074 C 
ATOM     12  C   UNL     1      35.452 -17.492 -21.262  0.00  0.00    +0.057 C 
ATOM     13  C   UNL     1      34.481 -19.109 -22.922  0.00  0.00    +0.057 C 
ATOM     14  C   UNL     1      34.700 -16.390 -22.004  0.00  0.00    +0.144 C 
ATOM     15  C   UNL     1      33.787 -17.913 -23.570  0.00  0.00    +0.144 C 
BRANCH  11  16
ATOM     16  O   UNL     1      33.504 -18.825 -20.749  0.00  0.00    -0.389 OA
ATOM     17  H   UNL     1      33.648 -18.582 -19.822  0.00  0.00    +0.210 HD
ENDBRANCH  11  16
ENDBRANCH   9  11
ENDBRANCH   2   9
ENDBRANCH   1   3
BRANCH   1  18
ATOM     18  O   UNL     1      34.682 -23.484 -15.423  0.00  0.00    -0.458 OA
BRANCH  18  21
ATOM     19  O   UNL     1      33.174 -24.019 -12.341  0.00  0.00    -0.350 OA
ATOM     20  N   UNL     1      33.139 -23.897 -13.725  0.00  0.00    -0.039 NA
ATOM     21  C   UNL     1      34.402 -23.652 -14.089  0.00  0.00    +0.267 A 
ATOM     22  C   UNL     1      35.278 -23.607 -12.988  0.00  0.00    +0.127 A 
ATOM     23  C   UNL     1      36.647 -23.399 -12.767  0.00  0.00    +0.146 C 
ATOM     24  C   UNL     1      34.451 -23.845 -11.904  0.00  0.00    +0.183 A 
ATOM     25  C   UNL     1      37.120 -23.442 -11.448  0.00  0.00    +0.037 C 
ATOM     26  C   UNL     1      34.885 -23.894 -10.582  0.00  0.00    +0.041 C 
ATOM     27  C   UNL     1      36.253 -23.684 -10.378  0.00  0.00    +0.006 C 
BRANCH  23  28
ATOM     28  O   UNL     1      37.517 -23.159 -13.796  0.00  0.00    -0.476 OA
BRANCH  28  30
ATOM     29  O   UNL     1      40.218 -24.319 -14.574  0.00  0.00    -0.350 OA
ATOM     30  C   UNL     1      37.849 -24.265 -14.628  0.00  0.00    +0.198 C 
ATOM     31  C   UNL     1      38.283 -25.422 -13.762  0.00  0.00    +0.078 C 
ATOM     32  C   UNL     1      39.108 -23.960 -15.414  0.00  0.00    +0.185 C 
ATOM     33  C   UNL     1      39.724 -25.065 -13.453  0.00  0.00    +0.146 C 
ENDBRANCH  28  30
ENDBRANCH  23  28
ENDBRANCH  18  21
ENDBRANCH   1  18
TORSDOF 8
ENDMDL
MODEL 6
REMARK VINA RESULT:     -10.4      3.105      8.908
REMARK  Name = 53354764
REMARK  8 active torsions:
REMARK  status: ('A' for Active; 'I' for Inactive)
REMARK    1  A    between atoms: C_1  and  C_3
REMARK    2  A    between atoms: C_1  and  O_18
REMARK    3  A    between atoms: N_2  and  C_9
REMARK    4  A    between atoms: C_9  and  C_11
REMARK    5  A    between atoms: C_11  and  O_16
REMARK    6  A    between atoms: O_18  and  C_21
REMARK    7  A    between atoms: C_23  and  O_28
REMARK    8  A    between atoms: O_28  and  C_30
REMARK                            x       y       z     vdW  Elec       q    Type
REMARK                         _______ _______ _______ _____ _____    ______ ____
ROOT
ATOM      1  C   UNL     1      31.619 -22.439 -16.777  0.00  0.00    +0.207 C 
ENDROOT
BRANCH   1   3
ATOM      2  N   UNL     1      33.550 -23.575 -13.083  0.00  0.00    +0.388 N 
ATOM      3  C   UNL     1      31.917 -23.203 -15.490  0.00  0.00    +0.040 C 
ATOM      4  C   UNL     1      33.657 -24.516 -14.207  0.00  0.00    -0.077 C 
ATOM      5  C   UNL     1      32.193 -23.022 -12.982  0.00  0.00    -0.077 C 
ATOM      6  C   UNL     1      31.799 -22.288 -14.266  0.00  0.00    -0.019 C 
ATOM      7  C   UNL     1      33.313 -23.832 -15.532  0.00  0.00    -0.019 C 
ATOM      8  H   UNL     1      34.192 -22.803 -13.258  0.00  0.00    -0.080 HD
BRANCH   2   9
ATOM      9  C   UNL     1      33.931 -24.229 -11.832  0.00  0.00    -0.050 C 
BRANCH   9  11
ATOM     10  O   UNL     1      38.071 -23.519 -12.577  0.00  0.00    -0.354 OA
ATOM     11  C   UNL     1      35.420 -24.040 -11.542  0.00  0.00    +0.074 C 
ATOM     12  C   UNL     1      36.264 -25.110 -12.252  0.00  0.00    +0.057 C 
ATOM     13  C   UNL     1      35.887 -22.641 -11.967  0.00  0.00    +0.057 C 
ATOM     14  C   UNL     1      37.756 -24.826 -12.101  0.00  0.00    +0.144 C 
ATOM     15  C   UNL     1      37.402 -22.500 -11.835  0.00  0.00    +0.144 C 
BRANCH  11  16
ATOM     16  O   UNL     1      35.611 -24.159 -10.129  0.00  0.00    -0.389 OA
ATOM     17  H   UNL     1      35.767 -23.280  -9.750  0.00  0.00    +0.210 HD
ENDBRANCH  11  16
ENDBRANCH   9  11
ENDBRANCH   2   9
ENDBRANCH   1   3
BRANCH   1  18
ATOM     18  O   UNL     1      32.767 -22.488 -17.605  0.00  0.00    -0.458 OA
BRANCH  18  21
ATOM     19  O   UNL     1      32.054 -20.350 -20.246  0.00  0.00    -0.350 OA
ATOM     20  N   UNL     1      31.681 -21.246 -19.251  0.00  0.00    -0.039 NA
ATOM     21  C   UNL     1      32.821 -21.598 -18.648  0.00  0.00    +0.267 A 
ATOM     22  C   UNL     1      33.944 -20.961 -19.211  0.00  0.00    +0.127 A 
ATOM     23  C   UNL     1      35.331 -20.942 -19.003  0.00  0.00    +0.146 C 
ATOM     24  C   UNL     1      33.405 -20.182 -20.220  0.00  0.00    +0.183 A 
ATOM     25  C   UNL     1      36.114 -20.128 -19.833  0.00  0.00    +0.037 C 
ATOM     26  C   UNL     1      34.151 -19.363 -21.062  0.00  0.00    +0.041 C 
ATOM     27  C   UNL     1      35.532 -19.354 -20.843  0.00  0.00    +0.006 C 
BRANCH  23  28
ATOM     28  O   UNL     1      35.925 -21.689 -18.023  0.00  0.00    -0.476 OA
BRANCH  28  30
ATOM     29  O   UNL     1      36.611 -22.881 -15.311  0.00  0.00    -0.350 OA
ATOM     30  C   UNL     1      36.077 -21.075 -16.748  0.00  0.00    +0.198 C 
ATOM     31  C   UNL     1      37.544 -20.999 -16.408  0.00  0.00    +0.078 C 
ATOM     32  C   UNL     1      35.541 -21.990 -15.667  0.00  0.00    +0.185 C 
ATOM     33  C   UNL     1      37.826 -22.400 -15.902  0.00  0.00    +0.146 C 
ENDBRANCH  28  30
ENDBRANCH  23  28
ENDBRANCH  18  21
ENDBRANCH   1  18
TORSDOF 8
ENDMDL
MODEL 7
REMARK VINA RESULT:     -10.4      2.308      4.865
REMARK  Name = 53354764
REMARK  8 active torsions:
REMARK  status: ('A' for Active; 'I' for Inactive)
REMARK    1  A    between atoms: C_1  and  C_3
REMARK    2  A    between atoms: C_1  and  O_18
REMARK    3  A    between atoms: N_2  and  C_9
REMARK    4  A    between atoms: C_9  and  C_11
REMARK    5  A    between atoms: C_11  and  O_16
REMARK    6  A    between atoms: O_18  and  C_21
REMARK    7  A    between atoms: C_23  and  O_28
REMARK    8  A    between atoms: O_28  and  C_30
REMARK                            x       y       z     vdW  Elec       q    Type
REMARK                         _______ _______ _______ _____ _____    ______ ____
ROOT
ATOM      1  C   UNL     1      33.403 -22.931 -18.761  0.00  0.00    +0.207 C 
ENDROOT
BRANCH   1   3
ATOM      2  N   UNL     1      34.539 -19.257 -20.730  0.00  0.00    +0.388 N 
ATOM      3  C   UNL     1      33.778 -21.465 -18.956  0.00  0.00    +0.040 C 
ATOM      4  C   UNL     1      35.531 -19.866 -19.833  0.00  0.00    -0.077 C 
ATOM      5  C   UNL     1      33.193 -19.310 -20.145  0.00  0.00    -0.077 C 
ATOM      6  C   UNL     1      32.769 -20.753 -19.864  0.00  0.00    -0.019 C 
ATOM      7  C   UNL     1      35.187 -21.329 -19.543  0.00  0.00    -0.019 C 
ATOM      8  H   UNL     1      34.527 -19.794 -21.596  0.00  0.00    -0.080 HD
BRANCH   2   9
ATOM      9  C   UNL     1      34.909 -17.876 -21.038  0.00  0.00    -0.050 C 
BRANCH   9  11
ATOM     10  O   UNL     1      33.184 -16.711 -24.762  0.00  0.00    -0.354 OA
ATOM     11  C   UNL     1      34.807 -17.600 -22.539  0.00  0.00    +0.074 C 
ATOM     12  C   UNL     1      33.733 -18.482 -23.193  0.00  0.00    +0.057 C 
ATOM     13  C   UNL     1      34.499 -16.120 -22.804  0.00  0.00    +0.057 C 
ATOM     14  C   UNL     1      33.514 -18.094 -24.653  0.00  0.00    +0.144 C 
ATOM     15  C   UNL     1      34.232 -15.868 -24.286  0.00  0.00    +0.144 C 
BRANCH  11  16
ATOM     16  O   UNL     1      36.077 -17.898 -23.127  0.00  0.00    -0.389 OA
ATOM     17  H   UNL     1      36.639 -18.342 -22.474  0.00  0.00    +0.210 HD
ENDBRANCH  11  16
ENDBRANCH   9  11
ENDBRANCH   2   9
ENDBRANCH   1   3
BRANCH   1  18
ATOM     18  O   UNL     1      32.475 -23.019 -17.695  0.00  0.00    -0.458 OA
BRANCH  18  21
ATOM     19  O   UNL     1      34.506 -23.634 -14.947  0.00  0.00    -0.350 OA
ATOM     20  N   UNL     1      34.292 -23.487 -16.312  0.00  0.00    -0.039 NA
ATOM     21  C   UNL     1      32.989 -23.219 -16.438  0.00  0.00    +0.267 A 
ATOM     22  C   UNL     1      32.326 -23.181 -15.195  0.00  0.00    +0.127 A 
ATOM     23  C   UNL     1      31.024 -22.957 -14.727  0.00  0.00    +0.146 C 
ATOM     24  C   UNL     1      33.332 -23.451 -14.283  0.00  0.00    +0.183 A 
ATOM     25  C   UNL     1      30.797 -23.017 -13.345  0.00  0.00    +0.037 C 
ATOM     26  C   UNL     1      33.143 -23.519 -12.906  0.00  0.00    +0.041 C 
ATOM     27  C   UNL     1      31.839 -23.293 -12.453  0.00  0.00    +0.006 C 
BRANCH  23  28
ATOM     28  O   UNL     1      29.987 -22.685 -15.577  0.00  0.00    -0.476 OA
BRANCH  28  30
ATOM     29  O   UNL     1      27.275 -21.671 -16.506  0.00  0.00    -0.350 OA
ATOM     30  C   UNL     1      28.676 -22.971 -15.105  0.00  0.00    +0.198 C 
ATOM     31  C   UNL     1      27.988 -23.891 -16.082  0.00  0.00    +0.078 C 
ATOM     32  C   UNL     1      27.818 -21.724 -15.177  0.00  0.00    +0.185 C 
ATOM     33  C   UNL     1      27.523 -22.926 -17.155  0.00  0.00    +0.146 C 
ENDBRANCH  28  30
ENDBRANCH  23  28
ENDBRANCH  18  21
ENDBRANCH   1  18
TORSDOF 8
ENDMDL
MODEL 8
REMARK VINA RESULT:      -9.8      5.327     13.003
REMARK  Name = 53354764
REMARK  8 active torsions:
REMARK  status: ('A' for Active; 'I' for Inactive)
REMARK    1  A    between atoms: C_1  and  C_3
REMARK    2  A    between atoms: C_1  and  O_18
REMARK    3  A    between atoms: N_2  and  C_9
REMARK    4  A    between atoms: C_9  and  C_11
REMARK    5  A    between atoms: C_11  and  O_16
REMARK    6  A    between atoms: O_18  and  C_21
REMARK    7  A    between atoms: C_23  and  O_28
REMARK    8  A    between atoms: O_28  and  C_30
REMARK                            x       y       z     vdW  Elec       q    Type
REMARK                         _______ _______ _______ _____ _____    ______ ____
ROOT
ATOM      1  C   UNL     1      31.334 -11.694 -22.221  0.00  0.00    +0.207 C 
ENDROOT
BRANCH   1   3
ATOM      2  N   UNL     1      33.848 -15.190 -22.568  0.00  0.00    +0.388 N 
ATOM      3  C   UNL     1      32.585 -12.549 -22.401  0.00  0.00    +0.040 C 
ATOM      4  C   UNL     1      34.038 -14.348 -21.378  0.00  0.00    -0.077 C 
ATOM      5  C   UNL     1      33.677 -14.371 -23.774  0.00  0.00    -0.077 C 
ATOM      6  C   UNL     1      32.470 -13.439 -23.643  0.00  0.00    -0.019 C 
ATOM      7  C   UNL     1      32.842 -13.417 -21.165  0.00  0.00    -0.019 C 
ATOM      8  H   UNL     1      32.996 -15.734 -22.435  0.00  0.00    -0.080 HD
BRANCH   2   9
ATOM      9  C   UNL     1      34.973 -16.110 -22.728  0.00  0.00    -0.050 C 
BRANCH   9  11
ATOM     10  O   UNL     1      35.240 -20.004 -21.006  0.00  0.00    -0.354 OA
ATOM     11  C   UNL     1      34.951 -17.200 -21.656  0.00  0.00    +0.074 C 
ATOM     12  C   UNL     1      33.859 -18.241 -21.946  0.00  0.00    +0.057 C 
ATOM     13  C   UNL     1      36.316 -17.893 -21.551  0.00  0.00    +0.057 C 
ATOM     14  C   UNL     1      33.942 -19.414 -20.974  0.00  0.00    +0.144 C 
ATOM     15  C   UNL     1      36.258 -19.089 -20.603  0.00  0.00    +0.144 C 
BRANCH  11  16
ATOM     16  O   UNL     1      34.676 -16.574 -20.399  0.00  0.00    -0.389 OA
ATOM     17  H   UNL     1      35.301 -16.901 -19.733  0.00  0.00    +0.210 HD
ENDBRANCH  11  16
ENDBRANCH   9  11
ENDBRANCH   2   9
ENDBRANCH   1   3
BRANCH   1  18
ATOM     18  O   UNL     1      31.692 -10.334 -22.385  0.00  0.00    -0.458 OA
BRANCH  18  21
ATOM     19  O   UNL     1      31.196  -9.017 -19.211  0.00  0.00    -0.350 OA
ATOM     20  N   UNL     1      31.228 -10.071 -20.116  0.00  0.00    -0.039 NA
ATOM     21  C   UNL     1      31.576  -9.522 -21.284  0.00  0.00    +0.267 A 
ATOM     22  C   UNL     1      31.779  -8.132 -21.184  0.00  0.00    +0.127 A 
ATOM     23  C   UNL     1      32.140  -7.078 -22.036  0.00  0.00    +0.146 C 
ATOM     24  C   UNL     1      31.525  -7.861 -19.850  0.00  0.00    +0.183 A 
ATOM     25  C   UNL     1      32.228  -5.788 -21.494  0.00  0.00    +0.037 C 
ATOM     26  C   UNL     1      31.602  -6.595 -19.279  0.00  0.00    +0.041 C 
ATOM     27  C   UNL     1      31.963  -5.554 -20.141  0.00  0.00    +0.006 C 
BRANCH  23  28
ATOM     28  O   UNL     1      32.404  -7.280 -23.363  0.00  0.00    -0.476 OA
BRANCH  28  30
ATOM     29  O   UNL     1      30.546  -5.053 -24.275  0.00  0.00    -0.350 OA
ATOM     30  C   UNL     1      31.287  -7.303 -24.245  0.00  0.00    +0.198 C 
ATOM     31  C   UNL     1      31.685  -6.684 -25.562  0.00  0.00    +0.078 C 
ATOM     32  C   UNL     1      30.219  -6.350 -23.750  0.00  0.00    +0.185 C 
ATOM     33  C   UNL     1      31.573  -5.202 -25.263  0.00  0.00    +0.146 C 
ENDBRANCH  28  30
ENDBRANCH  23  28
ENDBRANCH  18  21
ENDBRANCH   1  18
TORSDOF 8
ENDMDL
