MODEL 1
REMARK VINA RESULT:     -12.2      0.000      0.000
REMARK  Name = 456199
REMARK  5 active torsions:
REMARK  status: ('A' for Active; 'I' for Inactive)
REMARK    1  A    between atoms: O_1  and  C_5
REMARK    2  A    between atoms: O_1  and  C_14
REMARK    3  A    between atoms: C_14  and  C_15
REMARK    4  A    between atoms: C_20  and  O_21
REMARK    5  A    between atoms: O_21  and  C_25
REMARK                            x       y       z     vdW  Elec       q    Type
REMARK                         _______ _______ _______ _____ _____    ______ ____
ROOT
ATOM      1  O   UNL     1      34.617 -22.784 -17.265  0.00  0.00    -0.346 OA
ENDROOT
BRANCH   1   5
ATOM      2  O   UNL     1      36.650 -21.966 -14.300  0.00  0.00    -0.438 OA
ATOM      3  N   UNL     1      34.962 -23.540 -13.705  0.00  0.00    -0.242 N 
ATOM      4  N   UNL     1      36.339 -22.802 -12.131  0.00  0.00    -0.333 NA
ATOM      5  C   UNL     1      34.845 -22.489 -15.895  0.00  0.00    +0.179 C 
ATOM      6  C   UNL     1      34.378 -23.649 -15.022  0.00  0.00    +0.130 C 
ATOM      7  C   UNL     1      36.337 -22.244 -15.671  0.00  0.00    +0.241 C 
ATOM      8  C   UNL     1      36.034 -22.742 -13.408  0.00  0.00    +0.345 C 
ATOM      9  C   UNL     1      34.567 -24.163 -12.562  0.00  0.00    +0.181 C 
ATOM     10  C   UNL     1      35.434 -23.693 -11.600  0.00  0.00    +0.274 C 
ATOM     11  O   UNL     1      34.656 -24.838  -9.761  0.00  0.00    -0.124 OA
ATOM     12  O   UNL     1      36.362 -23.475  -9.505  0.00  0.00    -0.124 OA
ATOM     13  N   UNL     1      35.485 -24.014 -10.238  0.00  0.00    +0.085 N 
ENDBRANCH   1   5
BRANCH   1  14
ATOM     14  C   UNL     1      33.414 -22.190 -17.728  0.00  0.00    +0.169 C 
BRANCH  14  15
ATOM     15  C   UNL     1      33.730 -21.270 -18.870  0.00  0.00    +0.007 C 
ATOM     16  C   UNL     1      32.696 -20.658 -19.567  0.00  0.00    +0.001 C 
ATOM     17  C   UNL     1      35.056 -21.038 -19.219  0.00  0.00    +0.001 C 
ATOM     18  C   UNL     1      32.990 -19.802 -20.629  0.00  0.00    +0.037 C 
ATOM     19  C   UNL     1      35.351 -20.182 -20.281  0.00  0.00    +0.037 C 
ATOM     20  C   UNL     1      34.318 -19.564 -20.985  0.00  0.00    +0.147 C 
BRANCH  20  21
ATOM     21  O   UNL     1      34.605 -18.729 -22.021  0.00  0.00    -0.404 OA
BRANCH  21  25
ATOM     22  F   UNL     1      34.900 -16.972 -20.588  0.00  0.00    -0.133 F 
ATOM     23  F   UNL     1      35.094 -16.645 -22.740  0.00  0.00    -0.133 F 
ATOM     24  F   UNL     1      36.649 -17.760 -21.684  0.00  0.00    -0.133 F 
ATOM     25  C   UNL     1      35.319 -17.531 -21.742  0.00  0.00    +0.575 C 
ENDBRANCH  21  25
ENDBRANCH  20  21
ENDBRANCH  14  15
ENDBRANCH   1  14
TORSDOF 5
ENDMDL
MODEL 2
REMARK VINA RESULT:     -12.1      0.078      1.233
REMARK  Name = 456199
REMARK  5 active torsions:
REMARK  status: ('A' for Active; 'I' for Inactive)
REMARK    1  A    between atoms: O_1  and  C_5
REMARK    2  A    between atoms: O_1  and  C_14
REMARK    3  A    between atoms: C_14  and  C_15
REMARK    4  A    between atoms: C_20  and  O_21
REMARK    5  A    between atoms: O_21  and  C_25
REMARK                            x       y       z     vdW  Elec       q    Type
REMARK                         _______ _______ _______ _____ _____    ______ ____
ROOT
ATOM      1  O   UNL     1      34.512 -22.800 -17.285  0.00  0.00    -0.346 OA
ENDROOT
BRANCH   1   5
ATOM      2  O   UNL     1      36.524 -21.922 -14.323  0.00  0.00    -0.438 OA
ATOM      3  N   UNL     1      34.895 -23.558 -13.729  0.00  0.00    -0.242 N 
ATOM      4  N   UNL     1      36.250 -22.778 -12.157  0.00  0.00    -0.333 NA
ATOM      5  C   UNL     1      34.733 -22.502 -15.914  0.00  0.00    +0.179 C 
ATOM      6  C   UNL     1      34.311 -23.682 -15.045  0.00  0.00    +0.130 C 
ATOM      7  C   UNL     1      36.217 -22.205 -15.694  0.00  0.00    +0.241 C 
ATOM      8  C   UNL     1      35.939 -22.724 -13.432  0.00  0.00    +0.345 C 
ATOM      9  C   UNL     1      34.527 -24.201 -12.588  0.00  0.00    +0.181 C 
ATOM     10  C   UNL     1      35.380 -23.704 -11.627  0.00  0.00    +0.274 C 
ATOM     11  O   UNL     1      34.650 -24.884  -9.790  0.00  0.00    -0.124 OA
ATOM     12  O   UNL     1      36.306 -23.462  -9.534  0.00  0.00    -0.124 OA
ATOM     13  N   UNL     1      35.447 -24.029 -10.266  0.00  0.00    +0.085 N 
ENDBRANCH   1   5
BRANCH   1  14
ATOM     14  C   UNL     1      33.327 -22.181 -17.763  0.00  0.00    +0.169 C 
BRANCH  14  15
ATOM     15  C   UNL     1      33.677 -21.268 -18.901  0.00  0.00    +0.007 C 
ATOM     16  C   UNL     1      35.010 -21.066 -19.237  0.00  0.00    +0.001 C 
ATOM     17  C   UNL     1      32.663 -20.633 -19.610  0.00  0.00    +0.001 C 
ATOM     18  C   UNL     1      35.335 -20.218 -20.295  0.00  0.00    +0.037 C 
ATOM     19  C   UNL     1      32.987 -19.784 -20.668  0.00  0.00    +0.037 C 
ATOM     20  C   UNL     1      34.324 -19.577 -21.011  0.00  0.00    +0.147 C 
BRANCH  20  21
ATOM     21  O   UNL     1      34.641 -18.749 -22.044  0.00  0.00    -0.404 OA
BRANCH  21  25
ATOM     22  F   UNL     1      36.675 -17.783 -21.642  0.00  0.00    -0.133 F 
ATOM     23  F   UNL     1      34.913 -17.062 -20.568  0.00  0.00    -0.133 F 
ATOM     24  F   UNL     1      35.126 -16.611 -22.696  0.00  0.00    -0.133 F 
ATOM     25  C   UNL     1      35.350 -17.550 -21.752  0.00  0.00    +0.575 C 
ENDBRANCH  21  25
ENDBRANCH  20  21
ENDBRANCH  14  15
ENDBRANCH   1  14
TORSDOF 5
ENDMDL
MODEL 3
REMARK VINA RESULT:     -12.0      0.986      1.487
REMARK  Name = 456199
REMARK  5 active torsions:
REMARK  status: ('A' for Active; 'I' for Inactive)
REMARK    1  A    between atoms: O_1  and  C_5
REMARK    2  A    between atoms: O_1  and  C_14
REMARK    3  A    between atoms: C_14  and  C_15
REMARK    4  A    between atoms: C_20  and  O_21
REMARK    5  A    between atoms: O_21  and  C_25
REMARK                            x       y       z     vdW  Elec       q    Type
REMARK                         _______ _______ _______ _____ _____    ______ ____
ROOT
ATOM      1  O   UNL     1      35.058 -22.051 -16.983  0.00  0.00    -0.346 OA
ENDROOT
BRANCH   1   5
ATOM      2  O   UNL     1      33.369 -23.900 -14.278  0.00  0.00    -0.438 OA
ATOM      3  N   UNL     1      35.364 -22.900 -13.440  0.00  0.00    -0.242 N 
ATOM      4  N   UNL     1      34.126 -24.127 -12.070  0.00  0.00    -0.333 NA
ATOM      5  C   UNL     1      34.985 -22.894 -15.843  0.00  0.00    +0.179 C 
ATOM      6  C   UNL     1      35.760 -22.278 -14.682  0.00  0.00    +0.130 C 
ATOM      7  C   UNL     1      33.521 -23.080 -15.443  0.00  0.00    +0.241 C 
ATOM      8  C   UNL     1      34.228 -23.650 -13.290  0.00  0.00    +0.345 C 
ATOM      9  C   UNL     1      36.018 -22.876 -12.248  0.00  0.00    +0.181 C 
ATOM     10  C   UNL     1      35.234 -23.641 -11.413  0.00  0.00    +0.274 C 
ATOM     11  O   UNL     1      36.450 -23.489  -9.465  0.00  0.00    -0.124 OA
ATOM     12  O   UNL     1      34.597 -24.671  -9.456  0.00  0.00    -0.124 OA
ATOM     13  N   UNL     1      35.435 -23.945 -10.061  0.00  0.00    +0.085 N 
ENDBRANCH   1   5
BRANCH   1  14
ATOM     14  C   UNL     1      33.970 -22.281 -17.866  0.00  0.00    +0.169 C 
BRANCH  14  15
ATOM     15  C   UNL     1      34.029 -21.284 -18.985  0.00  0.00    +0.007 C 
ATOM     16  C   UNL     1      32.850 -20.766 -19.508  0.00  0.00    +0.001 C 
ATOM     17  C   UNL     1      35.263 -20.890 -19.490  0.00  0.00    +0.001 C 
ATOM     18  C   UNL     1      32.905 -19.839 -20.549  0.00  0.00    +0.037 C 
ATOM     19  C   UNL     1      35.319 -19.963 -20.531  0.00  0.00    +0.037 C 
ATOM     20  C   UNL     1      34.140 -19.437 -21.060  0.00  0.00    +0.147 C 
BRANCH  20  21
ATOM     21  O   UNL     1      34.193 -18.533 -22.077  0.00  0.00    -0.404 OA
BRANCH  21  25
ATOM     22  F   UNL     1      34.632 -16.820 -20.627  0.00  0.00    -0.133 F 
ATOM     23  F   UNL     1      34.478 -16.403 -22.767  0.00  0.00    -0.133 F 
ATOM     24  F   UNL     1      36.223 -17.481 -22.012  0.00  0.00    -0.133 F 
ATOM     25  C   UNL     1      34.891 -17.313 -21.856  0.00  0.00    +0.575 C 
ENDBRANCH  21  25
ENDBRANCH  20  21
ENDBRANCH  14  15
ENDBRANCH   1  14
TORSDOF 5
ENDMDL
MODEL 4
REMARK VINA RESULT:     -11.9      0.988      1.910
REMARK  Name = 456199
REMARK  5 active torsions:
REMARK  status: ('A' for Active; 'I' for Inactive)
REMARK    1  A    between atoms: O_1  and  C_5
REMARK    2  A    between atoms: O_1  and  C_14
REMARK    3  A    between atoms: C_14  and  C_15
REMARK    4  A    between atoms: C_20  and  O_21
REMARK    5  A    between atoms: O_21  and  C_25
REMARK                            x       y       z     vdW  Elec       q    Type
REMARK                         _______ _______ _______ _____ _____    ______ ____
ROOT
ATOM      1  O   UNL     1      35.093 -22.037 -16.921  0.00  0.00    -0.346 OA
ENDROOT
BRANCH   1   5
ATOM      2  O   UNL     1      33.371 -23.864 -14.222  0.00  0.00    -0.438 OA
ATOM      3  N   UNL     1      35.386 -22.907 -13.383  0.00  0.00    -0.242 N 
ATOM      4  N   UNL     1      34.126 -24.116 -12.016  0.00  0.00    -0.333 NA
ATOM      5  C   UNL     1      35.005 -22.883 -15.785  0.00  0.00    +0.179 C 
ATOM      6  C   UNL     1      35.793 -22.288 -14.622  0.00  0.00    +0.130 C 
ATOM      7  C   UNL     1      33.538 -23.042 -15.384  0.00  0.00    +0.241 C 
ATOM      8  C   UNL     1      34.236 -23.635 -13.234  0.00  0.00    +0.345 C 
ATOM      9  C   UNL     1      36.042 -22.901 -12.191  0.00  0.00    +0.181 C 
ATOM     10  C   UNL     1      35.243 -23.654 -11.359  0.00  0.00    +0.274 C 
ATOM     11  O   UNL     1      36.464 -23.534  -9.411  0.00  0.00    -0.124 OA
ATOM     12  O   UNL     1      34.588 -24.679  -9.405  0.00  0.00    -0.124 OA
ATOM     13  N   UNL     1      35.439 -23.967 -10.008  0.00  0.00    +0.085 N 
ENDBRANCH   1   5
BRANCH   1  14
ATOM     14  C   UNL     1      34.013 -22.259 -17.815  0.00  0.00    +0.169 C 
BRANCH  14  15
ATOM     15  C   UNL     1      34.110 -21.284 -18.952  0.00  0.00    +0.007 C 
ATOM     16  C   UNL     1      35.357 -20.946 -19.463  0.00  0.00    +0.001 C 
ATOM     17  C   UNL     1      32.952 -20.729 -19.483  0.00  0.00    +0.001 C 
ATOM     18  C   UNL     1      35.448 -20.039 -20.520  0.00  0.00    +0.037 C 
ATOM     19  C   UNL     1      33.041 -19.823 -20.540  0.00  0.00    +0.037 C 
ATOM     20  C   UNL     1      34.289 -19.478 -21.058  0.00  0.00    +0.147 C 
BRANCH  20  21
ATOM     21  O   UNL     1      34.378 -18.594 -22.089  0.00  0.00    -0.404 OA
BRANCH  21  25
ATOM     22  F   UNL     1      34.640 -16.428 -22.776  0.00  0.00    -0.133 F 
ATOM     23  F   UNL     1      36.342 -17.494 -21.912  0.00  0.00    -0.133 F 
ATOM     24  F   UNL     1      34.697 -16.876 -20.612  0.00  0.00    -0.133 F 
ATOM     25  C   UNL     1      35.000 -17.337 -21.846  0.00  0.00    +0.575 C 
ENDBRANCH  21  25
ENDBRANCH  20  21
ENDBRANCH  14  15
ENDBRANCH   1  14
TORSDOF 5
ENDMDL
MODEL 5
REMARK VINA RESULT:     -11.6      2.310      2.925
REMARK  Name = 456199
REMARK  5 active torsions:
REMARK  status: ('A' for Active; 'I' for Inactive)
REMARK    1  A    between atoms: O_1  and  C_5
REMARK    2  A    between atoms: O_1  and  C_14
REMARK    3  A    between atoms: C_14  and  C_15
REMARK    4  A    between atoms: C_20  and  O_21
REMARK    5  A    between atoms: O_21  and  C_25
REMARK                            x       y       z     vdW  Elec       q    Type
REMARK                         _______ _______ _______ _____ _____    ______ ____
ROOT
ATOM      1  O   UNL     1      33.299 -22.226 -16.358  0.00  0.00    -0.346 OA
ENDROOT
BRANCH   1   5
ATOM      2  O   UNL     1      34.885 -25.021 -14.552  0.00  0.00    -0.438 OA
ATOM      3  N   UNL     1      36.539 -23.414 -15.153  0.00  0.00    -0.242 N 
ATOM      4  N   UNL     1      37.172 -25.251 -14.085  0.00  0.00    -0.333 NA
ATOM      5  C   UNL     1      34.309 -23.189 -16.097  0.00  0.00    +0.179 C 
ATOM      6  C   UNL     1      35.635 -22.494 -15.804  0.00  0.00    +0.130 C 
ATOM      7  C   UNL     1      33.898 -24.040 -14.895  0.00  0.00    +0.241 C 
ATOM      8  C   UNL     1      36.146 -24.589 -14.571  0.00  0.00    +0.345 C 
ATOM      9  C   UNL     1      37.888 -23.303 -15.018  0.00  0.00    +0.181 C 
ATOM     10  C   UNL     1      38.259 -24.451 -14.352  0.00  0.00    +0.274 C 
ATOM     11  O   UNL     1      40.530 -24.107 -14.188  0.00  0.00    -0.124 OA
ATOM     12  O   UNL     1      39.683 -25.949 -13.340  0.00  0.00    -0.124 OA
ATOM     13  N   UNL     1      39.539 -24.850 -13.946  0.00  0.00    +0.085 N 
ENDBRANCH   1   5
BRANCH   1  14
ATOM     14  C   UNL     1      32.654 -22.478 -17.597  0.00  0.00    +0.169 C 
BRANCH  14  15
ATOM     15  C   UNL     1      33.273 -21.613 -18.656  0.00  0.00    +0.007 C 
ATOM     16  C   UNL     1      32.491 -20.685 -19.331  0.00  0.00    +0.001 C 
ATOM     17  C   UNL     1      34.625 -21.749 -18.950  0.00  0.00    +0.001 C 
ATOM     18  C   UNL     1      33.067 -19.881 -20.316  0.00  0.00    +0.037 C 
ATOM     19  C   UNL     1      35.202 -20.946 -19.934  0.00  0.00    +0.037 C 
ATOM     20  C   UNL     1      34.423 -20.012 -20.616  0.00  0.00    +0.147 C 
BRANCH  20  21
ATOM     21  O   UNL     1      34.984 -19.228 -21.577  0.00  0.00    -0.404 OA
BRANCH  21  25
ATOM     22  F   UNL     1      35.321 -17.093 -20.828  0.00  0.00    -0.133 F 
ATOM     23  F   UNL     1      36.758 -17.984 -22.213  0.00  0.00    -0.133 F 
ATOM     24  F   UNL     1      36.687 -18.691 -20.146  0.00  0.00    -0.133 F 
ATOM     25  C   UNL     1      35.932 -18.246 -21.174  0.00  0.00    +0.575 C 
ENDBRANCH  21  25
ENDBRANCH  20  21
ENDBRANCH  14  15
ENDBRANCH   1  14
TORSDOF 5
ENDMDL
MODEL 6
REMARK VINA RESULT:     -11.5      4.119      6.429
REMARK  Name = 456199
REMARK  5 active torsions:
REMARK  status: ('A' for Active; 'I' for Inactive)
REMARK    1  A    between atoms: O_1  and  C_5
REMARK    2  A    between atoms: O_1  and  C_14
REMARK    3  A    between atoms: C_14  and  C_15
REMARK    4  A    between atoms: C_20  and  O_21
REMARK    5  A    between atoms: O_21  and  C_25
REMARK                            x       y       z     vdW  Elec       q    Type
REMARK                         _______ _______ _______ _____ _____    ______ ____
ROOT
ATOM      1  O   UNL     1      34.112 -18.513 -22.171  0.00  0.00    -0.346 OA
ENDROOT
BRANCH   1   5
ATOM      2  O   UNL     1      35.858 -20.459 -19.572  0.00  0.00    -0.438 OA
ATOM      3  N   UNL     1      33.513 -20.863 -19.435  0.00  0.00    -0.242 N 
ATOM      4  N   UNL     1      34.855 -21.855 -17.975  0.00  0.00    -0.333 NA
ATOM      5  C   UNL     1      34.297 -19.068 -20.878  0.00  0.00    +0.179 C 
ATOM      6  C   UNL     1      33.142 -20.003 -20.535  0.00  0.00    +0.130 C 
ATOM      7  C   UNL     1      35.614 -19.844 -20.843  0.00  0.00    +0.241 C 
ATOM      8  C   UNL     1      34.802 -21.055 -19.017  0.00  0.00    +0.345 C 
ATOM      9  C   UNL     1      32.692 -21.593 -18.633  0.00  0.00    +0.181 C 
ATOM     10  C   UNL     1      33.544 -22.201 -17.737  0.00  0.00    +0.274 C 
ATOM     11  O   UNL     1      32.028 -23.394 -16.482  0.00  0.00    -0.124 OA
ATOM     12  O   UNL     1      34.159 -23.537 -15.966  0.00  0.00    -0.124 OA
ATOM     13  N   UNL     1      33.232 -23.076 -16.689  0.00  0.00    +0.085 N 
ENDBRANCH   1   5
BRANCH   1  14
ATOM     14  C   UNL     1      35.120 -17.559 -22.472  0.00  0.00    +0.169 C 
BRANCH  14  15
ATOM     15  C   UNL     1      34.590 -16.184 -22.192  0.00  0.00    +0.007 C 
ATOM     16  C   UNL     1      34.340 -15.315 -23.247  0.00  0.00    +0.001 C 
ATOM     17  C   UNL     1      34.355 -15.792 -20.879  0.00  0.00    +0.001 C 
ATOM     18  C   UNL     1      33.847 -14.035 -22.987  0.00  0.00    +0.037 C 
ATOM     19  C   UNL     1      33.862 -14.513 -20.618  0.00  0.00    +0.037 C 
ATOM     20  C   UNL     1      33.609 -13.635 -21.672  0.00  0.00    +0.147 C 
BRANCH  20  21
ATOM     21  O   UNL     1      33.128 -12.387 -21.418  0.00  0.00    -0.404 OA
BRANCH  21  25
ATOM     22  F   UNL     1      31.787 -11.421 -19.838  0.00  0.00    -0.133 F 
ATOM     23  F   UNL     1      31.404 -13.481 -20.457  0.00  0.00    -0.133 F 
ATOM     24  F   UNL     1      30.945 -11.849 -21.836  0.00  0.00    -0.133 F 
ATOM     25  C   UNL     1      31.813 -12.267 -20.889  0.00  0.00    +0.575 C 
ENDBRANCH  21  25
ENDBRANCH  20  21
ENDBRANCH  14  15
ENDBRANCH   1  14
TORSDOF 5
ENDMDL
MODEL 7
REMARK VINA RESULT:     -11.2      2.439      4.110
REMARK  Name = 456199
REMARK  5 active torsions:
REMARK  status: ('A' for Active; 'I' for Inactive)
REMARK    1  A    between atoms: O_1  and  C_5
REMARK    2  A    between atoms: O_1  and  C_14
REMARK    3  A    between atoms: C_14  and  C_15
REMARK    4  A    between atoms: C_20  and  O_21
REMARK    5  A    between atoms: O_21  and  C_25
REMARK                            x       y       z     vdW  Elec       q    Type
REMARK                         _______ _______ _______ _____ _____    ______ ____
ROOT
ATOM      1  O   UNL     1      35.628 -19.985 -20.004  0.00  0.00    -0.346 OA
ENDROOT
BRANCH   1   5
ATOM      2  O   UNL     1      34.100 -22.459 -17.738  0.00  0.00    -0.438 OA
ATOM      3  N   UNL     1      36.141 -21.664 -16.798  0.00  0.00    -0.242 N 
ATOM      4  N   UNL     1      34.986 -23.205 -15.698  0.00  0.00    -0.333 NA
ATOM      5  C   UNL     1      35.623 -21.081 -19.101  0.00  0.00    +0.179 C 
ATOM      6  C   UNL     1      36.465 -20.754 -17.872  0.00  0.00    +0.130 C 
ATOM      7  C   UNL     1      34.184 -21.378 -18.675  0.00  0.00    +0.241 C 
ATOM      8  C   UNL     1      35.016 -22.444 -16.769  0.00  0.00    +0.345 C 
ATOM      9  C   UNL     1      36.865 -21.922 -15.675  0.00  0.00    +0.181 C 
ATOM     10  C   UNL     1      36.130 -22.877 -15.007  0.00  0.00    +0.274 C 
ATOM     11  O   UNL     1      37.458 -23.186 -13.153  0.00  0.00    -0.124 OA
ATOM     12  O   UNL     1      35.609 -24.359 -13.326  0.00  0.00    -0.124 OA
ATOM     13  N   UNL     1      36.410 -23.497 -13.783  0.00  0.00    +0.085 N 
ENDBRANCH   1   5
BRANCH   1  14
ATOM     14  C   UNL     1      34.409 -19.906 -20.727  0.00  0.00    +0.169 C 
BRANCH  14  15
ATOM     15  C   UNL     1      34.417 -18.660 -21.563  0.00  0.00    +0.007 C 
ATOM     16  C   UNL     1      33.970 -18.711 -22.878  0.00  0.00    +0.001 C 
ATOM     17  C   UNL     1      34.871 -17.466 -21.014  0.00  0.00    +0.001 C 
ATOM     18  C   UNL     1      33.977 -17.552 -23.655  0.00  0.00    +0.037 C 
ATOM     19  C   UNL     1      34.879 -16.307 -21.791  0.00  0.00    +0.037 C 
ATOM     20  C   UNL     1      34.431 -16.350 -23.111  0.00  0.00    +0.147 C 
BRANCH  20  21
ATOM     21  O   UNL     1      34.438 -15.220 -23.870  0.00  0.00    -0.404 OA
BRANCH  21  25
ATOM     22  F   UNL     1      34.252 -13.095 -23.046  0.00  0.00    -0.133 F 
ATOM     23  F   UNL     1      32.747 -14.588 -22.514  0.00  0.00    -0.133 F 
ATOM     24  F   UNL     1      32.788 -13.789 -24.549  0.00  0.00    -0.133 F 
ATOM     25  C   UNL     1      33.562 -14.160 -23.506  0.00  0.00    +0.575 C 
ENDBRANCH  21  25
ENDBRANCH  20  21
ENDBRANCH  14  15
ENDBRANCH   1  14
TORSDOF 5
ENDMDL
MODEL 8
REMARK VINA RESULT:     -11.1      1.338      1.671
REMARK  Name = 456199
REMARK  5 active torsions:
REMARK  status: ('A' for Active; 'I' for Inactive)
REMARK    1  A    between atoms: O_1  and  C_5
REMARK    2  A    between atoms: O_1  and  C_14
REMARK    3  A    between atoms: C_14  and  C_15
REMARK    4  A    between atoms: C_20  and  O_21
REMARK    5  A    between atoms: O_21  and  C_25
REMARK                            x       y       z     vdW  Elec       q    Type
REMARK                         _______ _______ _______ _____ _____    ______ ____
ROOT
ATOM      1  O   UNL     1      34.937 -21.637 -18.036  0.00  0.00    -0.346 OA
ENDROOT
BRANCH   1   5
ATOM      2  O   UNL     1      37.280 -21.832 -15.198  0.00  0.00    -0.438 OA
ATOM      3  N   UNL     1      35.244 -22.934 -14.632  0.00  0.00    -0.242 N 
ATOM      4  N   UNL     1      36.861 -22.833 -13.118  0.00  0.00    -0.333 NA
ATOM      5  C   UNL     1      35.316 -21.606 -16.669  0.00  0.00    +0.179 C 
ATOM      6  C   UNL     1      34.582 -22.695 -15.894  0.00  0.00    +0.130 C 
ATOM      7  C   UNL     1      36.825 -21.823 -16.556  0.00  0.00    +0.241 C 
ATOM      8  C   UNL     1      36.516 -22.517 -14.347  0.00  0.00    +0.345 C 
ATOM      9  C   UNL     1      34.749 -23.571 -13.536  0.00  0.00    +0.181 C 
ATOM     10  C   UNL     1      35.767 -23.497 -12.611  0.00  0.00    +0.274 C 
ATOM     11  O   UNL     1      34.794 -24.616 -10.850  0.00  0.00    -0.124 OA
ATOM     12  O   UNL     1      36.833 -23.835 -10.599  0.00  0.00    -0.124 OA
ATOM     13  N   UNL     1      35.799 -24.001 -11.305  0.00  0.00    +0.085 N 
ENDBRANCH   1   5
BRANCH   1  14
ATOM     14  C   UNL     1      36.018 -21.270 -18.880  0.00  0.00    +0.169 C 
BRANCH  14  15
ATOM     15  C   UNL     1      35.542 -20.245 -19.867  0.00  0.00    +0.007 C 
ATOM     16  C   UNL     1      34.196 -20.190 -20.207  0.00  0.00    +0.001 C 
ATOM     17  C   UNL     1      36.453 -19.359 -20.432  0.00  0.00    +0.001 C 
ATOM     18  C   UNL     1      33.753 -19.236 -21.124  0.00  0.00    +0.037 C 
ATOM     19  C   UNL     1      36.012 -18.406 -21.350  0.00  0.00    +0.037 C 
ATOM     20  C   UNL     1      34.661 -18.344 -21.695  0.00  0.00    +0.147 C 
BRANCH  20  21
ATOM     21  O   UNL     1      34.229 -17.414 -22.590  0.00  0.00    -0.404 OA
BRANCH  21  25
ATOM     22  F   UNL     1      34.642 -15.875 -20.950  0.00  0.00    -0.133 F 
ATOM     23  F   UNL     1      33.257 -15.377 -22.566  0.00  0.00    -0.133 F 
ATOM     24  F   UNL     1      35.399 -15.489 -22.990  0.00  0.00    -0.133 F 
ATOM     25  C   UNL     1      34.399 -16.039 -22.267  0.00  0.00    +0.575 C 
ENDBRANCH  21  25
ENDBRANCH  20  21
ENDBRANCH  14  15
ENDBRANCH   1  14
TORSDOF 5
ENDMDL
MODEL 9
REMARK VINA RESULT:     -11.1      9.315     13.590
REMARK  Name = 456199
REMARK  5 active torsions:
REMARK  status: ('A' for Active; 'I' for Inactive)
REMARK    1  A    between atoms: O_1  and  C_5
REMARK    2  A    between atoms: O_1  and  C_14
REMARK    3  A    between atoms: C_14  and  C_15
REMARK    4  A    between atoms: C_20  and  O_21
REMARK    5  A    between atoms: O_21  and  C_25
REMARK                            x       y       z     vdW  Elec       q    Type
REMARK                         _______ _______ _______ _____ _____    ______ ____
ROOT
ATOM      1  O   UNL     1      32.045 -12.510 -22.895  0.00  0.00    -0.346 OA
ENDROOT
BRANCH   1   5
ATOM      2  O   UNL     1      30.926  -9.835 -20.618  0.00  0.00    -0.438 OA
ATOM      3  N   UNL     1      32.022  -8.875 -22.505  0.00  0.00    -0.242 N 
ATOM      4  N   UNL     1      31.260  -7.532 -20.913  0.00  0.00    -0.333 NA
ATOM      5  C   UNL     1      32.155 -11.283 -22.189  0.00  0.00    +0.179 C 
ATOM      6  C   UNL     1      32.314 -10.124 -23.168  0.00  0.00    +0.130 C 
ATOM      7  C   UNL     1      30.900 -11.071 -21.342  0.00  0.00    +0.241 C 
ATOM      8  C   UNL     1      31.361  -8.781 -21.310  0.00  0.00    +0.345 C 
ATOM      9  C   UNL     1      32.346  -7.618 -22.911  0.00  0.00    +0.181 C 
ATOM     10  C   UNL     1      31.864  -6.802 -21.911  0.00  0.00    +0.274 C 
ATOM     11  O   UNL     1      32.468  -4.743 -22.745  0.00  0.00    -0.124 OA
ATOM     12  O   UNL     1      31.416  -4.827 -20.817  0.00  0.00    -0.124 OA
ATOM     13  N   UNL     1      31.919  -5.405 -21.821  0.00  0.00    +0.085 N 
ENDBRANCH   1   5
BRANCH   1  14
ATOM     14  C   UNL     1      33.300 -12.921 -23.414  0.00  0.00    +0.169 C 
BRANCH  14  15
ATOM     15  C   UNL     1      33.759 -14.144 -22.674  0.00  0.00    +0.007 C 
ATOM     16  C   UNL     1      34.235 -15.239 -23.384  0.00  0.00    +0.001 C 
ATOM     17  C   UNL     1      33.702 -14.169 -21.286  0.00  0.00    +0.001 C 
ATOM     18  C   UNL     1      34.662 -16.376 -22.697  0.00  0.00    +0.037 C 
ATOM     19  C   UNL     1      34.127 -15.305 -20.597  0.00  0.00    +0.037 C 
ATOM     20  C   UNL     1      34.608 -16.408 -21.303  0.00  0.00    +0.147 C 
BRANCH  20  21
ATOM     21  O   UNL     1      35.023 -17.518 -20.632  0.00  0.00    -0.404 OA
BRANCH  21  25
ATOM     22  F   UNL     1      35.268 -19.133 -22.233  0.00  0.00    -0.133 F 
ATOM     23  F   UNL     1      36.425 -19.270 -20.384  0.00  0.00    -0.133 F 
ATOM     24  F   UNL     1      36.942 -17.741 -21.857  0.00  0.00    -0.133 F 
ATOM     25  C   UNL     1      35.913 -18.410 -21.294  0.00  0.00    +0.575 C 
ENDBRANCH  21  25
ENDBRANCH  20  21
ENDBRANCH  14  15
ENDBRANCH   1  14
TORSDOF 5
ENDMDL
