MODEL 1
REMARK VINA RESULT:     -12.0      0.000      0.000
REMARK  Name = 57582353
REMARK  3 active torsions:
REMARK  status: ('A' for Active; 'I' for Inactive)
REMARK    1  A    between atoms: C_4  and  C_12
REMARK    2  A    between atoms: C_9  and  C_22
REMARK    3  A    between atoms: C_15  and  O_18
REMARK                            x       y       z     vdW  Elec       q    Type
REMARK                         _______ _______ _______ _____ _____    ______ ____
ROOT
ATOM      1  O   UNL     1      32.428  -7.571 -23.575  0.00  0.00    -0.268 OA
ATOM      2  N   UNL     1      31.467  -8.819 -21.831  0.00  0.00    -0.255 N 
ATOM      3  N   UNL     1      31.577 -11.099 -21.214  0.00  0.00    -0.376 NA
ATOM      4  C   UNL     1      32.909 -12.623 -22.537  0.00  0.00    +0.112 C 
ATOM      5  C   UNL     1      32.068 -12.332 -21.475  0.00  0.00    +0.163 C 
ATOM      6  C   UNL     1      33.271 -11.582 -23.385  0.00  0.00    -0.010 C 
ATOM      7  C   UNL     1      31.950 -10.113 -22.061  0.00  0.00    +0.187 C 
ATOM      8  C   UNL     1      32.786 -10.300 -23.149  0.00  0.00    +0.044 C 
ATOM      9  C   UNL     1      31.725  -7.663 -22.575  0.00  0.00    +0.266 C 
ATOM     10  H   UNL     1      30.875  -8.710 -21.052  0.00  0.00    +0.158 HD
ATOM     11  N   UNL     1      31.690 -13.382 -20.600  0.00  0.00    -0.336 N 
ATOM     12  H   UNL     1      31.093 -13.198 -19.840  0.00  0.00    +0.144 HD
ATOM     13  H   UNL     1      32.025 -14.295 -20.754  0.00  0.00    +0.144 HD
ENDROOT
BRANCH   4  15
ATOM     14 CL   UNL     1      32.730 -13.691 -25.425  0.00  0.00    -0.083 Cl
ATOM     15  C   UNL     1      33.420 -13.957 -22.789  0.00  0.00    +0.003 C 
ATOM     16  C   UNL     1      33.955 -14.672 -21.718  0.00  0.00    +0.034 C 
ATOM     17  C   UNL     1      33.384 -14.529 -24.062  0.00  0.00    +0.055 C 
ATOM     18  C   UNL     1      34.454 -15.959 -21.919  0.00  0.00    +0.138 C 
ATOM     19  C   UNL     1      33.883 -15.816 -24.261  0.00  0.00    +0.014 C 
ATOM     20  C   UNL     1      34.419 -16.530 -23.190  0.00  0.00    +0.038 C 
BRANCH  18  21
ATOM     21  O   UNL     1      34.979 -16.656 -20.873  0.00  0.00    -0.471 OA
ATOM     22  C   UNL     1      35.660 -17.872 -21.181  0.00  0.00    +0.252 C 
ENDBRANCH  18  21
ENDBRANCH   4  15
BRANCH   9  25
ATOM     23  N   UNL     1      31.274  -5.811 -20.905  0.00  0.00    -0.205 N 
ATOM     24  N   UNL     1      30.519  -4.717 -20.707  0.00  0.00    -0.176 NA
ATOM     25  C   UNL     1      31.039  -6.435 -22.094  0.00  0.00    +0.124 C 
ATOM     26  C   UNL     1      30.062  -5.698 -22.718  0.00  0.00    +0.043 C 
ATOM     27  C   UNL     1      32.220  -6.209 -19.888  0.00  0.00    +0.140 C 
ATOM     28  C   UNL     1      29.781  -4.652 -21.818  0.00  0.00    +0.119 C 
ENDBRANCH   9  25
TORSDOF 3
ENDMDL
MODEL 2
REMARK VINA RESULT:     -11.4      6.854     11.983
REMARK  Name = 57582353
REMARK  3 active torsions:
REMARK  status: ('A' for Active; 'I' for Inactive)
REMARK    1  A    between atoms: C_4  and  C_12
REMARK    2  A    between atoms: C_9  and  C_22
REMARK    3  A    between atoms: C_15  and  O_18
REMARK                            x       y       z     vdW  Elec       q    Type
REMARK                         _______ _______ _______ _____ _____    ______ ____
ROOT
ATOM      1  O   UNL     1      33.143 -22.093 -17.672  0.00  0.00    -0.268 OA
ATOM      2  N   UNL     1      35.311 -21.316 -18.140  0.00  0.00    -0.255 N 
ATOM      3  N   UNL     1      36.185 -19.799 -19.730  0.00  0.00    -0.376 NA
ATOM      4  C   UNL     1      34.684 -18.719 -21.288  0.00  0.00    +0.112 C 
ATOM      5  C   UNL     1      35.943 -18.955 -20.759  0.00  0.00    +0.163 C 
ATOM      6  C   UNL     1      33.604 -19.390 -20.724  0.00  0.00    -0.010 C 
ATOM      7  C   UNL     1      35.111 -20.433 -19.208  0.00  0.00    +0.187 C 
ATOM      8  C   UNL     1      33.814 -20.265 -19.664  0.00  0.00    +0.044 C 
ATOM      9  C   UNL     1      34.350 -22.068 -17.458  0.00  0.00    +0.266 C 
ATOM     10  H   UNL     1      36.241 -21.419 -17.832  0.00  0.00    +0.158 HD
ATOM     11  N   UNL     1      37.055 -18.279 -21.322  0.00  0.00    -0.336 N 
ATOM     12  H   UNL     1      37.958 -18.432 -20.962  0.00  0.00    +0.144 HD
ATOM     13  H   UNL     1      36.923 -17.656 -22.074  0.00  0.00    +0.144 HD
ENDROOT
BRANCH   4  15
ATOM     14 CL   UNL     1      34.149 -19.955 -24.063  0.00  0.00    -0.083 Cl
ATOM     15  C   UNL     1      34.458 -17.807 -22.394  0.00  0.00    +0.003 C 
ATOM     16  C   UNL     1      34.497 -16.437 -22.137  0.00  0.00    +0.034 C 
ATOM     17  C   UNL     1      34.207 -18.268 -23.687  0.00  0.00    +0.055 C 
ATOM     18  C   UNL     1      34.287 -15.528 -23.173  0.00  0.00    +0.138 C 
ATOM     19  C   UNL     1      33.996 -17.358 -24.722  0.00  0.00    +0.014 C 
ATOM     20  C   UNL     1      34.036 -15.988 -24.465  0.00  0.00    +0.038 C 
BRANCH  18  21
ATOM     21  O   UNL     1      34.323 -14.190 -22.923  0.00  0.00    -0.471 OA
ATOM     22  C   UNL     1      33.813 -13.750 -21.665  0.00  0.00    +0.252 C 
ENDBRANCH  18  21
ENDBRANCH   4  15
BRANCH   9  25
ATOM     23  N   UNL     1      36.104 -22.819 -15.789  0.00  0.00    -0.205 N 
ATOM     24  N   UNL     1      36.343 -23.738 -14.837  0.00  0.00    -0.176 NA
ATOM     25  C   UNL     1      34.881 -22.943 -16.378  0.00  0.00    +0.124 C 
ATOM     26  C   UNL     1      34.278 -24.017 -15.770  0.00  0.00    +0.043 C 
ATOM     27  C   UNL     1      37.115 -21.832 -16.087  0.00  0.00    +0.140 C 
ATOM     28  C   UNL     1      35.224 -24.467 -14.830  0.00  0.00    +0.119 C 
ENDBRANCH   9  25
TORSDOF 3
ENDMDL
MODEL 3
REMARK VINA RESULT:     -11.0      3.036      9.184
REMARK  Name = 57582353
REMARK  3 active torsions:
REMARK  status: ('A' for Active; 'I' for Inactive)
REMARK    1  A    between atoms: C_4  and  C_12
REMARK    2  A    between atoms: C_9  and  C_22
REMARK    3  A    between atoms: C_15  and  O_18
REMARK                            x       y       z     vdW  Elec       q    Type
REMARK                         _______ _______ _______ _____ _____    ______ ____
ROOT
ATOM      1  O   UNL     1      31.486 -12.940 -22.474  0.00  0.00    -0.268 OA
ATOM      2  N   UNL     1      33.289 -11.687 -23.313  0.00  0.00    -0.255 N 
ATOM      3  N   UNL     1      33.720  -9.367 -23.472  0.00  0.00    -0.376 NA
ATOM      4  C   UNL     1      32.075  -7.797 -22.651  0.00  0.00    +0.112 C 
ATOM      5  C   UNL     1      33.291  -8.106 -23.239  0.00  0.00    +0.163 C 
ATOM      6  C   UNL     1      31.247  -8.849 -22.274  0.00  0.00    -0.010 C 
ATOM      7  C   UNL     1      32.888 -10.364 -23.094  0.00  0.00    +0.187 C 
ATOM      8  C   UNL     1      31.654 -10.160 -22.497  0.00  0.00    +0.044 C 
ATOM      9  C   UNL     1      32.589 -12.857 -23.002  0.00  0.00    +0.266 C 
ATOM     10  H   UNL     1      34.168 -11.808 -23.738  0.00  0.00    +0.158 HD
ATOM     11  N   UNL     1      34.147  -7.045 -23.629  0.00  0.00    -0.336 N 
ATOM     12  H   UNL     1      35.015  -7.241 -24.049  0.00  0.00    +0.144 HD
ATOM     13  H   UNL     1      33.873  -6.111 -23.478  0.00  0.00    +0.144 HD
ENDROOT
BRANCH   4  15
ATOM     14 CL   UNL     1      32.556  -6.617 -19.841  0.00  0.00    -0.083 Cl
ATOM     15  C   UNL     1      31.644  -6.431 -22.415  0.00  0.00    +0.003 C 
ATOM     16  C   UNL     1      31.041  -5.740 -23.466  0.00  0.00    +0.034 C 
ATOM     17  C   UNL     1      31.817  -5.809 -21.178  0.00  0.00    +0.055 C 
ATOM     18  C   UNL     1      30.610  -4.427 -23.280  0.00  0.00    +0.138 C 
ATOM     19  C   UNL     1      31.386  -4.495 -20.994  0.00  0.00    +0.014 C 
ATOM     20  C   UNL     1      30.783  -3.804 -22.044  0.00  0.00    +0.038 C 
BRANCH  18  21
ATOM     21  O   UNL     1      30.023  -3.751 -24.306  0.00  0.00    -0.471 OA
ATOM     22  C   UNL     1      30.477  -2.421 -24.552  0.00  0.00    +0.252 C 
ENDBRANCH  18  21
ENDBRANCH   4  15
BRANCH   9  25
ATOM     23  N   UNL     1      33.911 -14.969 -22.531  0.00  0.00    -0.205 N 
ATOM     24  N   UNL     1      34.445 -16.046 -23.131  0.00  0.00    -0.176 NA
ATOM     25  C   UNL     1      33.270 -14.122 -23.387  0.00  0.00    +0.124 C 
ATOM     26  C   UNL     1      33.395 -14.685 -24.634  0.00  0.00    +0.043 C 
ATOM     27  C   UNL     1      34.056 -14.812 -21.103  0.00  0.00    +0.140 C 
ATOM     28  C   UNL     1      34.127 -15.867 -24.416  0.00  0.00    +0.119 C 
ENDBRANCH   9  25
TORSDOF 3
ENDMDL
MODEL 4
REMARK VINA RESULT:     -10.9      9.611     13.431
REMARK  Name = 57582353
REMARK  3 active torsions:
REMARK  status: ('A' for Active; 'I' for Inactive)
REMARK    1  A    between atoms: C_4  and  C_12
REMARK    2  A    between atoms: C_9  and  C_22
REMARK    3  A    between atoms: C_15  and  O_18
REMARK                            x       y       z     vdW  Elec       q    Type
REMARK                         _______ _______ _______ _____ _____    ______ ____
ROOT
ATOM      1  O   UNL     1      36.781 -19.184 -19.336  0.00  0.00    -0.268 OA
ATOM      2  N   UNL     1      35.133 -20.800 -18.896  0.00  0.00    -0.255 N 
ATOM      3  N   UNL     1      34.816 -22.363 -17.150  0.00  0.00    -0.376 NA
ATOM      4  C   UNL     1      36.424 -22.469 -15.347  0.00  0.00    +0.112 C 
ATOM      5  C   UNL     1      35.268 -22.886 -15.988  0.00  0.00    +0.163 C 
ATOM      6  C   UNL     1      37.163 -21.448 -15.936  0.00  0.00    -0.010 C 
ATOM      7  C   UNL     1      35.561 -21.373 -17.693  0.00  0.00    +0.187 C 
ATOM      8  C   UNL     1      36.729 -20.885 -17.132  0.00  0.00    +0.044 C 
ATOM      9  C   UNL     1      35.746 -19.774 -19.622  0.00  0.00    +0.266 C 
ATOM     10  H   UNL     1      34.301 -21.162 -19.276  0.00  0.00    +0.158 HD
ATOM     11  N   UNL     1      34.504 -23.926 -15.400  0.00  0.00    -0.336 N 
ATOM     12  H   UNL     1      33.679 -24.238 -15.838  0.00  0.00    +0.144 HD
ATOM     13  H   UNL     1      34.797 -24.335 -14.554  0.00  0.00    +0.144 HD
ENDROOT
BRANCH   4  15
ATOM     14 CL   UNL     1      38.845 -24.377 -15.473  0.00  0.00    -0.083 Cl
ATOM     15  C   UNL     1      36.882 -23.052 -14.100  0.00  0.00    +0.003 C 
ATOM     16  C   UNL     1      36.204 -22.718 -12.928  0.00  0.00    +0.034 C 
ATOM     17  C   UNL     1      37.969 -23.926 -14.052  0.00  0.00    +0.055 C 
ATOM     18  C   UNL     1      36.612 -23.257 -11.709  0.00  0.00    +0.138 C 
ATOM     19  C   UNL     1      38.376 -24.465 -12.832  0.00  0.00    +0.014 C 
ATOM     20  C   UNL     1      37.698 -24.131 -11.661  0.00  0.00    +0.038 C 
BRANCH  18  21
ATOM     21  O   UNL     1      35.951 -22.930 -10.564  0.00  0.00    -0.471 OA
ATOM     22  C   UNL     1      35.275 -23.984  -9.880  0.00  0.00    +0.252 C 
ENDBRANCH  18  21
ENDBRANCH   4  15
BRANCH   9  25
ATOM     23  N   UNL     1      33.734 -19.572 -21.151  0.00  0.00    -0.205 N 
ATOM     24  N   UNL     1      33.363 -19.148 -22.371  0.00  0.00    -0.176 NA
ATOM     25  C   UNL     1      35.061 -19.398 -20.888  0.00  0.00    +0.124 C 
ATOM     26  C   UNL     1      35.594 -18.821 -22.014  0.00  0.00    +0.043 C 
ATOM     27  C   UNL     1      32.743 -20.146 -20.271  0.00  0.00    +0.140 C 
ATOM     28  C   UNL     1      34.503 -18.690 -22.894  0.00  0.00    +0.119 C 
ENDBRANCH   9  25
TORSDOF 3
ENDMDL
MODEL 5
REMARK VINA RESULT:     -10.4      2.725      8.889
REMARK  Name = 57582353
REMARK  3 active torsions:
REMARK  status: ('A' for Active; 'I' for Inactive)
REMARK    1  A    between atoms: C_4  and  C_12
REMARK    2  A    between atoms: C_9  and  C_22
REMARK    3  A    between atoms: C_15  and  O_18
REMARK                            x       y       z     vdW  Elec       q    Type
REMARK                         _______ _______ _______ _____ _____    ______ ____
ROOT
ATOM      1  O   UNL     1      34.980 -14.427 -23.602  0.00  0.00    -0.268 OA
ATOM      2  N   UNL     1      33.083 -14.320 -22.219  0.00  0.00    -0.255 N 
ATOM      3  N   UNL     1      31.618 -12.568 -21.604  0.00  0.00    -0.376 NA
ATOM      4  C   UNL     1      31.990 -10.347 -22.486  0.00  0.00    +0.112 C 
ATOM      5  C   UNL     1      31.289 -11.261 -21.716  0.00  0.00    +0.163 C 
ATOM      6  C   UNL     1      33.099 -10.804 -23.189  0.00  0.00    -0.010 C 
ATOM      7  C   UNL     1      32.703 -12.975 -22.302  0.00  0.00    +0.187 C 
ATOM      8  C   UNL     1      33.469 -12.142 -23.100  0.00  0.00    +0.044 C 
ATOM      9  C   UNL     1      34.161 -14.946 -22.852  0.00  0.00    +0.266 C 
ATOM     10  H   UNL     1      32.524 -14.893 -21.646  0.00  0.00    +0.158 HD
ATOM     11  N   UNL     1      30.155 -10.812 -20.993  0.00  0.00    -0.336 N 
ATOM     12  H   UNL     1      29.642 -11.443 -20.439  0.00  0.00    +0.144 HD
ATOM     13  H   UNL     1      29.880  -9.867 -21.045  0.00  0.00    +0.144 HD
ENDROOT
BRANCH   4  15
ATOM     14 CL   UNL     1      31.890  -8.714 -19.871  0.00  0.00    -0.083 Cl
ATOM     15  C   UNL     1      31.610  -8.950 -22.584  0.00  0.00    +0.003 C 
ATOM     16  C   UNL     1      31.314  -8.435 -23.845  0.00  0.00    +0.034 C 
ATOM     17  C   UNL     1      31.536  -8.128 -21.459  0.00  0.00    +0.055 C 
ATOM     18  C   UNL     1      30.943  -7.097 -23.982  0.00  0.00    +0.138 C 
ATOM     19  C   UNL     1      31.165  -6.791 -21.597  0.00  0.00    +0.014 C 
ATOM     20  C   UNL     1      30.869  -6.275 -22.858  0.00  0.00    +0.038 C 
BRANCH  18  21
ATOM     21  O   UNL     1      30.655  -6.593 -25.214  0.00  0.00    -0.471 OA
ATOM     22  C   UNL     1      31.707  -5.914 -25.900  0.00  0.00    +0.252 C 
ENDBRANCH  18  21
ENDBRANCH   4  15
BRANCH   9  25
ATOM     23  N   UNL     1      33.965 -17.422 -23.360  0.00  0.00    -0.205 N 
ATOM     24  N   UNL     1      34.218 -18.637 -22.845  0.00  0.00    -0.176 NA
ATOM     25  C   UNL     1      34.324 -16.392 -22.542  0.00  0.00    +0.124 C 
ATOM     26  C   UNL     1      34.847 -16.974 -21.413  0.00  0.00    +0.043 C 
ATOM     27  C   UNL     1      33.365 -17.320 -24.670  0.00  0.00    +0.140 C 
ATOM     28  C   UNL     1      34.756 -18.357 -21.656  0.00  0.00    +0.119 C 
ENDBRANCH   9  25
TORSDOF 3
ENDMDL
MODEL 6
REMARK VINA RESULT:     -10.3      9.207     12.879
REMARK  Name = 57582353
REMARK  3 active torsions:
REMARK  status: ('A' for Active; 'I' for Inactive)
REMARK    1  A    between atoms: C_4  and  C_12
REMARK    2  A    between atoms: C_9  and  C_22
REMARK    3  A    between atoms: C_15  and  O_18
REMARK                            x       y       z     vdW  Elec       q    Type
REMARK                         _______ _______ _______ _____ _____    ______ ____
ROOT
ATOM      1  O   UNL     1      29.879 -21.946 -16.863  0.00  0.00    -0.268 OA
ATOM      2  N   UNL     1      32.070 -22.783 -17.016  0.00  0.00    -0.255 N 
ATOM      3  N   UNL     1      33.941 -22.204 -18.340  0.00  0.00    -0.376 NA
ATOM      4  C   UNL     1      33.754 -20.391 -19.929  0.00  0.00    +0.112 C 
ATOM      5  C   UNL     1      34.461 -21.401 -19.297  0.00  0.00    +0.163 C 
ATOM      6  C   UNL     1      32.430 -20.189 -19.555  0.00  0.00    -0.010 C 
ATOM      7  C   UNL     1      32.651 -21.979 -18.003  0.00  0.00    +0.187 C 
ATOM      8  C   UNL     1      31.861 -20.995 -18.574  0.00  0.00    +0.044 C 
ATOM      9  C   UNL     1      30.763 -22.723 -16.521  0.00  0.00    +0.266 C 
ATOM     10  H   UNL     1      32.650 -23.475 -16.625  0.00  0.00    +0.158 HD
ATOM     11  N   UNL     1      35.812 -21.619 -19.667  0.00  0.00    -0.336 N 
ATOM     12  H   UNL     1      36.333 -22.331 -19.231  0.00  0.00    +0.144 HD
ATOM     13  H   UNL     1      36.229 -21.058 -20.360  0.00  0.00    +0.144 HD
ENDROOT
BRANCH   4  15
ATOM     14 CL   UNL     1      36.527 -19.169 -19.350  0.00  0.00    -0.083 Cl
ATOM     15  C   UNL     1      34.341 -19.547 -20.953  0.00  0.00    +0.003 C 
ATOM     16  C   UNL     1      33.620 -19.339 -22.129  0.00  0.00    +0.034 C 
ATOM     17  C   UNL     1      35.590 -18.949 -20.786  0.00  0.00    +0.055 C 
ATOM     18  C   UNL     1      34.147 -18.533 -23.137  0.00  0.00    +0.138 C 
ATOM     19  C   UNL     1      36.117 -18.143 -21.795  0.00  0.00    +0.014 C 
ATOM     20  C   UNL     1      35.396 -17.936 -22.971  0.00  0.00    +0.038 C 
BRANCH  18  21
ATOM     21  O   UNL     1      33.445 -18.331 -24.286  0.00  0.00    -0.471 OA
ATOM     22  C   UNL     1      33.331 -16.987 -24.751  0.00  0.00    +0.252 C 
ENDBRANCH  18  21
ENDBRANCH   4  15
BRANCH   9  25
ATOM     23  N   UNL     1      31.156 -23.986 -14.358  0.00  0.00    -0.205 N 
ATOM     24  N   UNL     1      30.641 -24.958 -13.585  0.00  0.00    -0.176 NA
ATOM     25  C   UNL     1      30.431 -23.739 -15.487  0.00  0.00    +0.124 C 
ATOM     26  C   UNL     1      29.370 -24.609 -15.449  0.00  0.00    +0.043 C 
ATOM     27  C   UNL     1      32.371 -23.324 -13.945  0.00  0.00    +0.140 C 
ATOM     28  C   UNL     1      29.550 -25.335 -14.257  0.00  0.00    +0.119 C 
ENDBRANCH   9  25
TORSDOF 3
ENDMDL
MODEL 7
REMARK VINA RESULT:     -10.2      1.980      2.338
REMARK  Name = 57582353
REMARK  3 active torsions:
REMARK  status: ('A' for Active; 'I' for Inactive)
REMARK    1  A    between atoms: C_4  and  C_12
REMARK    2  A    between atoms: C_9  and  C_22
REMARK    3  A    between atoms: C_15  and  O_18
REMARK                            x       y       z     vdW  Elec       q    Type
REMARK                         _______ _______ _______ _____ _____    ______ ____
ROOT
ATOM      1  O   UNL     1      33.346  -6.846 -24.218  0.00  0.00    -0.268 OA
ATOM      2  N   UNL     1      31.689  -7.864 -22.899  0.00  0.00    -0.255 N 
ATOM      3  N   UNL     1      31.321 -10.088 -22.184  0.00  0.00    -0.376 NA
ATOM      4  C   UNL     1      32.871 -11.820 -22.850  0.00  0.00    +0.112 C 
ATOM      5  C   UNL     1      31.738 -11.374 -22.189  0.00  0.00    +0.163 C 
ATOM      6  C   UNL     1      33.626 -10.885 -23.550  0.00  0.00    -0.010 C 
ATOM      7  C   UNL     1      32.080  -9.208 -22.876  0.00  0.00    +0.187 C 
ATOM      8  C   UNL     1      33.230  -9.552 -23.567  0.00  0.00    +0.044 C 
ATOM      9  C   UNL     1      32.322  -6.798 -23.546  0.00  0.00    +0.266 C 
ATOM     10  H   UNL     1      30.870  -7.643 -22.400  0.00  0.00    +0.158 HD
ATOM     11  N   UNL     1      30.957 -12.315 -21.470  0.00  0.00    -0.336 N 
ATOM     12  H   UNL     1      30.148 -12.021 -20.994  0.00  0.00    +0.144 HD
ATOM     13  H   UNL     1      31.224 -13.262 -21.449  0.00  0.00    +0.144 HD
ENDROOT
BRANCH   4  15
ATOM     14 CL   UNL     1      34.097 -12.909 -20.237  0.00  0.00    -0.083 Cl
ATOM     15  C   UNL     1      33.291 -13.209 -22.836  0.00  0.00    +0.003 C 
ATOM     16  C   UNL     1      33.118 -13.961 -23.997  0.00  0.00    +0.034 C 
ATOM     17  C   UNL     1      33.857 -13.794 -21.703  0.00  0.00    +0.055 C 
ATOM     18  C   UNL     1      33.511 -15.299 -24.026  0.00  0.00    +0.138 C 
ATOM     19  C   UNL     1      34.249 -15.132 -21.733  0.00  0.00    +0.014 C 
ATOM     20  C   UNL     1      34.075 -15.885 -22.894  0.00  0.00    +0.038 C 
BRANCH  18  21
ATOM     21  O   UNL     1      33.340 -16.034 -25.160  0.00  0.00    -0.471 OA
ATOM     22  C   UNL     1      33.145 -17.439 -24.999  0.00  0.00    +0.252 C 
ENDBRANCH  18  21
ENDBRANCH   4  15
BRANCH   9  25
ATOM     23  N   UNL     1      31.476  -4.796 -22.242  0.00  0.00    -0.205 N 
ATOM     24  N   UNL     1      30.829  -3.628 -22.387  0.00  0.00    -0.176 NA
ATOM     25  C   UNL     1      31.644  -5.482 -23.408  0.00  0.00    +0.124 C 
ATOM     26  C   UNL     1      31.066  -4.708 -24.385  0.00  0.00    +0.043 C 
ATOM     27  C   UNL     1      31.914  -5.201 -20.926  0.00  0.00    +0.140 C 
ATOM     28  C   UNL     1      30.581  -3.579 -23.699  0.00  0.00    +0.119 C 
ENDBRANCH   9  25
TORSDOF 3
ENDMDL
MODEL 8
REMARK VINA RESULT:     -10.2      2.187      3.220
REMARK  Name = 57582353
REMARK  3 active torsions:
REMARK  status: ('A' for Active; 'I' for Inactive)
REMARK    1  A    between atoms: C_4  and  C_12
REMARK    2  A    between atoms: C_9  and  C_22
REMARK    3  A    between atoms: C_15  and  O_18
REMARK                            x       y       z     vdW  Elec       q    Type
REMARK                         _______ _______ _______ _____ _____    ______ ____
ROOT
ATOM      1  O   UNL     1      31.407 -11.075 -20.501  0.00  0.00    -0.268 OA
ATOM      2  N   UNL     1      32.532 -11.314 -22.550  0.00  0.00    -0.255 N 
ATOM      3  N   UNL     1      33.696 -13.104 -23.565  0.00  0.00    -0.376 NA
ATOM      4  C   UNL     1      33.873 -15.216 -22.400  0.00  0.00    +0.112 C 
ATOM      5  C   UNL     1      34.119 -14.386 -23.482  0.00  0.00    +0.163 C 
ATOM      6  C   UNL     1      33.144 -14.697 -21.335  0.00  0.00    -0.010 C 
ATOM      7  C   UNL     1      32.992 -12.635 -22.510  0.00  0.00    +0.187 C 
ATOM      8  C   UNL     1      32.691 -13.383 -21.384  0.00  0.00    +0.044 C 
ATOM      9  C   UNL     1      31.792 -10.634 -21.578  0.00  0.00    +0.266 C 
ATOM     10  H   UNL     1      32.756 -10.802 -23.360  0.00  0.00    +0.158 HD
ATOM     11  N   UNL     1      34.861 -14.899 -24.577  0.00  0.00    -0.336 N 
ATOM     12  H   UNL     1      35.048 -14.328 -25.356  0.00  0.00    +0.144 HD
ATOM     13  H   UNL     1      35.188 -15.828 -24.557  0.00  0.00    +0.144 HD
ENDROOT
BRANCH   4  15
ATOM     14 CL   UNL     1      32.979 -17.121 -24.655  0.00  0.00    -0.083 Cl
ATOM     15  C   UNL     1      34.341 -16.588 -22.342  0.00  0.00    +0.003 C 
ATOM     16  C   UNL     1      35.161 -16.959 -21.277  0.00  0.00    +0.034 C 
ATOM     17  C   UNL     1      33.992 -17.526 -23.314  0.00  0.00    +0.055 C 
ATOM     18  C   UNL     1      35.631 -18.269 -21.182  0.00  0.00    +0.138 C 
ATOM     19  C   UNL     1      34.463 -18.835 -23.220  0.00  0.00    +0.014 C 
ATOM     20  C   UNL     1      35.283 -19.207 -22.154  0.00  0.00    +0.038 C 
BRANCH  18  21
ATOM     21  O   UNL     1      36.432 -18.632 -20.143  0.00  0.00    -0.471 OA
ATOM     22  C   UNL     1      36.179 -19.901 -19.540  0.00  0.00    +0.252 C 
ENDBRANCH  18  21
ENDBRANCH   4  15
BRANCH   9  25
ATOM     23  N   UNL     1      31.368  -8.204 -20.993  0.00  0.00    -0.205 N 
ATOM     24  N   UNL     1      31.072  -7.014 -21.541  0.00  0.00    -0.176 NA
ATOM     25  C   UNL     1      31.475  -9.217 -21.900  0.00  0.00    +0.124 C 
ATOM     26  C   UNL     1      31.231  -8.649 -23.126  0.00  0.00    +0.043 C 
ATOM     27  C   UNL     1      31.538  -8.300 -19.562  0.00  0.00    +0.140 C 
ATOM     28  C   UNL     1      30.989  -7.291 -22.845  0.00  0.00    +0.119 C 
ENDBRANCH   9  25
TORSDOF 3
ENDMDL
MODEL 9
REMARK VINA RESULT:     -10.1      7.863     11.845
REMARK  Name = 57582353
REMARK  3 active torsions:
REMARK  status: ('A' for Active; 'I' for Inactive)
REMARK    1  A    between atoms: C_4  and  C_12
REMARK    2  A    between atoms: C_9  and  C_22
REMARK    3  A    between atoms: C_15  and  O_18
REMARK                            x       y       z     vdW  Elec       q    Type
REMARK                         _______ _______ _______ _____ _____    ______ ____
ROOT
ATOM      1  O   UNL     1      36.162 -18.844 -20.949  0.00  0.00    -0.268 OA
ATOM      2  N   UNL     1      34.113 -19.954 -20.643  0.00  0.00    -0.255 N 
ATOM      3  N   UNL     1      33.303 -21.444 -18.995  0.00  0.00    -0.376 NA
ATOM      4  C   UNL     1      34.742 -22.075 -17.158  0.00  0.00    +0.112 C 
ATOM      5  C   UNL     1      33.544 -22.124 -17.851  0.00  0.00    +0.163 C 
ATOM      6  C   UNL     1      35.759 -21.276 -17.669  0.00  0.00    -0.010 C 
ATOM      7  C   UNL     1      34.315 -20.678 -19.462  0.00  0.00    +0.187 C 
ATOM      8  C   UNL     1      35.549 -20.561 -18.843  0.00  0.00    +0.044 C 
ATOM      9  C   UNL     1      35.017 -19.108 -21.295  0.00  0.00    +0.266 C 
ATOM     10  H   UNL     1      33.230 -20.052 -21.065  0.00  0.00    +0.158 HD
ATOM     11  N   UNL     1      32.497 -22.934 -17.343  0.00  0.00    -0.336 N 
ATOM     12  H   UNL     1      31.637 -22.983 -17.819  0.00  0.00    +0.144 HD
ATOM     13  H   UNL     1      32.631 -23.446 -16.513  0.00  0.00    +0.144 HD
ENDROOT
BRANCH   4  15
ATOM     14 CL   UNL     1      37.647 -22.291 -16.141  0.00  0.00    -0.083 Cl
ATOM     15  C   UNL     1      34.969 -22.818 -15.932  0.00  0.00    +0.003 C 
ATOM     16  C   UNL     1      33.868 -23.387 -15.293  0.00  0.00    +0.034 C 
ATOM     17  C   UNL     1      36.246 -22.973 -15.391  0.00  0.00    +0.055 C 
ATOM     18  C   UNL     1      34.043 -24.111 -14.114  0.00  0.00    +0.138 C 
ATOM     19  C   UNL     1      36.420 -23.696 -14.212  0.00  0.00    +0.014 C 
ATOM     20  C   UNL     1      35.319 -24.265 -13.573  0.00  0.00    +0.038 C 
BRANCH  18  21
ATOM     21  O   UNL     1      32.968 -24.665 -13.489  0.00  0.00    -0.471 OA
ATOM     22  C   UNL     1      31.698 -24.054 -13.715  0.00  0.00    +0.252 C 
ENDBRANCH  18  21
ENDBRANCH   4  15
BRANCH   9  25
ATOM     23  N   UNL     1      34.378 -17.162 -22.789  0.00  0.00    -0.205 N 
ATOM     24  N   UNL     1      33.902 -16.871 -24.012  0.00  0.00    -0.176 NA
ATOM     25  C   UNL     1      34.515 -18.499 -22.556  0.00  0.00    +0.124 C 
ATOM     26  C   UNL     1      34.101 -19.125 -23.706  0.00  0.00    +0.043 C 
ATOM     27  C   UNL     1      34.685 -16.087 -21.876  0.00  0.00    +0.140 C 
ATOM     28  C   UNL     1      33.735 -18.074 -24.568  0.00  0.00    +0.119 C 
ENDBRANCH   9  25
TORSDOF 3
ENDMDL
