MODEL 1
REMARK VINA RESULT:     -11.9      0.000      0.000
REMARK  Name = 71451950
REMARK  5 active torsions:
REMARK  status: ('A' for Active; 'I' for Inactive)
REMARK    1  A    between atoms: N_4  and  C_18
REMARK    2  A    between atoms: C_18  and  C_20
REMARK    3  A    between atoms: N_19  and  C_26
REMARK    4  A    between atoms: C_26  and  C_28
REMARK    5  A    between atoms: C_28  and  O_33
REMARK                            x       y       z     vdW  Elec       q    Type
REMARK                         _______ _______ _______ _____ _____    ______ ____
ROOT
ATOM      1  F   UNL     1      32.957 -13.467 -26.570  0.00  0.00    -0.204 F 
ATOM      2  O   UNL     1      34.666 -17.121 -23.782  0.00  0.00    -0.252 OA
ATOM      3  O   UNL     1      34.168 -15.509 -19.838  0.00  0.00    -0.274 OA
ATOM      4  N   UNL     1      34.939 -17.536 -21.543  0.00  0.00    -0.288 N 
ATOM      5  N   UNL     1      34.035 -15.470 -22.224  0.00  0.00    -0.192 N 
ATOM      6  C   UNL     1      33.266 -13.551 -20.988  0.00  0.00    +0.090 C 
ATOM      7  C   UNL     1      33.111 -13.367 -22.471  0.00  0.00    -0.000 C 
ATOM      8  C   UNL     1      34.555 -16.733 -22.618  0.00  0.00    +0.314 C 
ATOM      9  C   UNL     1      33.880 -14.960 -20.895  0.00  0.00    +0.239 C 
ATOM     10  C   UNL     1      33.568 -14.498 -23.152  0.00  0.00    +0.061 C 
ATOM     11  C   UNL     1      34.233 -12.531 -20.385  0.00  0.00    +0.014 C 
ATOM     12  C   UNL     1      31.917 -13.533 -20.269  0.00  0.00    +0.014 C 
ATOM     13  C   UNL     1      32.602 -12.268 -23.151  0.00  0.00    -0.000 C 
ATOM     14  C   UNL     1      33.522 -14.543 -24.538  0.00  0.00    +0.045 C 
ATOM     15  C   UNL     1      32.553 -12.310 -24.544  0.00  0.00    +0.029 C 
ATOM     16  C   UNL     1      33.010 -13.441 -25.232  0.00  0.00    +0.141 C 
ATOM     17  H   UNL     1      34.833 -17.187 -20.629  0.00  0.00    +0.151 HD
ENDROOT
BRANCH   4  18
ATOM     18  C   UNL     1      35.486 -18.859 -21.726  0.00  0.00    +0.091 C 
BRANCH  18  20
ATOM     19  N   UNL     1      33.221 -21.050 -18.773  0.00  0.00    +0.388 N 
ATOM     20  C   UNL     1      34.586 -19.927 -21.111  0.00  0.00    +0.015 C 
ATOM     21  C   UNL     1      33.317 -19.303 -20.522  0.00  0.00    -0.021 C 
ATOM     22  C   UNL     1      35.327 -20.716 -20.026  0.00  0.00    -0.021 C 
ATOM     23  C   UNL     1      32.457 -20.353 -19.815  0.00  0.00    -0.077 C 
ATOM     24  C   UNL     1      34.400 -21.719 -19.337  0.00  0.00    -0.077 C 
ATOM     25  H   UNL     1      33.546 -20.354 -18.101  0.00  0.00    -0.080 HD
BRANCH  19  26
ATOM     26  C   UNL     1      32.372 -22.013 -18.072  0.00  0.00    -0.050 C 
BRANCH  26  28
ATOM     27  O   UNL     1      34.389 -22.670 -14.370  0.00  0.00    -0.354 OA
ATOM     28  C   UNL     1      33.146 -22.754 -16.982  0.00  0.00    +0.074 C 
ATOM     29  C   UNL     1      32.342 -22.802 -15.676  0.00  0.00    +0.057 C 
ATOM     30  C   UNL     1      34.513 -22.099 -16.730  0.00  0.00    +0.057 C 
ATOM     31  C   UNL     1      33.170 -23.393 -14.538  0.00  0.00    +0.144 C 
ATOM     32  C   UNL     1      35.215 -22.733 -15.532  0.00  0.00    +0.144 C 
BRANCH  28  33
ATOM     33  O   UNL     1      33.349 -24.098 -17.424  0.00  0.00    -0.389 OA
ATOM     34  H   UNL     1      33.113 -24.713 -16.712  0.00  0.00    +0.210 HD
ENDBRANCH  28  33
ENDBRANCH  26  28
ENDBRANCH  19  26
ENDBRANCH  18  20
ENDBRANCH   4  18
TORSDOF 5
ENDMDL
MODEL 2
REMARK VINA RESULT:     -11.5      5.066      7.779
REMARK  Name = 71451950
REMARK  5 active torsions:
REMARK  status: ('A' for Active; 'I' for Inactive)
REMARK    1  A    between atoms: N_4  and  C_18
REMARK    2  A    between atoms: C_18  and  C_20
REMARK    3  A    between atoms: N_19  and  C_26
REMARK    4  A    between atoms: C_26  and  C_28
REMARK    5  A    between atoms: C_28  and  O_33
REMARK                            x       y       z     vdW  Elec       q    Type
REMARK                         _______ _______ _______ _____ _____    ______ ____
ROOT
ATOM      1  F   UNL     1      28.872  -4.856 -21.696  0.00  0.00    -0.204 F 
ATOM      2  O   UNL     1      30.511  -9.460 -22.101  0.00  0.00    -0.252 OA
ATOM      3  O   UNL     1      34.402  -8.848 -23.801  0.00  0.00    -0.274 OA
ATOM      4  N   UNL     1      32.418 -10.503 -22.832  0.00  0.00    -0.288 N 
ATOM      5  N   UNL     1      32.283  -8.154 -22.943  0.00  0.00    -0.192 N 
ATOM      6  C   UNL     1      33.832  -6.475 -23.705  0.00  0.00    +0.090 C 
ATOM      7  C   UNL     1      32.553  -5.873 -23.196  0.00  0.00    -0.000 C 
ATOM      8  C   UNL     1      31.640  -9.371 -22.587  0.00  0.00    +0.314 C 
ATOM      9  C   UNL     1      33.587  -7.982 -23.508  0.00  0.00    +0.239 C 
ATOM     10  C   UNL     1      31.682  -6.877 -22.764  0.00  0.00    +0.061 C 
ATOM     11  C   UNL     1      34.047  -6.182 -25.191  0.00  0.00    +0.014 C 
ATOM     12  C   UNL     1      35.038  -6.040 -22.871  0.00  0.00    +0.014 C 
ATOM     13  C   UNL     1      32.203  -4.531 -23.129  0.00  0.00    -0.000 C 
ATOM     14  C   UNL     1      30.434  -6.546 -22.256  0.00  0.00    +0.045 C 
ATOM     15  C   UNL     1      30.951  -4.194 -22.617  0.00  0.00    +0.029 C 
ATOM     16  C   UNL     1      30.073  -5.196 -22.184  0.00  0.00    +0.141 C 
ATOM     17  H   UNL     1      33.315 -10.387 -23.221  0.00  0.00    +0.151 HD
ENDROOT
BRANCH   4  18
ATOM     18  C   UNL     1      31.953 -11.837 -22.536  0.00  0.00    +0.091 C 
BRANCH  18  20
ATOM     19  N   UNL     1      33.960 -15.657 -22.737  0.00  0.00    +0.388 N 
ATOM     20  C   UNL     1      33.077 -12.863 -22.663  0.00  0.00    +0.015 C 
ATOM     21  C   UNL     1      32.865 -13.760 -23.888  0.00  0.00    -0.021 C 
ATOM     22  C   UNL     1      33.182 -13.725 -21.401  0.00  0.00    -0.021 C 
ATOM     23  C   UNL     1      33.933 -14.854 -23.966  0.00  0.00    -0.077 C 
ATOM     24  C   UNL     1      34.238 -14.820 -21.563  0.00  0.00    -0.077 C 
ATOM     25  H   UNL     1      33.037 -16.075 -22.613  0.00  0.00    -0.080 HD
BRANCH  19  26
ATOM     26  C   UNL     1      34.947 -16.730 -22.847  0.00  0.00    -0.050 C 
BRANCH  26  28
ATOM     27  O   UNL     1      35.272 -20.272 -20.492  0.00  0.00    -0.354 OA
ATOM     28  C   UNL     1      34.947 -17.622 -21.606  0.00  0.00    +0.074 C 
ATOM     29  C   UNL     1      36.320 -18.275 -21.402  0.00  0.00    +0.057 C 
ATOM     30  C   UNL     1      33.862 -18.704 -21.701  0.00  0.00    +0.057 C 
ATOM     31  C   UNL     1      36.285 -19.292 -20.264  0.00  0.00    +0.144 C 
ATOM     32  C   UNL     1      33.968 -19.694 -20.544  0.00  0.00    +0.144 C 
BRANCH  28  33
ATOM     33  O   UNL     1      34.681 -16.793 -20.471  0.00  0.00    -0.389 OA
ATOM     34  H   UNL     1      33.794 -16.986 -20.130  0.00  0.00    +0.210 HD
ENDBRANCH  28  33
ENDBRANCH  26  28
ENDBRANCH  19  26
ENDBRANCH  18  20
ENDBRANCH   4  18
TORSDOF 5
ENDMDL
MODEL 3
REMARK VINA RESULT:     -11.5      4.762      7.505
REMARK  Name = 71451950
REMARK  5 active torsions:
REMARK  status: ('A' for Active; 'I' for Inactive)
REMARK    1  A    between atoms: N_4  and  C_18
REMARK    2  A    between atoms: C_18  and  C_20
REMARK    3  A    between atoms: N_19  and  C_26
REMARK    4  A    between atoms: C_26  and  C_28
REMARK    5  A    between atoms: C_28  and  O_33
REMARK                            x       y       z     vdW  Elec       q    Type
REMARK                         _______ _______ _______ _____ _____    ______ ____
ROOT
ATOM      1  F   UNL     1      33.982  -6.257 -26.119  0.00  0.00    -0.204 F 
ATOM      2  O   UNL     1      32.195 -10.088 -23.634  0.00  0.00    -0.252 OA
ATOM      3  O   UNL     1      31.131  -8.276 -19.895  0.00  0.00    -0.274 OA
ATOM      4  N   UNL     1      31.292 -10.469 -21.561  0.00  0.00    -0.288 N 
ATOM      5  N   UNL     1      31.995  -8.292 -22.122  0.00  0.00    -0.192 N 
ATOM      6  C   UNL     1      31.962  -6.214 -20.906  0.00  0.00    +0.090 C 
ATOM      7  C   UNL     1      32.531  -6.051 -22.286  0.00  0.00    -0.000 C 
ATOM      8  C   UNL     1      31.861  -9.646 -22.534  0.00  0.00    +0.314 C 
ATOM      9  C   UNL     1      31.627  -7.716 -20.864  0.00  0.00    +0.239 C 
ATOM     10  C   UNL     1      32.534  -7.275 -22.958  0.00  0.00    +0.061 C 
ATOM     11  C   UNL     1      32.992  -5.889 -19.822  0.00  0.00    +0.014 C 
ATOM     12  C   UNL     1      30.681  -5.400 -20.718  0.00  0.00    +0.014 C 
ATOM     13  C   UNL     1      33.009  -4.893 -22.886  0.00  0.00    -0.000 C 
ATOM     14  C   UNL     1      33.023  -7.358 -24.254  0.00  0.00    +0.045 C 
ATOM     15  C   UNL     1      33.500  -4.972 -24.189  0.00  0.00    +0.029 C 
ATOM     16  C   UNL     1      33.506  -6.197 -24.867  0.00  0.00    +0.141 C 
ATOM     17  H   UNL     1      31.039 -10.075 -20.696  0.00  0.00    +0.151 HD
ENDROOT
BRANCH   4  18
ATOM     18  C   UNL     1      31.063 -11.877 -21.781  0.00  0.00    +0.091 C 
BRANCH  18  20
ATOM     19  N   UNL     1      33.804 -15.163 -22.368  0.00  0.00    +0.388 N 
ATOM     20  C   UNL     1      32.374 -12.636 -21.967  0.00  0.00    +0.015 C 
ATOM     21  C   UNL     1      32.404 -13.358 -23.319  0.00  0.00    -0.021 C 
ATOM     22  C   UNL     1      32.593 -13.646 -20.835  0.00  0.00    -0.021 C 
ATOM     23  C   UNL     1      33.673 -14.201 -23.470  0.00  0.00    -0.077 C 
ATOM     24  C   UNL     1      33.855 -14.478 -21.070  0.00  0.00    -0.077 C 
ATOM     25  H   UNL     1      32.980 -15.764 -22.375  0.00  0.00    -0.080 HD
BRANCH  19  26
ATOM     26  C   UNL     1      34.992 -15.996 -22.555  0.00  0.00    -0.050 C 
BRANCH  26  28
ATOM     27  O   UNL     1      35.334 -19.999 -21.121  0.00  0.00    -0.354 OA
ATOM     28  C   UNL     1      35.024 -17.157 -21.561  0.00  0.00    +0.074 C 
ATOM     29  C   UNL     1      36.389 -17.857 -21.582  0.00  0.00    +0.057 C 
ATOM     30  C   UNL     1      33.911 -18.172 -21.857  0.00  0.00    +0.057 C 
ATOM     31  C   UNL     1      36.379 -19.114 -20.716  0.00  0.00    +0.144 C 
ATOM     32  C   UNL     1      34.044 -19.409 -20.973  0.00  0.00    +0.144 C 
BRANCH  28  33
ATOM     33  O   UNL     1      34.826 -16.617 -20.251  0.00  0.00    -0.389 OA
ATOM     34  H   UNL     1      33.926 -16.264 -20.179  0.00  0.00    +0.210 HD
ENDBRANCH  28  33
ENDBRANCH  26  28
ENDBRANCH  19  26
ENDBRANCH  18  20
ENDBRANCH   4  18
TORSDOF 5
ENDMDL
MODEL 4
REMARK VINA RESULT:     -11.2      3.591     10.252
REMARK  Name = 71451950
REMARK  5 active torsions:
REMARK  status: ('A' for Active; 'I' for Inactive)
REMARK    1  A    between atoms: N_4  and  C_18
REMARK    2  A    between atoms: C_18  and  C_20
REMARK    3  A    between atoms: N_19  and  C_26
REMARK    4  A    between atoms: C_26  and  C_28
REMARK    5  A    between atoms: C_28  and  O_33
REMARK                            x       y       z     vdW  Elec       q    Type
REMARK                         _______ _______ _______ _____ _____    ______ ____
ROOT
ATOM      1  F   UNL     1      35.494 -23.747 -12.091  0.00  0.00    -0.204 F 
ATOM      2  O   UNL     1      36.228 -21.830 -16.544  0.00  0.00    -0.252 OA
ATOM      3  O   UNL     1      32.292 -22.039 -18.237  0.00  0.00    -0.274 OA
ATOM      4  N   UNL     1      34.962 -21.365 -18.400  0.00  0.00    -0.288 N 
ATOM      5  N   UNL     1      33.930 -22.351 -16.526  0.00  0.00    -0.192 N 
ATOM      6  C   UNL     1      31.657 -23.021 -16.092  0.00  0.00    +0.090 C 
ATOM      7  C   UNL     1      32.556 -23.281 -14.918  0.00  0.00    -0.000 C 
ATOM      8  C   UNL     1      35.130 -21.853 -17.103  0.00  0.00    +0.314 C 
ATOM      9  C   UNL     1      32.627 -22.405 -17.118  0.00  0.00    +0.239 C 
ATOM     10  C   UNL     1      33.862 -22.881 -15.207  0.00  0.00    +0.061 C 
ATOM     11  C   UNL     1      31.069 -24.314 -16.658  0.00  0.00    +0.014 C 
ATOM     12  C   UNL     1      30.560 -22.010 -15.757  0.00  0.00    +0.014 C 
ATOM     13  C   UNL     1      32.224 -23.836 -13.689  0.00  0.00    -0.000 C 
ATOM     14  C   UNL     1      34.865 -23.034 -14.260  0.00  0.00    +0.045 C 
ATOM     15  C   UNL     1      33.227 -23.990 -12.734  0.00  0.00    +0.029 C 
ATOM     16  C   UNL     1      34.539 -23.592 -13.019  0.00  0.00    +0.141 C 
ATOM     17  H   UNL     1      34.068 -21.401 -18.808  0.00  0.00    +0.151 HD
ENDROOT
BRANCH   4  18
ATOM     18  C   UNL     1      36.055 -20.809 -19.161  0.00  0.00    +0.091 C 
BRANCH  18  20
ATOM     19  N   UNL     1      34.487 -17.923 -21.966  0.00  0.00    +0.388 N 
ATOM     20  C   UNL     1      35.570 -20.203 -20.476  0.00  0.00    +0.015 C 
ATOM     21  C   UNL     1      36.430 -18.998 -20.875  0.00  0.00    -0.021 C 
ATOM     22  C   UNL     1      34.100 -19.780 -20.379  0.00  0.00    -0.021 C 
ATOM     23  C   UNL     1      35.889 -18.324 -22.138  0.00  0.00    -0.077 C 
ATOM     24  C   UNL     1      33.638 -19.081 -21.658  0.00  0.00    -0.077 C 
ATOM     25  H   UNL     1      34.439 -17.278 -21.176  0.00  0.00    -0.080 HD
BRANCH  19  26
ATOM     26  C   UNL     1      34.001 -17.234 -23.160  0.00  0.00    -0.050 C 
BRANCH  26  28
ATOM     27  O   UNL     1      32.825 -13.235 -22.248  0.00  0.00    -0.354 OA
ATOM     28  C   UNL     1      34.103 -15.716 -23.013  0.00  0.00    +0.074 C 
ATOM     29  C   UNL     1      33.916 -15.294 -21.551  0.00  0.00    +0.057 C 
ATOM     30  C   UNL     1      33.071 -15.002 -23.899  0.00  0.00    +0.057 C 
ATOM     31  C   UNL     1      33.853 -13.774 -21.416  0.00  0.00    +0.144 C 
ATOM     32  C   UNL     1      33.060 -13.500 -23.631  0.00  0.00    +0.144 C 
BRANCH  28  33
ATOM     33  O   UNL     1      35.417 -15.324 -23.420  0.00  0.00    -0.389 OA
ATOM     34  H   UNL     1      35.419 -15.138 -24.372  0.00  0.00    +0.210 HD
ENDBRANCH  28  33
ENDBRANCH  26  28
ENDBRANCH  19  26
ENDBRANCH  18  20
ENDBRANCH   4  18
TORSDOF 5
ENDMDL
MODEL 5
REMARK VINA RESULT:     -10.8      3.185      5.103
REMARK  Name = 71451950
REMARK  5 active torsions:
REMARK  status: ('A' for Active; 'I' for Inactive)
REMARK    1  A    between atoms: N_4  and  C_18
REMARK    2  A    between atoms: C_18  and  C_20
REMARK    3  A    between atoms: N_19  and  C_26
REMARK    4  A    between atoms: C_26  and  C_28
REMARK    5  A    between atoms: C_28  and  O_33
REMARK                            x       y       z     vdW  Elec       q    Type
REMARK                         _______ _______ _______ _____ _____    ______ ____
ROOT
ATOM      1  F   UNL     1      34.199  -6.831 -24.225  0.00  0.00    -0.204 F 
ATOM      2  O   UNL     1      33.782 -11.701 -24.624  0.00  0.00    -0.252 OA
ATOM      3  O   UNL     1      31.188 -12.621 -21.333  0.00  0.00    -0.274 OA
ATOM      4  N   UNL     1      32.689 -13.387 -23.517  0.00  0.00    -0.288 N 
ATOM      5  N   UNL     1      32.459 -11.173 -22.746  0.00  0.00    -0.192 N 
ATOM      6  C   UNL     1      31.224 -10.215 -20.914  0.00  0.00    +0.090 C 
ATOM      7  C   UNL     1      31.964  -9.172 -21.702  0.00  0.00    -0.000 C 
ATOM      8  C   UNL     1      33.040 -12.049 -23.703  0.00  0.00    +0.314 C 
ATOM      9  C   UNL     1      31.593 -11.512 -21.657  0.00  0.00    +0.239 C 
ATOM     10  C   UNL     1      32.667  -9.766 -22.753  0.00  0.00    +0.061 C 
ATOM     11  C   UNL     1      31.720 -10.295 -19.469  0.00  0.00    +0.014 C 
ATOM     12  C   UNL     1      29.710 -10.005 -20.973  0.00  0.00    +0.014 C 
ATOM     13  C   UNL     1      32.002  -7.800 -21.489  0.00  0.00    -0.000 C 
ATOM     14  C   UNL     1      33.427  -8.985 -23.613  0.00  0.00    +0.045 C 
ATOM     15  C   UNL     1      32.763  -7.012 -22.350  0.00  0.00    +0.029 C 
ATOM     16  C   UNL     1      33.471  -7.602 -23.405  0.00  0.00    +0.141 C 
ATOM     17  H   UNL     1      32.094 -13.621 -22.770  0.00  0.00    +0.151 HD
ENDROOT
BRANCH   4  18
ATOM     18  C   UNL     1      33.168 -14.437 -24.384  0.00  0.00    +0.091 C 
BRANCH  18  20
ATOM     19  N   UNL     1      34.594 -17.586 -21.794  0.00  0.00    +0.388 N 
ATOM     20  C   UNL     1      34.133 -15.369 -23.655  0.00  0.00    +0.015 C 
ATOM     21  C   UNL     1      33.881 -16.831 -24.040  0.00  0.00    -0.021 C 
ATOM     22  C   UNL     1      34.015 -15.205 -22.136  0.00  0.00    -0.021 C 
ATOM     23  C   UNL     1      34.777 -17.778 -23.238  0.00  0.00    -0.077 C 
ATOM     24  C   UNL     1      34.906 -16.206 -21.399  0.00  0.00    -0.077 C 
ATOM     25  H   UNL     1      33.613 -17.761 -21.575  0.00  0.00    -0.080 HD
BRANCH  19  26
ATOM     26  C   UNL     1      35.416 -18.533 -21.042  0.00  0.00    -0.050 C 
BRANCH  26  28
ATOM     27  O   UNL     1      33.189 -21.358 -18.750  0.00  0.00    -0.354 OA
ATOM     28  C   UNL     1      34.643 -19.810 -20.714  0.00  0.00    +0.074 C 
ATOM     29  C   UNL     1      33.201 -19.486 -20.301  0.00  0.00    +0.057 C 
ATOM     30  C   UNL     1      35.338 -20.608 -19.601  0.00  0.00    +0.057 C 
ATOM     31  C   UNL     1      32.471 -20.735 -19.815  0.00  0.00    +0.144 C 
ATOM     32  C   UNL     1      34.485 -21.793 -19.158  0.00  0.00    +0.144 C 
BRANCH  28  33
ATOM     33  O   UNL     1      34.593 -20.609 -21.899  0.00  0.00    -0.389 OA
ATOM     34  H   UNL     1      35.216 -21.347 -21.818  0.00  0.00    +0.210 HD
ENDBRANCH  28  33
ENDBRANCH  26  28
ENDBRANCH  19  26
ENDBRANCH  18  20
ENDBRANCH   4  18
TORSDOF 5
ENDMDL
MODEL 6
REMARK VINA RESULT:     -10.7      3.989     10.726
REMARK  Name = 71451950
REMARK  5 active torsions:
REMARK  status: ('A' for Active; 'I' for Inactive)
REMARK    1  A    between atoms: N_4  and  C_18
REMARK    2  A    between atoms: C_18  and  C_20
REMARK    3  A    between atoms: N_19  and  C_26
REMARK    4  A    between atoms: C_26  and  C_28
REMARK    5  A    between atoms: C_28  and  O_33
REMARK                            x       y       z     vdW  Elec       q    Type
REMARK                         _______ _______ _______ _____ _____    ______ ____
ROOT
ATOM      1  F   UNL     1      37.402 -23.093 -12.327  0.00  0.00    -0.204 F 
ATOM      2  O   UNL     1      35.186 -22.789 -16.691  0.00  0.00    -0.252 OA
ATOM      3  O   UNL     1      31.080 -23.426 -15.626  0.00  0.00    -0.274 OA
ATOM      4  N   UNL     1      33.044 -22.928 -17.498  0.00  0.00    -0.288 N 
ATOM      5  N   UNL     1      33.419 -23.202 -15.189  0.00  0.00    -0.192 N 
ATOM      6  C   UNL     1      31.929 -23.619 -13.343  0.00  0.00    +0.090 C 
ATOM      7  C   UNL     1      33.359 -23.502 -12.899  0.00  0.00    -0.000 C 
ATOM      8  C   UNL     1      33.987 -22.962 -16.470  0.00  0.00    +0.314 C 
ATOM      9  C   UNL     1      32.039 -23.410 -14.865  0.00  0.00    +0.239 C 
ATOM     10  C   UNL     1      34.190 -23.262 -13.995  0.00  0.00    +0.061 C 
ATOM     11  C   UNL     1      31.355 -25.009 -13.059  0.00  0.00    +0.014 C 
ATOM     12  C   UNL     1      31.053 -22.521 -12.739  0.00  0.00    +0.014 C 
ATOM     13  C   UNL     1      33.869 -23.606 -11.612  0.00  0.00    -0.000 C 
ATOM     14  C   UNL     1      35.559 -23.123 -13.815  0.00  0.00    +0.045 C 
ATOM     15  C   UNL     1      35.243 -23.465 -11.426  0.00  0.00    +0.029 C 
ATOM     16  C   UNL     1      36.082 -23.225 -12.521  0.00  0.00    +0.141 C 
ATOM     17  H   UNL     1      32.096 -23.070 -17.277  0.00  0.00    +0.151 HD
ENDROOT
BRANCH   4  18
ATOM     18  C   UNL     1      33.412 -22.691 -18.874  0.00  0.00    +0.091 C 
BRANCH  18  20
ATOM     19  N   UNL     1      34.397 -19.040 -20.960  0.00  0.00    +0.388 N 
ATOM     20  C   UNL     1      33.780 -21.229 -19.111  0.00  0.00    +0.015 C 
ATOM     21  C   UNL     1      32.699 -20.517 -19.932  0.00  0.00    -0.021 C 
ATOM     22  C   UNL     1      35.133 -21.108 -19.820  0.00  0.00    -0.021 C 
ATOM     23  C   UNL     1      33.108 -19.078 -20.259  0.00  0.00    -0.077 C 
ATOM     24  C   UNL     1      35.459 -19.651 -20.150  0.00  0.00    -0.077 C 
ATOM     25  H   UNL     1      34.305 -19.582 -21.819  0.00  0.00    -0.080 HD
BRANCH  19  26
ATOM     26  C   UNL     1      34.748 -17.664 -21.312  0.00  0.00    -0.050 C 
BRANCH  26  28
ATOM     27  O   UNL     1      32.987 -16.524 -25.026  0.00  0.00    -0.354 OA
ATOM     28  C   UNL     1      34.624 -17.421 -22.816  0.00  0.00    +0.074 C 
ATOM     29  C   UNL     1      34.365 -15.938 -23.111  0.00  0.00    +0.057 C 
ATOM     30  C   UNL     1      33.504 -18.278 -23.425  0.00  0.00    +0.057 C 
ATOM     31  C   UNL     1      34.076 -15.710 -24.592  0.00  0.00    +0.144 C 
ATOM     32  C   UNL     1      33.269 -17.916 -24.889  0.00  0.00    +0.144 C 
BRANCH  28  33
ATOM     33  O   UNL     1      35.868 -17.780 -23.423  0.00  0.00    -0.389 OA
ATOM     34  H   UNL     1      36.223 -17.018 -23.907  0.00  0.00    +0.210 HD
ENDBRANCH  28  33
ENDBRANCH  26  28
ENDBRANCH  19  26
ENDBRANCH  18  20
ENDBRANCH   4  18
TORSDOF 5
ENDMDL
MODEL 7
REMARK VINA RESULT:     -10.4      4.046      6.593
REMARK  Name = 71451950
REMARK  5 active torsions:
REMARK  status: ('A' for Active; 'I' for Inactive)
REMARK    1  A    between atoms: N_4  and  C_18
REMARK    2  A    between atoms: C_18  and  C_20
REMARK    3  A    between atoms: N_19  and  C_26
REMARK    4  A    between atoms: C_26  and  C_28
REMARK    5  A    between atoms: C_28  and  O_33
REMARK                            x       y       z     vdW  Elec       q    Type
REMARK                         _______ _______ _______ _____ _____    ______ ____
ROOT
ATOM      1  F   UNL     1      32.869  -5.244 -22.907  0.00  0.00    -0.204 F 
ATOM      2  O   UNL     1      32.591 -10.010 -24.027  0.00  0.00    -0.252 OA
ATOM      3  O   UNL     1      31.209 -11.690 -20.329  0.00  0.00    -0.274 OA
ATOM      4  N   UNL     1      31.985 -11.950 -22.964  0.00  0.00    -0.288 N 
ATOM      5  N   UNL     1      31.899  -9.918 -21.776  0.00  0.00    -0.192 N 
ATOM      6  C   UNL     1      31.255  -9.387 -19.517  0.00  0.00    +0.090 C 
ATOM      7  C   UNL     1      31.657  -8.164 -20.291  0.00  0.00    -0.000 C 
ATOM      8  C   UNL     1      32.194 -10.571 -23.004  0.00  0.00    +0.314 C 
ATOM      9  C   UNL     1      31.436 -10.508 -20.556  0.00  0.00    +0.239 C 
ATOM     10  C   UNL     1      32.024  -8.513 -21.593  0.00  0.00    +0.061 C 
ATOM     11  C   UNL     1      32.182  -9.639 -18.327  0.00  0.00    +0.014 C 
ATOM     12  C   UNL     1      29.790  -9.327 -19.080  0.00  0.00    +0.014 C 
ATOM     13  C   UNL     1      31.692  -6.846 -19.857  0.00  0.00    -0.000 C 
ATOM     14  C   UNL     1      32.437  -7.535 -22.487  0.00  0.00    +0.045 C 
ATOM     15  C   UNL     1      32.104  -5.860 -20.752  0.00  0.00    +0.029 C 
ATOM     16  C   UNL     1      32.474  -6.203 -22.058  0.00  0.00    +0.141 C 
ATOM     17  H   UNL     1      31.667 -12.358 -22.127  0.00  0.00    +0.151 HD
ENDROOT
BRANCH   4  18
ATOM     18  C   UNL     1      32.220 -12.799 -24.108  0.00  0.00    +0.091 C 
BRANCH  18  20
ATOM     19  N   UNL     1      34.339 -16.397 -23.004  0.00  0.00    +0.388 N 
ATOM     20  C   UNL     1      33.376 -13.765 -23.862  0.00  0.00    +0.015 C 
ATOM     21  C   UNL     1      33.245 -15.014 -24.740  0.00  0.00    -0.021 C 
ATOM     22  C   UNL     1      33.448 -14.173 -22.386  0.00  0.00    -0.021 C 
ATOM     23  C   UNL     1      34.345 -16.031 -24.426  0.00  0.00    -0.077 C 
ATOM     24  C   UNL     1      34.541 -15.218 -22.152  0.00  0.00    -0.077 C 
ATOM     25  H   UNL     1      33.424 -16.791 -22.784  0.00  0.00    -0.080 HD
BRANCH  19  26
ATOM     26  C   UNL     1      35.360 -17.408 -22.730  0.00  0.00    -0.050 C 
BRANCH  26  28
ATOM     27  O   UNL     1      34.734 -20.684 -20.071  0.00  0.00    -0.354 OA
ATOM     28  C   UNL     1      35.078 -18.150 -21.424  0.00  0.00    +0.074 C 
ATOM     29  C   UNL     1      36.256 -19.057 -21.045  0.00  0.00    +0.057 C 
ATOM     30  C   UNL     1      33.791 -18.982 -21.527  0.00  0.00    +0.057 C 
ATOM     31  C   UNL     1      35.920 -19.924 -19.835  0.00  0.00    +0.144 C 
ATOM     32  C   UNL     1      33.596 -19.851 -20.287  0.00  0.00    +0.144 C 
BRANCH  28  33
ATOM     33  O   UNL     1      34.922 -17.175 -20.390  0.00  0.00    -0.389 OA
ATOM     34  H   UNL     1      34.454 -17.572 -19.639  0.00  0.00    +0.210 HD
ENDBRANCH  28  33
ENDBRANCH  26  28
ENDBRANCH  19  26
ENDBRANCH  18  20
ENDBRANCH   4  18
TORSDOF 5
ENDMDL
MODEL 8
REMARK VINA RESULT:     -10.4      4.732      7.346
REMARK  Name = 71451950
REMARK  5 active torsions:
REMARK  status: ('A' for Active; 'I' for Inactive)
REMARK    1  A    between atoms: N_4  and  C_18
REMARK    2  A    between atoms: C_18  and  C_20
REMARK    3  A    between atoms: N_19  and  C_26
REMARK    4  A    between atoms: C_26  and  C_28
REMARK    5  A    between atoms: C_28  and  O_33
REMARK                            x       y       z     vdW  Elec       q    Type
REMARK                         _______ _______ _______ _____ _____    ______ ____
ROOT
ATOM      1  F   UNL     1      31.612  -5.342 -18.482  0.00  0.00    -0.204 F 
ATOM      2  O   UNL     1      31.605 -10.065 -19.803  0.00  0.00    -0.252 OA
ATOM      3  O   UNL     1      32.037  -9.775 -24.061  0.00  0.00    -0.274 OA
ATOM      4  N   UNL     1      31.778 -11.262 -21.752  0.00  0.00    -0.288 N 
ATOM      5  N   UNL     1      31.840  -8.909 -21.842  0.00  0.00    -0.192 N 
ATOM      6  C   UNL     1      32.073  -7.363 -23.675  0.00  0.00    +0.090 C 
ATOM      7  C   UNL     1      31.964  -6.659 -22.353  0.00  0.00    -0.000 C 
ATOM      8  C   UNL     1      31.728 -10.069 -21.029  0.00  0.00    +0.314 C 
ATOM      9  C   UNL     1      31.985  -8.845 -23.266  0.00  0.00    +0.239 C 
ATOM     10  C   UNL     1      31.830  -7.587 -21.317  0.00  0.00    +0.061 C 
ATOM     11  C   UNL     1      30.906  -7.019 -24.602  0.00  0.00    +0.014 C 
ATOM     12  C   UNL     1      33.418  -7.099 -24.352  0.00  0.00    +0.014 C 
ATOM     13  C   UNL     1      31.982  -5.293 -22.103  0.00  0.00    -0.000 C 
ATOM     14  C   UNL     1      31.709  -7.154 -20.004  0.00  0.00    +0.045 C 
ATOM     15  C   UNL     1      31.863  -4.854 -20.786  0.00  0.00    +0.029 C 
ATOM     16  C   UNL     1      31.727  -5.780 -19.744  0.00  0.00    +0.141 C 
ATOM     17  H   UNL     1      31.878 -11.220 -22.729  0.00  0.00    +0.151 HD
ENDROOT
BRANCH   4  18
ATOM     18  C   UNL     1      31.688 -12.554 -21.114  0.00  0.00    +0.091 C 
BRANCH  18  20
ATOM     19  N   UNL     1      34.252 -15.924 -21.964  0.00  0.00    +0.388 N 
ATOM     20  C   UNL     1      32.960 -13.372 -21.326  0.00  0.00    +0.015 C 
ATOM     21  C   UNL     1      33.024 -13.927 -22.753  0.00  0.00    -0.021 C 
ATOM     22  C   UNL     1      33.049 -14.524 -20.318  0.00  0.00    -0.021 C 
ATOM     23  C   UNL     1      34.245 -14.830 -22.943  0.00  0.00    -0.077 C 
ATOM     24  C   UNL     1      34.268 -15.406 -20.590  0.00  0.00    -0.077 C 
ATOM     25  H   UNL     1      33.394 -16.463 -22.087  0.00  0.00    -0.080 HD
BRANCH  19  26
ATOM     26  C   UNL     1      35.395 -16.808 -22.192  0.00  0.00    -0.050 C 
BRANCH  26  28
ATOM     27  O   UNL     1      34.508 -20.097 -19.624  0.00  0.00    -0.354 OA
ATOM     28  C   UNL     1      35.086 -18.244 -21.769  0.00  0.00    +0.074 C 
ATOM     29  C   UNL     1      33.711 -18.333 -21.095  0.00  0.00    +0.057 C 
ATOM     30  C   UNL     1      36.168 -18.788 -20.824  0.00  0.00    +0.057 C 
ATOM     31  C   UNL     1      33.463 -19.727 -20.524  0.00  0.00    +0.144 C 
ATOM     32  C   UNL     1      35.778 -20.157 -20.271  0.00  0.00    +0.144 C 
BRANCH  28  33
ATOM     33  O   UNL     1      35.051 -19.051 -22.950  0.00  0.00    -0.389 OA
ATOM     34  H   UNL     1      35.925 -19.441 -23.101  0.00  0.00    +0.210 HD
ENDBRANCH  28  33
ENDBRANCH  26  28
ENDBRANCH  19  26
ENDBRANCH  18  20
ENDBRANCH   4  18
TORSDOF 5
ENDMDL
MODEL 9
REMARK VINA RESULT:     -10.0      3.402      9.951
REMARK  Name = 71451950
REMARK  5 active torsions:
REMARK  status: ('A' for Active; 'I' for Inactive)
REMARK    1  A    between atoms: N_4  and  C_18
REMARK    2  A    between atoms: C_18  and  C_20
REMARK    3  A    between atoms: N_19  and  C_26
REMARK    4  A    between atoms: C_26  and  C_28
REMARK    5  A    between atoms: C_28  and  O_33
REMARK                            x       y       z     vdW  Elec       q    Type
REMARK                         _______ _______ _______ _____ _____    ______ ____
ROOT
ATOM      1  F   UNL     1      30.999 -23.915 -15.441  0.00  0.00    -0.204 F 
ATOM      2  O   UNL     1      32.504 -21.565 -19.473  0.00  0.00    -0.252 OA
ATOM      3  O   UNL     1      36.572 -20.642 -18.471  0.00  0.00    -0.274 OA
ATOM      4  N   UNL     1      34.439 -20.585 -20.220  0.00  0.00    -0.288 N 
ATOM      5  N   UNL     1      34.400 -21.557 -18.075  0.00  0.00    -0.192 N 
ATOM      6  C   UNL     1      36.081 -21.774 -16.363  0.00  0.00    +0.090 C 
ATOM      7  C   UNL     1      34.778 -22.402 -15.958  0.00  0.00    -0.000 C 
ATOM      8  C   UNL     1      33.680 -21.263 -19.265  0.00  0.00    +0.314 C 
ATOM      9  C   UNL     1      35.763 -21.236 -17.770  0.00  0.00    +0.239 C 
ATOM     10  C   UNL     1      33.831 -22.256 -16.974  0.00  0.00    +0.061 C 
ATOM     11  C   UNL     1      36.461 -20.610 -15.446  0.00  0.00    +0.014 C 
ATOM     12  C   UNL     1      37.207 -22.804 -16.452  0.00  0.00    +0.014 C 
ATOM     13  C   UNL     1      34.471 -23.052 -14.769  0.00  0.00    -0.000 C 
ATOM     14  C   UNL     1      32.549 -22.762 -16.811  0.00  0.00    +0.045 C 
ATOM     15  C   UNL     1      33.185 -23.563 -14.602  0.00  0.00    +0.029 C 
ATOM     16  C   UNL     1      32.231 -23.419 -15.617  0.00  0.00    +0.141 C 
ATOM     17  H   UNL     1      35.375 -20.364 -20.013  0.00  0.00    +0.151 HD
ENDROOT
BRANCH   4  18
ATOM     18  C   UNL     1      33.897 -20.198 -21.501  0.00  0.00    +0.091 C 
BRANCH  18  20
ATOM     19  N   UNL     1      34.072 -16.018 -22.575  0.00  0.00    +0.388 N 
ATOM     20  C   UNL     1      34.463 -18.859 -21.967  0.00  0.00    +0.015 C 
ATOM     21  C   UNL     1      34.326 -17.795 -20.872  0.00  0.00    -0.021 C 
ATOM     22  C   UNL     1      33.766 -18.380 -23.245  0.00  0.00    -0.021 C 
ATOM     23  C   UNL     1      34.799 -16.426 -21.366  0.00  0.00    -0.077 C 
ATOM     24  C   UNL     1      34.258 -16.992 -23.659  0.00  0.00    -0.077 C 
ATOM     25  H   UNL     1      33.077 -15.985 -22.349  0.00  0.00    -0.080 HD
BRANCH  19  26
ATOM     26  C   UNL     1      34.497 -14.687 -23.004  0.00  0.00    -0.050 C 
BRANCH  26  28
ATOM     27  O   UNL     1      32.144 -11.263 -22.034  0.00  0.00    -0.354 OA
ATOM     28  C   UNL     1      33.324 -13.707 -23.036  0.00  0.00    +0.074 C 
ATOM     29  C   UNL     1      33.786 -12.315 -23.486  0.00  0.00    +0.057 C 
ATOM     30  C   UNL     1      32.643 -13.613 -21.663  0.00  0.00    +0.057 C 
ATOM     31  C   UNL     1      32.660 -11.292 -23.365  0.00  0.00    +0.144 C 
ATOM     32  C   UNL     1      31.581 -12.516 -21.649  0.00  0.00    +0.144 C 
BRANCH  28  33
ATOM     33  O   UNL     1      32.377 -14.187 -23.995  0.00  0.00    -0.389 OA
ATOM     34  H   UNL     1      32.743 -14.961 -24.451  0.00  0.00    +0.210 HD
ENDBRANCH  28  33
ENDBRANCH  26  28
ENDBRANCH  19  26
ENDBRANCH  18  20
ENDBRANCH   4  18
TORSDOF 5
ENDMDL
