MODEL 1
REMARK VINA RESULT:     -11.3      0.000      0.000
REMARK  Name = 16659841
REMARK  2 active torsions:
REMARK  status: ('A' for Active; 'I' for Inactive)
REMARK    1  A    between atoms: N_2  and  C_19
REMARK    2  A    between atoms: C_19  and  C_24
REMARK                            x       y       z     vdW  Elec       q    Type
REMARK                         _______ _______ _______ _____ _____    ______ ____
ROOT
ATOM      1 CL   UNL     1      29.280 -22.638 -16.474  0.00  0.00    -0.076 Cl
ATOM      2  N   UNL     1      34.625 -23.718 -14.588  0.00  0.00    -0.257 N 
ATOM      3  N   UNL     1      31.855 -21.792 -17.824  0.00  0.00    -0.271 N 
ATOM      4  N   UNL     1      33.271 -22.758 -16.195  0.00  0.00    -0.321 NA
ATOM      5  N   UNL     1      32.342 -23.917 -14.296  0.00  0.00    -0.169 NA
ATOM      6  N   UNL     1      34.738 -20.634 -19.697  0.00  0.00    -0.239 N 
ATOM      7  N   UNL     1      34.142 -21.259 -18.667  0.00  0.00    -0.166 NA
ATOM      8  C   UNL     1      33.361 -23.453 -15.044  0.00  0.00    +0.147 C 
ATOM      9  C   UNL     1      32.012 -22.519 -16.616  0.00  0.00    +0.210 C 
ATOM     10  C   UNL     1      32.780 -21.239 -18.724  0.00  0.00    +0.152 C 
ATOM     11  C   UNL     1      33.706 -20.204 -20.428  0.00  0.00    +0.046 C 
ATOM     12  C   UNL     1      32.462 -20.552 -19.869  0.00  0.00    +0.048 C 
ATOM     13  C   UNL     1      30.884 -22.940 -15.943  0.00  0.00    +0.122 C 
ATOM     14  C   UNL     1      31.112 -23.641 -14.776  0.00  0.00    +0.127 C 
ATOM     15  C   UNL     1      33.956 -19.449 -21.676  0.00  0.00    +0.049 C 
ATOM     16  H   UNL     1      34.728 -24.225 -13.750  0.00  0.00    +0.160 HD
ATOM     17  H   UNL     1      30.916 -21.648 -18.080  0.00  0.00    +0.156 HD
ATOM     18  H   UNL     1      35.701 -20.519 -19.870  0.00  0.00    +0.174 HD
ENDROOT
BRANCH   2  19
ATOM     19  C   UNL     1      35.837 -23.276 -15.302  0.00  0.00    +0.164 C 
ATOM     20  C   UNL     1      36.004 -21.763 -15.070  0.00  0.00    +0.038 C 
BRANCH  19  24
ATOM     21  F   UNL     1      40.307 -26.160 -13.859  0.00  0.00    -0.205 F 
ATOM     22  N   UNL     1      36.836 -25.312 -14.473  0.00  0.00    -0.193 NA
ATOM     23  N   UNL     1      38.232 -23.430 -15.034  0.00  0.00    -0.215 NA
ATOM     24  C   UNL     1      37.046 -24.056 -14.911  0.00  0.00    +0.026 C 
ATOM     25  C   UNL     1      37.951 -25.989 -14.129  0.00  0.00    +0.136 C 
ATOM     26  C   UNL     1      39.304 -24.164 -14.673  0.00  0.00    +0.194 C 
ATOM     27  C   UNL     1      39.223 -25.462 -14.208  0.00  0.00    +0.163 C 
ENDBRANCH  19  24
ENDBRANCH   2  19
TORSDOF 2
ENDMDL
MODEL 2
REMARK VINA RESULT:     -11.0      2.974      6.665
REMARK  Name = 16659841
REMARK  2 active torsions:
REMARK  status: ('A' for Active; 'I' for Inactive)
REMARK    1  A    between atoms: N_2  and  C_19
REMARK    2  A    between atoms: C_19  and  C_24
REMARK                            x       y       z     vdW  Elec       q    Type
REMARK                         _______ _______ _______ _____ _____    ______ ____
ROOT
ATOM      1 CL   UNL     1      30.484 -23.420 -13.140  0.00  0.00    -0.076 Cl
ATOM      2  N   UNL     1      32.280 -21.915 -18.412  0.00  0.00    -0.257 N 
ATOM      3  N   UNL     1      33.313 -23.646 -14.195  0.00  0.00    -0.271 N 
ATOM      4  N   UNL     1      32.808 -22.775 -16.334  0.00  0.00    -0.321 NA
ATOM      5  N   UNL     1      30.560 -22.100 -16.882  0.00  0.00    -0.169 NA
ATOM      6  N   UNL     1      36.793 -24.044 -15.137  0.00  0.00    -0.239 N 
ATOM      7  N   UNL     1      35.516 -23.694 -15.366  0.00  0.00    -0.166 NA
ATOM      8  C   UNL     1      31.865 -22.279 -17.159  0.00  0.00    +0.147 C 
ATOM      9  C   UNL     1      32.365 -23.119 -15.107  0.00  0.00    +0.210 C 
ATOM     10  C   UNL     1      34.690 -23.900 -14.301  0.00  0.00    +0.152 C 
ATOM     11  C   UNL     1      36.766 -24.489 -13.878  0.00  0.00    +0.046 C 
ATOM     12  C   UNL     1      35.481 -24.423 -13.307  0.00  0.00    +0.048 C 
ATOM     13  C   UNL     1      31.053 -22.984 -14.699  0.00  0.00    +0.122 C 
ATOM     14  C   UNL     1      30.186 -22.465 -15.639  0.00  0.00    +0.127 C 
ATOM     15  C   UNL     1      38.011 -24.978 -13.246  0.00  0.00    +0.049 C 
ATOM     16  H   UNL     1      31.618 -21.548 -19.041  0.00  0.00    +0.160 HD
ATOM     17  H   UNL     1      32.932 -23.878 -13.318  0.00  0.00    +0.156 HD
ATOM     18  H   UNL     1      37.563 -23.988 -15.750  0.00  0.00    +0.174 HD
ENDROOT
BRANCH   2  19
ATOM     19  C   UNL     1      33.680 -22.052 -18.858  0.00  0.00    +0.164 C 
ATOM     20  C   UNL     1      33.800 -23.358 -19.663  0.00  0.00    +0.038 C 
BRANCH  19  24
ATOM     21  F   UNL     1      35.441 -17.646 -21.661  0.00  0.00    -0.205 F 
ATOM     22  N   UNL     1      33.228 -20.186 -20.323  0.00  0.00    -0.193 NA
ATOM     23  N   UNL     1      35.468 -20.572 -19.522  0.00  0.00    -0.215 NA
ATOM     24  C   UNL     1      34.156 -20.860 -19.616  0.00  0.00    +0.026 C 
ATOM     25  C   UNL     1      33.694 -19.114 -20.996  0.00  0.00    +0.136 C 
ATOM     26  C   UNL     1      35.865 -19.488 -20.220  0.00  0.00    +0.194 C 
ATOM     27  C   UNL     1      35.014 -18.714 -20.982  0.00  0.00    +0.163 C 
ENDBRANCH  19  24
ENDBRANCH   2  19
TORSDOF 2
ENDMDL
MODEL 3
REMARK VINA RESULT:     -10.1      1.797      2.214
REMARK  Name = 16659841
REMARK  2 active torsions:
REMARK  status: ('A' for Active; 'I' for Inactive)
REMARK    1  A    between atoms: N_2  and  C_19
REMARK    2  A    between atoms: C_19  and  C_24
REMARK                            x       y       z     vdW  Elec       q    Type
REMARK                         _______ _______ _______ _____ _____    ______ ____
ROOT
ATOM      1 CL   UNL     1      30.522 -23.970 -15.646  0.00  0.00    -0.076 Cl
ATOM      2  N   UNL     1      35.227 -23.431 -12.350  0.00  0.00    -0.257 N 
ATOM      3  N   UNL     1      33.158 -22.737 -16.483  0.00  0.00    -0.271 N 
ATOM      4  N   UNL     1      34.219 -23.078 -14.398  0.00  0.00    -0.321 NA
ATOM      5  N   UNL     1      33.037 -24.130 -12.579  0.00  0.00    -0.169 NA
ATOM      6  N   UNL     1      36.169 -21.207 -17.808  0.00  0.00    -0.239 N 
ATOM      7  N   UNL     1      35.441 -21.797 -16.843  0.00  0.00    -0.166 NA
ATOM      8  C   UNL     1      34.115 -23.551 -13.140  0.00  0.00    +0.147 C 
ATOM      9  C   UNL     1      33.108 -23.215 -15.149  0.00  0.00    +0.210 C 
ATOM     10  C   UNL     1      34.173 -22.116 -17.229  0.00  0.00    +0.152 C 
ATOM     11  C   UNL     1      35.321 -21.154 -18.838  0.00  0.00    +0.046 C 
ATOM     12  C   UNL     1      34.062 -21.705 -18.534  0.00  0.00    +0.048 C 
ATOM     13  C   UNL     1      31.939 -23.792 -14.694  0.00  0.00    +0.122 C 
ATOM     14  C   UNL     1      31.963 -24.235 -13.387  0.00  0.00    +0.127 C 
ATOM     15  C   UNL     1      35.760 -20.555 -20.119  0.00  0.00    +0.049 C 
ATOM     16  H   UNL     1      35.186 -23.767 -11.425  0.00  0.00    +0.160 HD
ATOM     17  H   UNL     1      32.319 -22.864 -16.981  0.00  0.00    +0.156 HD
ATOM     18  H   UNL     1      37.101 -20.890 -17.764  0.00  0.00    +0.174 HD
ENDROOT
BRANCH   2  19
ATOM     19  C   UNL     1      36.481 -22.820 -12.827  0.00  0.00    +0.164 C 
ATOM     20  C   UNL     1      37.049 -21.945 -11.694  0.00  0.00    +0.038 C 
BRANCH  19  24
ATOM     21  F   UNL     1      40.095 -26.563 -14.646  0.00  0.00    -0.205 F 
ATOM     22  N   UNL     1      38.151 -23.510 -14.429  0.00  0.00    -0.193 NA
ATOM     23  N   UNL     1      37.556 -24.971 -12.607  0.00  0.00    -0.215 NA
ATOM     24  C   UNL     1      37.459 -23.832 -13.319  0.00  0.00    +0.026 C 
ATOM     25  C   UNL     1      39.026 -24.449 -14.845  0.00  0.00    +0.136 C 
ATOM     26  C   UNL     1      38.449 -25.864 -13.079  0.00  0.00    +0.194 C 
ATOM     27  C   UNL     1      39.219 -25.655 -14.205  0.00  0.00    +0.163 C 
ENDBRANCH  19  24
ENDBRANCH   2  19
TORSDOF 2
ENDMDL
MODEL 4
REMARK VINA RESULT:      -9.9      1.982      2.234
REMARK  Name = 16659841
REMARK  2 active torsions:
REMARK  status: ('A' for Active; 'I' for Inactive)
REMARK    1  A    between atoms: N_2  and  C_19
REMARK    2  A    between atoms: C_19  and  C_24
REMARK                            x       y       z     vdW  Elec       q    Type
REMARK                         _______ _______ _______ _____ _____    ______ ____
ROOT
ATOM      1 CL   UNL     1      29.054 -23.525 -16.251  0.00  0.00    -0.076 Cl
ATOM      2  N   UNL     1      33.441 -23.921 -12.524  0.00  0.00    -0.257 N 
ATOM      3  N   UNL     1      31.927 -22.731 -16.783  0.00  0.00    -0.271 N 
ATOM      4  N   UNL     1      32.709 -23.325 -14.633  0.00  0.00    -0.321 NA
ATOM      5  N   UNL     1      31.198 -24.226 -12.985  0.00  0.00    -0.169 NA
ATOM      6  N   UNL     1      35.265 -21.690 -17.752  0.00  0.00    -0.239 N 
ATOM      7  N   UNL     1      34.359 -22.183 -16.889  0.00  0.00    -0.166 NA
ATOM      8  C   UNL     1      32.407 -23.819 -13.416  0.00  0.00    +0.147 C 
ATOM      9  C   UNL     1      31.669 -23.243 -15.486  0.00  0.00    +0.210 C 
ATOM     10  C   UNL     1      33.098 -22.266 -17.402  0.00  0.00    +0.152 C 
ATOM     11  C   UNL     1      34.541 -21.455 -18.849  0.00  0.00    +0.046 C 
ATOM     12  C   UNL     1      33.185 -21.794 -18.688  0.00  0.00    +0.048 C 
ATOM     13  C   UNL     1      30.382 -23.627 -15.168  0.00  0.00    +0.122 C 
ATOM     14  C   UNL     1      30.204 -24.116 -13.890  0.00  0.00    +0.127 C 
ATOM     15  C   UNL     1      35.196 -20.893 -20.052  0.00  0.00    +0.049 C 
ATOM     16  H   UNL     1      33.256 -24.279 -11.626  0.00  0.00    +0.160 HD
ATOM     17  H   UNL     1      31.131 -22.694 -17.360  0.00  0.00    +0.156 HD
ATOM     18  H   UNL     1      36.228 -21.539 -17.608  0.00  0.00    +0.174 HD
ENDROOT
BRANCH   2  19
ATOM     19  C   UNL     1      34.820 -23.515 -12.855  0.00  0.00    +0.164 C 
ATOM     20  C   UNL     1      35.426 -22.826 -11.619  0.00  0.00    +0.038 C 
BRANCH  19  24
ATOM     21  F   UNL     1      37.882 -27.727 -14.662  0.00  0.00    -0.205 F 
ATOM     22  N   UNL     1      36.487 -25.215 -12.451  0.00  0.00    -0.193 NA
ATOM     23  N   UNL     1      35.478 -25.014 -14.630  0.00  0.00    -0.215 NA
ATOM     24  C   UNL     1      35.648 -24.655 -13.343  0.00  0.00    +0.026 C 
ATOM     25  C   UNL     1      37.220 -26.242 -12.927  0.00  0.00    +0.136 C 
ATOM     26  C   UNL     1      36.242 -26.047 -15.039  0.00  0.00    +0.194 C 
ATOM     27  C   UNL     1      37.140 -26.706 -14.223  0.00  0.00    +0.163 C 
ENDBRANCH  19  24
ENDBRANCH   2  19
TORSDOF 2
ENDMDL
MODEL 5
REMARK VINA RESULT:      -9.6      3.769      7.017
REMARK  Name = 16659841
REMARK  2 active torsions:
REMARK  status: ('A' for Active; 'I' for Inactive)
REMARK    1  A    between atoms: N_2  and  C_19
REMARK    2  A    between atoms: C_19  and  C_24
REMARK                            x       y       z     vdW  Elec       q    Type
REMARK                         _______ _______ _______ _____ _____    ______ ____
ROOT
ATOM      1 CL   UNL     1      35.670 -23.024 -12.999  0.00  0.00    -0.076 Cl
ATOM      2  N   UNL     1      36.124 -21.349 -18.502  0.00  0.00    -0.257 N 
ATOM      3  N   UNL     1      33.392 -22.740 -14.974  0.00  0.00    -0.271 N 
ATOM      4  N   UNL     1      34.759 -22.033 -16.769  0.00  0.00    -0.321 NA
ATOM      5  N   UNL     1      37.141 -21.807 -16.479  0.00  0.00    -0.169 NA
ATOM      6  N   UNL     1      30.445 -22.511 -17.077  0.00  0.00    -0.239 N 
ATOM      7  N   UNL     1      31.764 -22.407 -16.835  0.00  0.00    -0.166 NA
ATOM      8  C   UNL     1      36.004 -21.745 -17.197  0.00  0.00    +0.147 C 
ATOM      9  C   UNL     1      34.678 -22.422 -15.480  0.00  0.00    +0.210 C 
ATOM     10  C   UNL     1      32.115 -22.735 -15.559  0.00  0.00    +0.152 C 
ATOM     11  C   UNL     1      29.953 -22.919 -15.906  0.00  0.00    +0.046 C 
ATOM     12  C   UNL     1      30.948 -23.075 -14.923  0.00  0.00    +0.048 C 
ATOM     13  C   UNL     1      35.767 -22.528 -14.639  0.00  0.00    +0.122 C 
ATOM     14  C   UNL     1      36.986 -22.204 -15.200  0.00  0.00    +0.127 C 
ATOM     15  C   UNL     1      28.497 -23.152 -15.763  0.00  0.00    +0.049 C 
ATOM     16  H   UNL     1      37.020 -21.132 -18.848  0.00  0.00    +0.160 HD
ATOM     17  H   UNL     1      33.396 -23.017 -14.029  0.00  0.00    +0.156 HD
ATOM     18  H   UNL     1      29.961 -22.328 -17.916  0.00  0.00    +0.174 HD
ENDROOT
BRANCH   2  19
ATOM     19  C   UNL     1      34.967 -21.235 -19.409  0.00  0.00    +0.164 C 
ATOM     20  C   UNL     1      33.686 -21.241 -18.555  0.00  0.00    +0.038 C 
BRANCH  19  24
ATOM     21  F   UNL     1      35.305 -16.841 -22.719  0.00  0.00    -0.205 F 
ATOM     22  N   UNL     1      36.185 -19.313 -20.218  0.00  0.00    -0.193 NA
ATOM     23  N   UNL     1      34.006 -19.820 -21.113  0.00  0.00    -0.215 NA
ATOM     24  C   UNL     1      35.059 -20.046 -20.304  0.00  0.00    +0.026 C 
ATOM     25  C   UNL     1      36.234 -18.246 -21.041  0.00  0.00    +0.136 C 
ATOM     26  C   UNL     1      34.121 -18.737 -21.909  0.00  0.00    +0.194 C 
ATOM     27  C   UNL     1      35.223 -17.906 -21.916  0.00  0.00    +0.163 C 
ENDBRANCH  19  24
ENDBRANCH   2  19
TORSDOF 2
ENDMDL
MODEL 6
REMARK VINA RESULT:      -9.6      1.778      4.275
REMARK  Name = 16659841
REMARK  2 active torsions:
REMARK  status: ('A' for Active; 'I' for Inactive)
REMARK    1  A    between atoms: N_2  and  C_19
REMARK    2  A    between atoms: C_19  and  C_24
REMARK                            x       y       z     vdW  Elec       q    Type
REMARK                         _______ _______ _______ _____ _____    ______ ____
ROOT
ATOM      1 CL   UNL     1      32.530 -20.913 -19.878  0.00  0.00    -0.076 Cl
ATOM      2  N   UNL     1      36.734 -22.356 -16.199  0.00  0.00    -0.257 N 
ATOM      3  N   UNL     1      32.178 -22.361 -17.243  0.00  0.00    -0.271 N 
ATOM      4  N   UNL     1      34.479 -22.370 -16.700  0.00  0.00    -0.321 NA
ATOM      5  N   UNL     1      36.093 -21.378 -18.191  0.00  0.00    -0.169 NA
ATOM      6  N   UNL     1      31.404 -24.096 -14.153  0.00  0.00    -0.239 N 
ATOM      7  N   UNL     1      32.240 -23.526 -15.037  0.00  0.00    -0.166 NA
ATOM      8  C   UNL     1      35.728 -22.022 -17.066  0.00  0.00    +0.147 C 
ATOM      9  C   UNL     1      33.514 -22.021 -17.575  0.00  0.00    +0.210 C 
ATOM     10  C   UNL     1      31.614 -23.018 -16.137  0.00  0.00    +0.152 C 
ATOM     11  C   UNL     1      30.206 -23.939 -14.722  0.00  0.00    +0.046 C 
ATOM     12  C   UNL     1      30.277 -23.274 -15.961  0.00  0.00    +0.048 C 
ATOM     13  C   UNL     1      33.755 -21.359 -18.762  0.00  0.00    +0.122 C 
ATOM     14  C   UNL     1      35.077 -21.060 -19.020  0.00  0.00    +0.127 C 
ATOM     15  C   UNL     1      28.996 -24.449 -14.039  0.00  0.00    +0.049 C 
ATOM     16  H   UNL     1      37.659 -22.117 -16.435  0.00  0.00    +0.160 HD
ATOM     17  H   UNL     1      31.519 -22.082 -17.918  0.00  0.00    +0.156 HD
ATOM     18  H   UNL     1      31.622 -24.526 -13.293  0.00  0.00    +0.174 HD
ENDROOT
BRANCH   2  19
ATOM     19  C   UNL     1      36.487 -23.062 -14.928  0.00  0.00    +0.164 C 
ATOM     20  C   UNL     1      35.188 -23.874 -15.076  0.00  0.00    +0.038 C 
BRANCH  19  24
ATOM     21  F   UNL     1      40.772 -26.156 -13.366  0.00  0.00    -0.205 F 
ATOM     22  N   UNL     1      37.412 -24.806 -13.538  0.00  0.00    -0.193 NA
ATOM     23  N   UNL     1      38.816 -23.667 -15.131  0.00  0.00    -0.215 NA
ATOM     24  C   UNL     1      37.646 -23.899 -14.505  0.00  0.00    +0.026 C 
ATOM     25  C   UNL     1      38.482 -25.546 -13.181  0.00  0.00    +0.136 C 
ATOM     26  C   UNL     1      39.842 -24.442 -14.725  0.00  0.00    +0.194 C 
ATOM     27  C   UNL     1      39.733 -25.407 -13.744  0.00  0.00    +0.163 C 
ENDBRANCH  19  24
ENDBRANCH   2  19
TORSDOF 2
ENDMDL
MODEL 7
REMARK VINA RESULT:      -8.7      2.881      4.737
REMARK  Name = 16659841
REMARK  2 active torsions:
REMARK  status: ('A' for Active; 'I' for Inactive)
REMARK    1  A    between atoms: N_2  and  C_19
REMARK    2  A    between atoms: C_19  and  C_24
REMARK                            x       y       z     vdW  Elec       q    Type
REMARK                         _______ _______ _______ _____ _____    ______ ____
ROOT
ATOM      1 CL   UNL     1      33.143 -20.353 -19.675  0.00  0.00    -0.076 Cl
ATOM      2  N   UNL     1      35.947 -23.427 -15.677  0.00  0.00    -0.257 N 
ATOM      3  N   UNL     1      31.874 -22.043 -17.506  0.00  0.00    -0.271 N 
ATOM      4  N   UNL     1      33.925 -22.755 -16.570  0.00  0.00    -0.321 NA
ATOM      5  N   UNL     1      36.021 -22.016 -17.504  0.00  0.00    -0.169 NA
ATOM      6  N   UNL     1      30.037 -23.963 -15.037  0.00  0.00    -0.239 N 
ATOM      7  N   UNL     1      31.161 -23.510 -15.618  0.00  0.00    -0.166 NA
ATOM      8  C   UNL     1      35.271 -22.704 -16.623  0.00  0.00    +0.147 C 
ATOM      9  C   UNL     1      33.292 -22.029 -17.513  0.00  0.00    +0.210 C 
ATOM     10  C   UNL     1      30.937 -22.688 -16.683  0.00  0.00    +0.152 C 
ATOM     11  C   UNL     1      29.070 -23.403 -15.769  0.00  0.00    +0.046 C 
ATOM     12  C   UNL     1      29.573 -22.599 -16.808  0.00  0.00    +0.048 C 
ATOM     13  C   UNL     1      33.944 -21.280 -18.472  0.00  0.00    +0.122 C 
ATOM     14  C   UNL     1      35.322 -21.312 -18.419  0.00  0.00    +0.127 C 
ATOM     15  C   UNL     1      27.652 -23.669 -15.438  0.00  0.00    +0.049 C 
ATOM     16  H   UNL     1      36.931 -23.412 -15.686  0.00  0.00    +0.160 HD
ATOM     17  H   UNL     1      31.469 -21.496 -18.217  0.00  0.00    +0.156 HD
ATOM     18  H   UNL     1      29.948 -24.564 -14.261  0.00  0.00    +0.174 HD
ENDROOT
BRANCH   2  19
ATOM     19  C   UNL     1      35.260 -24.228 -14.647  0.00  0.00    +0.164 C 
ATOM     20  C   UNL     1      35.617 -25.708 -14.874  0.00  0.00    +0.038 C 
BRANCH  19  24
ATOM     21  F   UNL     1      36.407 -22.518  -9.534  0.00  0.00    -0.205 F 
ATOM     22  N   UNL     1      34.817 -24.282 -12.273  0.00  0.00    -0.193 NA
ATOM     23  N   UNL     1      36.573 -22.876 -13.137  0.00  0.00    -0.215 NA
ATOM     24  C   UNL     1      35.570 -23.766 -13.263  0.00  0.00    +0.026 C 
ATOM     25  C   UNL     1      35.125 -23.842 -11.036  0.00  0.00    +0.136 C 
ATOM     26  C   UNL     1      36.827 -22.479 -11.874  0.00  0.00    +0.194 C 
ATOM     27  C   UNL     1      36.129 -22.933 -10.773  0.00  0.00    +0.163 C 
ENDBRANCH  19  24
ENDBRANCH   2  19
TORSDOF 2
ENDMDL
MODEL 8
REMARK VINA RESULT:      -8.7      3.623      6.989
REMARK  Name = 16659841
REMARK  2 active torsions:
REMARK  status: ('A' for Active; 'I' for Inactive)
REMARK    1  A    between atoms: N_2  and  C_19
REMARK    2  A    between atoms: C_19  and  C_24
REMARK                            x       y       z     vdW  Elec       q    Type
REMARK                         _______ _______ _______ _____ _____    ______ ____
ROOT
ATOM      1 CL   UNL     1      35.383 -23.677 -11.574  0.00  0.00    -0.076 Cl
ATOM      2  N   UNL     1      35.304 -22.015 -17.098  0.00  0.00    -0.257 N 
ATOM      3  N   UNL     1      33.024 -23.867 -13.463  0.00  0.00    -0.271 N 
ATOM      4  N   UNL     1      34.161 -22.930 -15.311  0.00  0.00    -0.321 NA
ATOM      5  N   UNL     1      36.463 -22.240 -15.113  0.00  0.00    -0.169 NA
ATOM      6  N   UNL     1      30.016 -24.243 -15.456  0.00  0.00    -0.239 N 
ATOM      7  N   UNL     1      31.297 -23.881 -15.263  0.00  0.00    -0.166 NA
ATOM      8  C   UNL     1      35.310 -22.410 -15.787  0.00  0.00    +0.147 C 
ATOM      9  C   UNL     1      34.204 -23.311 -14.019  0.00  0.00    +0.210 C 
ATOM     10  C   UNL     1      31.751 -24.118 -14.000  0.00  0.00    +0.152 C 
ATOM     11  C   UNL     1      29.655 -24.726 -14.264  0.00  0.00    +0.046 C 
ATOM     12  C   UNL     1      30.696 -24.672 -13.318  0.00  0.00    +0.048 C 
ATOM     13  C   UNL     1      35.323 -23.192 -13.219  0.00  0.00    +0.122 C 
ATOM     14  C   UNL     1      36.434 -22.644 -13.826  0.00  0.00    +0.127 C 
ATOM     15  C   UNL     1      28.279 -25.236 -14.066  0.00  0.00    +0.049 C 
ATOM     16  H   UNL     1      36.127 -21.631 -17.479  0.00  0.00    +0.160 HD
ATOM     17  H   UNL     1      33.115 -24.126 -12.518  0.00  0.00    +0.156 HD
ATOM     18  H   UNL     1      29.476 -24.170 -16.276  0.00  0.00    +0.174 HD
ENDROOT
BRANCH   2  19
ATOM     19  C   UNL     1      34.115 -22.140 -17.962  0.00  0.00    +0.164 C 
ATOM     20  C   UNL     1      32.864 -22.037 -17.072  0.00  0.00    +0.038 C 
BRANCH  19  24
ATOM     21  F   UNL     1      34.109 -18.482 -22.085  0.00  0.00    -0.205 F 
ATOM     22  N   UNL     1      32.910 -20.809 -19.577  0.00  0.00    -0.193 NA
ATOM     23  N   UNL     1      35.316 -20.694 -19.479  0.00  0.00    -0.215 NA
ATOM     24  C   UNL     1      34.114 -21.151 -19.078  0.00  0.00    +0.026 C 
ATOM     25  C   UNL     1      32.946 -19.912 -20.583  0.00  0.00    +0.136 C 
ATOM     26  C   UNL     1      35.277 -19.801 -20.489  0.00  0.00    +0.194 C 
ATOM     27  C   UNL     1      34.110 -19.369 -21.086  0.00  0.00    +0.163 C 
ENDBRANCH  19  24
ENDBRANCH   2  19
TORSDOF 2
ENDMDL
MODEL 9
REMARK VINA RESULT:      -8.3      3.328      6.445
REMARK  Name = 16659841
REMARK  2 active torsions:
REMARK  status: ('A' for Active; 'I' for Inactive)
REMARK    1  A    between atoms: N_2  and  C_19
REMARK    2  A    between atoms: C_19  and  C_24
REMARK                            x       y       z     vdW  Elec       q    Type
REMARK                         _______ _______ _______ _____ _____    ______ ____
ROOT
ATOM      1 CL   UNL     1      36.793 -26.873 -13.154  0.00  0.00    -0.076 Cl
ATOM      2  N   UNL     1      37.823 -21.993 -16.054  0.00  0.00    -0.257 N 
ATOM      3  N   UNL     1      34.789 -24.676 -13.722  0.00  0.00    -0.271 N 
ATOM      4  N   UNL     1      36.311 -23.305 -14.902  0.00  0.00    -0.321 NA
ATOM      5  N   UNL     1      38.598 -24.001 -15.215  0.00  0.00    -0.169 NA
ATOM      6  N   UNL     1      32.146 -22.244 -14.230  0.00  0.00    -0.239 N 
ATOM      7  N   UNL     1      33.403 -22.701 -14.359  0.00  0.00    -0.166 NA
ATOM      8  C   UNL     1      37.568 -23.146 -15.362  0.00  0.00    +0.147 C 
ATOM      9  C   UNL     1      36.094 -24.453 -14.228  0.00  0.00    +0.210 C 
ATOM     10  C   UNL     1      33.609 -23.916 -13.774  0.00  0.00    +0.152 C 
ATOM     11  C   UNL     1      31.541 -23.211 -13.536  0.00  0.00    +0.046 C 
ATOM     12  C   UNL     1      32.405 -24.277 -13.224  0.00  0.00    +0.048 C 
ATOM     13  C   UNL     1      37.064 -25.411 -14.010  0.00  0.00    +0.122 C 
ATOM     14  C   UNL     1      38.310 -25.127 -14.532  0.00  0.00    +0.127 C 
ATOM     15  C   UNL     1      30.109 -23.075 -13.183  0.00  0.00    +0.049 C 
ATOM     16  H   UNL     1      38.731 -21.844 -16.405  0.00  0.00    +0.160 HD
ATOM     17  H   UNL     1      34.691 -25.528 -13.240  0.00  0.00    +0.156 HD
ATOM     18  H   UNL     1      31.764 -21.400 -14.565  0.00  0.00    +0.174 HD
ENDROOT
BRANCH   2  19
ATOM     19  C   UNL     1      36.794 -20.964 -16.295  0.00  0.00    +0.164 C 
ATOM     20  C   UNL     1      37.507 -19.645 -16.642  0.00  0.00    +0.038 C 
BRANCH  19  24
ATOM     21  F   UNL     1      33.146 -22.490 -20.135  0.00  0.00    -0.205 F 
ATOM     22  N   UNL     1      36.010 -20.903 -18.579  0.00  0.00    -0.193 NA
ATOM     23  N   UNL     1      34.808 -22.184 -16.928  0.00  0.00    -0.215 NA
ATOM     24  C   UNL     1      35.807 -21.377 -17.334  0.00  0.00    +0.026 C 
ATOM     25  C   UNL     1      35.099 -21.296 -19.492  0.00  0.00    +0.136 C 
ATOM     26  C   UNL     1      33.934 -22.538 -17.893  0.00  0.00    +0.194 C 
ATOM     27  C   UNL     1      34.030 -22.120 -19.205  0.00  0.00    +0.163 C 
ENDBRANCH  19  24
ENDBRANCH   2  19
TORSDOF 2
ENDMDL
