MODEL 1
REMARK VINA RESULT:     -11.5      0.000      0.000
REMARK  Name = 131704304
REMARK  10 active torsions:
REMARK  status: ('A' for Active; 'I' for Inactive)
REMARK    1  A    between atoms: N_2  and  C_12
REMARK    2  A    between atoms: N_3  and  C_31
REMARK    3  A    between atoms: C_5  and  O_10
REMARK    4  A    between atoms: C_12  and  C_13
REMARK    5  A    between atoms: C_13  and  N_14
REMARK    6  A    between atoms: N_14  and  C_17
REMARK    7  A    between atoms: C_17  and  C_19
REMARK    8  A    between atoms: C_23  and  N_27
REMARK    9  A    between atoms: C_31  and  C_34
REMARK   10  A    between atoms: C_34  and  C_36
REMARK                            x       y       z     vdW  Elec       q    Type
REMARK                         _______ _______ _______ _____ _____    ______ ____
ROOT
ATOM      1 CL   UNL     1      31.142 -11.096 -21.008  0.00  0.00    -0.064 Cl
ATOM      2  N   UNL     1      32.760 -12.429 -22.651  0.00  0.00    -0.273 N 
ATOM      3  N   UNL     1      34.552 -15.667 -22.202  0.00  0.00    -0.313 N 
ATOM      4  N   UNL     1      33.139 -14.510 -20.744  0.00  0.00    -0.227 NA
ATOM      5  C   UNL     1      33.447 -13.656 -23.083  0.00  0.00    +0.246 C 
ATOM      6  C   UNL     1      32.152 -12.437 -21.399  0.00  0.00    +0.128 C 
ATOM      7  C   UNL     1      33.698 -14.627 -21.921  0.00  0.00    +0.153 C 
ATOM      8  C   UNL     1      32.325 -13.433 -20.524  0.00  0.00    +0.126 C 
ATOM      9  H   UNL     1      34.951 -15.727 -23.101  0.00  0.00    +0.148 HD
ENDROOT
BRANCH   5  10
ATOM     10  O   UNL     1      32.671 -14.363 -24.040  0.00  0.00    -0.362 OA
ATOM     11  H   UNL     1      32.261 -13.732 -24.653  0.00  0.00    +0.213 HD
ENDBRANCH   5  10
BRANCH   2  12
ATOM     12  C   UNL     1      32.660 -11.370 -23.626  0.00  0.00    +0.071 C 
BRANCH  12  13
ATOM     13  C   UNL     1      33.612 -10.241 -23.254  0.00  0.00    -0.060 C 
BRANCH  13  14
ATOM     14  N   UNL     1      32.894  -8.975 -23.172  0.00  0.00    +0.385 N 
ATOM     15  H   UNL     1      32.218  -8.927 -23.935  0.00  0.00    -0.084 HD
ATOM     16  H   UNL     1      32.419  -8.930 -22.270  0.00  0.00    -0.084 HD
BRANCH  14  17
ATOM     17  C   UNL     1      33.806  -7.849 -23.273  0.00  0.00    -0.084 C 
BRANCH  17  19
ATOM     18  N   UNL     1      32.248  -4.448 -22.314  0.00  0.00    +0.375 N 
ATOM     19  C   UNL     1      33.341  -6.693 -22.383  0.00  0.00    -0.041 C 
ATOM     20  C   UNL     1      32.743  -5.519 -23.197  0.00  0.00    -0.067 C 
ATOM     21  C   UNL     1      32.318  -7.213 -21.362  0.00  0.00    -0.008 C 
ATOM     22  C   UNL     1      31.791  -6.073 -20.498  0.00  0.00    -0.043 C 
ATOM     23  C   UNL     1      31.259  -4.901 -21.330  0.00  0.00    -0.135 C 
ATOM     24  C   UNL     1      33.767  -4.889 -24.146  0.00  0.00    -0.024 C 
ATOM     25  H   UNL     1      31.818  -3.727 -22.894  0.00  0.00    -0.087 HD
ATOM     26  H   UNL     1      33.051  -4.099 -21.790  0.00  0.00    -0.087 HD
BRANCH  23  27
ATOM     27  N   UNL     1      29.976  -5.218 -21.956  0.00  0.00    +0.370 N 
ATOM     28  H   UNL     1      29.795  -4.558 -22.712  0.00  0.00    -0.092 HD
ATOM     29  H   UNL     1      29.232  -5.151 -21.261  0.00  0.00    -0.092 HD
ATOM     30  H   UNL     1      30.005  -6.165 -22.332  0.00  0.00    -0.092 HD
ENDBRANCH  23  27
ENDBRANCH  17  19
ENDBRANCH  14  17
ENDBRANCH  13  14
ENDBRANCH  12  13
ENDBRANCH   2  12
BRANCH   3  31
ATOM     31  C   UNL     1      34.880 -16.662 -21.233  0.00  0.00    +0.162 C 
BRANCH  31  34
ATOM     32  F   UNL     1      36.265 -18.100 -22.469  0.00  0.00    -0.196 F 
ATOM     33  F   UNL     1      34.152 -18.076 -22.960  0.00  0.00    -0.196 F 
ATOM     34  C   UNL     1      35.022 -18.026 -21.908  0.00  0.00    +0.316 C 
BRANCH  34  36
ATOM     35  N   UNL     1      35.868 -19.637 -20.287  0.00  0.00    -0.243 NA
ATOM     36  C   UNL     1      34.781 -19.143 -20.921  0.00  0.00    +0.121 C 
ATOM     37  C   UNL     1      33.489 -19.599 -20.715  0.00  0.00    +0.020 C 
ATOM     38  C   UNL     1      33.300 -20.627 -19.799  0.00  0.00    +0.003 C 
ATOM     39  C   UNL     1      35.645 -20.635 -19.403  0.00  0.00    +0.099 C 
ATOM     40  C   UNL     1      34.393 -21.161 -19.126  0.00  0.00    +0.021 C 
ENDBRANCH  34  36
ENDBRANCH  31  34
ENDBRANCH   3  31
TORSDOF 10
ENDMDL
MODEL 2
REMARK VINA RESULT:     -11.1      1.826      2.150
REMARK  Name = 131704304
REMARK  10 active torsions:
REMARK  status: ('A' for Active; 'I' for Inactive)
REMARK    1  A    between atoms: N_2  and  C_12
REMARK    2  A    between atoms: N_3  and  C_31
REMARK    3  A    between atoms: C_5  and  O_10
REMARK    4  A    between atoms: C_12  and  C_13
REMARK    5  A    between atoms: C_13  and  N_14
REMARK    6  A    between atoms: N_14  and  C_17
REMARK    7  A    between atoms: C_17  and  C_19
REMARK    8  A    between atoms: C_23  and  N_27
REMARK    9  A    between atoms: C_31  and  C_34
REMARK   10  A    between atoms: C_34  and  C_36
REMARK                            x       y       z     vdW  Elec       q    Type
REMARK                         _______ _______ _______ _____ _____    ______ ____
ROOT
ATOM      1 CL   UNL     1      32.647 -12.385 -24.463  0.00  0.00    -0.064 Cl
ATOM      2  N   UNL     1      32.714 -13.579 -22.083  0.00  0.00    -0.273 N 
ATOM      3  N   UNL     1      34.675 -16.516 -20.890  0.00  0.00    -0.313 N 
ATOM      4  N   UNL     1      34.627 -15.486 -22.987  0.00  0.00    -0.227 NA
ATOM      5  C   UNL     1      33.352 -14.455 -21.088  0.00  0.00    +0.246 C 
ATOM      6  C   UNL     1      33.230 -13.588 -23.376  0.00  0.00    +0.128 C 
ATOM      7  C   UNL     1      34.253 -15.516 -21.734  0.00  0.00    +0.153 C 
ATOM      8  C   UNL     1      34.143 -14.479 -23.777  0.00  0.00    +0.126 C 
ATOM      9  H   UNL     1      34.380 -16.504 -19.951  0.00  0.00    +0.148 HD
ENDROOT
BRANCH   5  10
ATOM     10  O   UNL     1      34.176 -13.705 -20.206  0.00  0.00    -0.362 OA
ATOM     11  H   UNL     1      35.105 -13.814 -20.461  0.00  0.00    +0.213 HD
ENDBRANCH   5  10
BRANCH   2  12
ATOM     12  C   UNL     1      31.694 -12.684 -21.593  0.00  0.00    +0.071 C 
BRANCH  12  13
ATOM     13  C   UNL     1      32.163 -11.243 -21.745  0.00  0.00    -0.060 C 
BRANCH  13  14
ATOM     14  N   UNL     1      31.181 -10.326 -21.178  0.00  0.00    +0.385 N 
ATOM     15  H   UNL     1      30.353 -10.855 -20.902  0.00  0.00    -0.084 HD
ATOM     16  H   UNL     1      31.598  -9.864 -20.370  0.00  0.00    -0.084 HD
BRANCH  14  17
ATOM     17  C   UNL     1      30.795  -9.311 -22.143  0.00  0.00    -0.084 C 
BRANCH  17  19
ATOM     18  N   UNL     1      31.823  -5.605 -22.491  0.00  0.00    +0.375 N 
ATOM     19  C   UNL     1      31.615  -8.034 -21.946  0.00  0.00    -0.041 C 
ATOM     20  C   UNL     1      31.053  -6.835 -22.748  0.00  0.00    -0.067 C 
ATOM     21  C   UNL     1      31.679  -7.694 -20.448  0.00  0.00    -0.008 C 
ATOM     22  C   UNL     1      32.440  -6.392 -20.222  0.00  0.00    -0.043 C 
ATOM     23  C   UNL     1      31.898  -5.238 -21.072  0.00  0.00    -0.135 C 
ATOM     24  C   UNL     1      31.082  -7.082 -24.259  0.00  0.00    -0.024 C 
ATOM     25  H   UNL     1      31.381  -4.838 -22.998  0.00  0.00    -0.087 HD
ATOM     26  H   UNL     1      32.778  -5.781 -22.804  0.00  0.00    -0.087 HD
BRANCH  23  27
ATOM     27  N   UNL     1      30.615  -4.749 -20.569  0.00  0.00    +0.370 N 
ATOM     28  H   UNL     1      29.913  -5.482 -20.659  0.00  0.00    -0.092 HD
ATOM     29  H   UNL     1      30.327  -3.933 -21.110  0.00  0.00    -0.092 HD
ATOM     30  H   UNL     1      30.712  -4.489 -19.588  0.00  0.00    -0.092 HD
ENDBRANCH  23  27
ENDBRANCH  17  19
ENDBRANCH  14  17
ENDBRANCH  13  14
ENDBRANCH  12  13
ENDBRANCH   2  12
BRANCH   3  31
ATOM     31  C   UNL     1      35.527 -17.572 -21.333  0.00  0.00    +0.162 C 
BRANCH  31  34
ATOM     32  F   UNL     1      35.277 -19.351 -22.845  0.00  0.00    -0.196 F 
ATOM     33  F   UNL     1      33.478 -18.333 -22.188  0.00  0.00    -0.196 F 
ATOM     34  C   UNL     1      34.692 -18.781 -21.750  0.00  0.00    +0.316 C 
BRANCH  34  36
ATOM     35  N   UNL     1      35.695 -20.123 -19.981  0.00  0.00    -0.243 NA
ATOM     36  C   UNL     1      34.555 -19.762 -20.611  0.00  0.00    +0.121 C 
ATOM     37  C   UNL     1      33.298 -20.236 -20.271  0.00  0.00    +0.020 C 
ATOM     38  C   UNL     1      33.205 -21.136 -19.216  0.00  0.00    +0.003 C 
ATOM     39  C   UNL     1      35.566 -20.999 -18.960  0.00  0.00    +0.099 C 
ATOM     40  C   UNL     1      34.356 -21.530 -18.542  0.00  0.00    +0.021 C 
ENDBRANCH  34  36
ENDBRANCH  31  34
ENDBRANCH   3  31
TORSDOF 10
ENDMDL
MODEL 3
REMARK VINA RESULT:     -11.0      1.211      1.928
REMARK  Name = 131704304
REMARK  10 active torsions:
REMARK  status: ('A' for Active; 'I' for Inactive)
REMARK    1  A    between atoms: N_2  and  C_12
REMARK    2  A    between atoms: N_3  and  C_31
REMARK    3  A    between atoms: C_5  and  O_10
REMARK    4  A    between atoms: C_12  and  C_13
REMARK    5  A    between atoms: C_13  and  N_14
REMARK    6  A    between atoms: N_14  and  C_17
REMARK    7  A    between atoms: C_17  and  C_19
REMARK    8  A    between atoms: C_23  and  N_27
REMARK    9  A    between atoms: C_31  and  C_34
REMARK   10  A    between atoms: C_34  and  C_36
REMARK                            x       y       z     vdW  Elec       q    Type
REMARK                         _______ _______ _______ _____ _____    ______ ____
ROOT
ATOM      1 CL   UNL     1      32.049 -11.764 -20.346  0.00  0.00    -0.064 Cl
ATOM      2  N   UNL     1      33.404 -12.972 -22.294  0.00  0.00    -0.273 N 
ATOM      3  N   UNL     1      35.020 -16.330 -22.411  0.00  0.00    -0.313 N 
ATOM      4  N   UNL     1      33.838 -15.284 -20.688  0.00  0.00    -0.227 NA
ATOM      5  C   UNL     1      33.964 -14.173 -22.933  0.00  0.00    +0.246 C 
ATOM      6  C   UNL     1      32.925 -13.098 -20.993  0.00  0.00    +0.128 C 
ATOM      7  C   UNL     1      34.267 -15.287 -21.923  0.00  0.00    +0.153 C 
ATOM      8  C   UNL     1      33.121 -14.200 -20.260  0.00  0.00    +0.126 C 
ATOM      9  H   UNL     1      35.322 -16.302 -23.349  0.00  0.00    +0.148 HD
ENDROOT
BRANCH   5  10
ATOM     10  O   UNL     1      33.052 -14.718 -23.877  0.00  0.00    -0.362 OA
ATOM     11  H   UNL     1      32.151 -14.670 -23.520  0.00  0.00    +0.213 HD
ENDBRANCH   5  10
BRANCH   2  12
ATOM     12  C   UNL     1      33.275 -11.800 -23.125  0.00  0.00    +0.071 C 
BRANCH  12  13
ATOM     13  C   UNL     1      31.880 -11.210 -22.964  0.00  0.00    -0.060 C 
BRANCH  13  14
ATOM     14  N   UNL     1      31.913  -9.766 -23.163  0.00  0.00    +0.385 N 
ATOM     15  H   UNL     1      32.820  -9.409 -22.863  0.00  0.00    -0.084 HD
ATOM     16  H   UNL     1      31.761  -9.572 -24.154  0.00  0.00    -0.084 HD
BRANCH  14  17
ATOM     17  C   UNL     1      30.868  -9.109 -22.398  0.00  0.00    -0.084 C 
BRANCH  17  19
ATOM     18  N   UNL     1      32.371  -5.628 -21.667  0.00  0.00    +0.375 N 
ATOM     19  C   UNL     1      31.033  -7.588 -22.446  0.00  0.00    -0.041 C 
ATOM     20  C   UNL     1      32.195  -7.087 -21.554  0.00  0.00    -0.067 C 
ATOM     21  C   UNL     1      31.243  -7.143 -23.901  0.00  0.00    -0.008 C 
ATOM     22  C   UNL     1      31.470  -5.637 -23.977  0.00  0.00    -0.043 C 
ATOM     23  C   UNL     1      32.587  -5.162 -23.041  0.00  0.00    -0.135 C 
ATOM     24  C   UNL     1      31.969  -7.404 -20.073  0.00  0.00    -0.024 C 
ATOM     25  H   UNL     1      33.178  -5.358 -21.105  0.00  0.00    -0.087 HD
ATOM     26  H   UNL     1      31.506  -5.198 -21.339  0.00  0.00    -0.087 HD
BRANCH  23  27
ATOM     27  N   UNL     1      33.910  -5.536 -23.540  0.00  0.00    +0.370 N 
ATOM     28  H   UNL     1      33.817  -5.964 -24.461  0.00  0.00    -0.092 HD
ATOM     29  H   UNL     1      34.340  -6.202 -22.898  0.00  0.00    -0.092 HD
ATOM     30  H   UNL     1      34.495  -4.704 -23.609  0.00  0.00    -0.092 HD
ENDBRANCH  23  27
ENDBRANCH  17  19
ENDBRANCH  14  17
ENDBRANCH  13  14
ENDBRANCH  12  13
ENDBRANCH   2  12
BRANCH   3  31
ATOM     31  C   UNL     1      35.379 -17.449 -21.603  0.00  0.00    +0.162 C 
BRANCH  31  34
ATOM     32  F   UNL     1      35.463 -19.305 -23.039  0.00  0.00    -0.196 F 
ATOM     33  F   UNL     1      33.545 -18.325 -22.778  0.00  0.00    -0.196 F 
ATOM     34  C   UNL     1      34.669 -18.707 -22.102  0.00  0.00    +0.316 C 
BRANCH  34  36
ATOM     35  N   UNL     1      35.405 -20.185 -20.310  0.00  0.00    -0.243 NA
ATOM     36  C   UNL     1      34.351 -19.638 -20.956  0.00  0.00    +0.121 C 
ATOM     37  C   UNL     1      33.027 -19.882 -20.628  0.00  0.00    +0.020 C 
ATOM     38  C   UNL     1      32.768 -20.742 -19.567  0.00  0.00    +0.003 C 
ATOM     39  C   UNL     1      35.113 -21.016 -19.284  0.00  0.00    +0.099 C 
ATOM     40  C   UNL     1      33.826 -21.324 -18.877  0.00  0.00    +0.021 C 
ENDBRANCH  34  36
ENDBRANCH  31  34
ENDBRANCH   3  31
TORSDOF 10
ENDMDL
MODEL 4
REMARK VINA RESULT:     -10.9      6.167     13.491
REMARK  Name = 131704304
REMARK  10 active torsions:
REMARK  status: ('A' for Active; 'I' for Inactive)
REMARK    1  A    between atoms: N_2  and  C_12
REMARK    2  A    between atoms: N_3  and  C_31
REMARK    3  A    between atoms: C_5  and  O_10
REMARK    4  A    between atoms: C_12  and  C_13
REMARK    5  A    between atoms: C_13  and  N_14
REMARK    6  A    between atoms: N_14  and  C_17
REMARK    7  A    between atoms: C_17  and  C_19
REMARK    8  A    between atoms: C_23  and  N_27
REMARK    9  A    between atoms: C_31  and  C_34
REMARK   10  A    between atoms: C_34  and  C_36
REMARK                            x       y       z     vdW  Elec       q    Type
REMARK                         _______ _______ _______ _____ _____    ______ ____
ROOT
ATOM      1 CL   UNL     1      31.036 -22.254 -16.985  0.00  0.00    -0.064 Cl
ATOM      2  N   UNL     1      33.494 -22.270 -18.011  0.00  0.00    -0.273 N 
ATOM      3  N   UNL     1      35.013 -20.204 -20.718  0.00  0.00    -0.313 N 
ATOM      4  N   UNL     1      32.849 -20.179 -19.835  0.00  0.00    -0.227 NA
ATOM      5  C   UNL     1      34.587 -21.644 -18.772  0.00  0.00    +0.246 C 
ATOM      6  C   UNL     1      32.240 -21.668 -18.069  0.00  0.00    +0.128 C 
ATOM      7  C   UNL     1      34.076 -20.633 -19.807  0.00  0.00    +0.153 C 
ATOM      8  C   UNL     1      31.962 -20.673 -18.919  0.00  0.00    +0.126 C 
ATOM      9  H   UNL     1      35.929 -20.563 -20.664  0.00  0.00    +0.148 HD
ENDROOT
BRANCH   5  10
ATOM     10  O   UNL     1      35.464 -20.932 -17.910  0.00  0.00    -0.362 OA
ATOM     11  H   UNL     1      36.245 -21.476 -17.723  0.00  0.00    +0.213 HD
ENDBRANCH   5  10
BRANCH   2  12
ATOM     12  C   UNL     1      33.854 -23.377 -17.159  0.00  0.00    +0.071 C 
BRANCH  12  13
ATOM     13  C   UNL     1      34.203 -22.860 -15.769  0.00  0.00    -0.060 C 
BRANCH  13  14
ATOM     14  N   UNL     1      35.650 -22.811 -15.594  0.00  0.00    +0.385 N 
ATOM     15  H   UNL     1      36.017 -23.763 -15.586  0.00  0.00    -0.084 HD
ATOM     16  H   UNL     1      36.052 -22.278 -16.366  0.00  0.00    -0.084 HD
BRANCH  14  17
ATOM     17  C   UNL     1      36.003 -22.155 -14.347  0.00  0.00    -0.084 C 
BRANCH  17  19
ATOM     18  N   UNL     1      36.453 -25.000 -11.774  0.00  0.00    +0.375 N 
ATOM     19  C   UNL     1      36.719 -23.127 -13.406  0.00  0.00    -0.041 C 
ATOM     20  C   UNL     1      35.736 -24.033 -12.625  0.00  0.00    -0.067 C 
ATOM     21  C   UNL     1      37.711 -23.981 -14.211  0.00  0.00    -0.008 C 
ATOM     22  C   UNL     1      38.399 -25.002 -13.311  0.00  0.00    -0.043 C 
ATOM     23  C   UNL     1      37.402 -25.844 -12.507  0.00  0.00    -0.135 C 
ATOM     24  C   UNL     1      34.803 -23.229 -11.714  0.00  0.00    -0.024 C 
ATOM     25  H   UNL     1      35.764 -25.605 -11.326  0.00  0.00    -0.087 HD
ATOM     26  H   UNL     1      36.994 -24.459 -11.101  0.00  0.00    -0.087 HD
BRANCH  23  27
ATOM     27  N   UNL     1      36.719 -26.826 -13.349  0.00  0.00    +0.370 N 
ATOM     28  H   UNL     1      35.710 -26.726 -13.237  0.00  0.00    -0.092 HD
ATOM     29  H   UNL     1      36.999 -27.767 -13.070  0.00  0.00    -0.092 HD
ATOM     30  H   UNL     1      36.970 -26.671 -14.325  0.00  0.00    -0.092 HD
ENDBRANCH  23  27
ENDBRANCH  17  19
ENDBRANCH  14  17
ENDBRANCH  13  14
ENDBRANCH  12  13
ENDBRANCH   2  12
BRANCH   3  31
ATOM     31  C   UNL     1      34.701 -19.257 -21.738  0.00  0.00    +0.162 C 
BRANCH  31  34
ATOM     32  F   UNL     1      36.567 -18.254 -22.750  0.00  0.00    -0.196 F 
ATOM     33  F   UNL     1      36.468 -18.230 -20.583  0.00  0.00    -0.196 F 
ATOM     34  C   UNL     1      35.700 -18.101 -21.706  0.00  0.00    +0.316 C 
BRANCH  34  36
ATOM     35  N   UNL     1      34.578 -16.259 -20.573  0.00  0.00    -0.243 NA
ATOM     36  C   UNL     1      34.988 -16.771 -21.754  0.00  0.00    +0.121 C 
ATOM     37  C   UNL     1      34.792 -16.151 -22.978  0.00  0.00    +0.020 C 
ATOM     38  C   UNL     1      34.134 -14.926 -22.989  0.00  0.00    +0.003 C 
ATOM     39  C   UNL     1      33.943 -15.067 -20.623  0.00  0.00    +0.099 C 
ATOM     40  C   UNL     1      33.699 -14.367 -21.793  0.00  0.00    +0.021 C 
ENDBRANCH  34  36
ENDBRANCH  31  34
ENDBRANCH   3  31
TORSDOF 10
ENDMDL
MODEL 5
REMARK VINA RESULT:     -10.9      3.911     10.845
REMARK  Name = 131704304
REMARK  10 active torsions:
REMARK  status: ('A' for Active; 'I' for Inactive)
REMARK    1  A    between atoms: N_2  and  C_12
REMARK    2  A    between atoms: N_3  and  C_31
REMARK    3  A    between atoms: C_5  and  O_10
REMARK    4  A    between atoms: C_12  and  C_13
REMARK    5  A    between atoms: C_13  and  N_14
REMARK    6  A    between atoms: N_14  and  C_17
REMARK    7  A    between atoms: C_17  and  C_19
REMARK    8  A    between atoms: C_23  and  N_27
REMARK    9  A    between atoms: C_31  and  C_34
REMARK   10  A    between atoms: C_34  and  C_36
REMARK                            x       y       z     vdW  Elec       q    Type
REMARK                         _______ _______ _______ _____ _____    ______ ____
ROOT
ATOM      1 CL   UNL     1      32.094 -13.329 -20.615  0.00  0.00    -0.064 Cl
ATOM      2  N   UNL     1      32.590 -11.759 -22.709  0.00  0.00    -0.273 N 
ATOM      3  N   UNL     1      31.305  -8.364 -23.560  0.00  0.00    -0.313 N 
ATOM      4  N   UNL     1      30.853  -9.730 -21.718  0.00  0.00    -0.227 NA
ATOM      5  C   UNL     1      32.597 -10.446 -23.373  0.00  0.00    +0.246 C 
ATOM      6  C   UNL     1      31.891 -11.870 -21.509  0.00  0.00    +0.128 C 
ATOM      7  C   UNL     1      31.520  -9.503 -22.820  0.00  0.00    +0.153 C 
ATOM      8  C   UNL     1      31.096 -10.898 -21.050  0.00  0.00    +0.126 C 
ATOM      9  H   UNL     1      31.830  -8.223 -24.382  0.00  0.00    +0.148 HD
ENDROOT
BRANCH   5  10
ATOM     10  O   UNL     1      33.844  -9.790 -23.187  0.00  0.00    -0.362 OA
ATOM     11  H   UNL     1      34.497 -10.425 -22.853  0.00  0.00    +0.213 HD
ENDBRANCH   5  10
BRANCH   2  12
ATOM     12  C   UNL     1      33.425 -12.781 -23.291  0.00  0.00    +0.071 C 
BRANCH  12  13
ATOM     13  C   UNL     1      32.843 -13.215 -24.630  0.00  0.00    -0.060 C 
BRANCH  13  14
ATOM     14  N   UNL     1      32.649 -14.660 -24.655  0.00  0.00    +0.385 N 
ATOM     15  H   UNL     1      31.999 -14.921 -23.913  0.00  0.00    -0.084 HD
ATOM     16  H   UNL     1      32.275 -14.920 -25.568  0.00  0.00    -0.084 HD
BRANCH  14  17
ATOM     17  C   UNL     1      33.905 -15.360 -24.453  0.00  0.00    -0.084 C 
BRANCH  17  19
ATOM     18  N   UNL     1      34.152 -18.635 -22.422  0.00  0.00    +0.375 N 
ATOM     19  C   UNL     1      33.815 -16.303 -23.250  0.00  0.00    -0.041 C 
ATOM     20  C   UNL     1      34.187 -17.762 -23.609  0.00  0.00    -0.067 C 
ATOM     21  C   UNL     1      34.719 -15.781 -22.123  0.00  0.00    -0.008 C 
ATOM     22  C   UNL     1      34.698 -16.731 -20.930  0.00  0.00    -0.043 C 
ATOM     23  C   UNL     1      35.012 -18.178 -21.325  0.00  0.00    -0.135 C 
ATOM     24  C   UNL     1      33.236 -18.367 -24.646  0.00  0.00    -0.024 C 
ATOM     25  H   UNL     1      34.456 -19.569 -22.701  0.00  0.00    -0.087 HD
ATOM     26  H   UNL     1      33.194 -18.625 -22.073  0.00  0.00    -0.087 HD
BRANCH  23  27
ATOM     27  N   UNL     1      36.430 -18.361 -21.634  0.00  0.00    +0.370 N 
ATOM     28  H   UNL     1      36.985 -18.188 -20.796  0.00  0.00    -0.092 HD
ATOM     29  H   UNL     1      36.706 -17.706 -22.366  0.00  0.00    -0.092 HD
ATOM     30  H   UNL     1      36.588 -19.316 -21.955  0.00  0.00    -0.092 HD
ENDBRANCH  23  27
ENDBRANCH  17  19
ENDBRANCH  14  17
ENDBRANCH  13  14
ENDBRANCH  12  13
ENDBRANCH   2  12
BRANCH   3  31
ATOM     31  C   UNL     1      30.346  -7.380 -23.175  0.00  0.00    +0.162 C 
BRANCH  31  34
ATOM     32  F   UNL     1      31.647  -6.176 -21.637  0.00  0.00    -0.196 F 
ATOM     33  F   UNL     1      30.090  -5.097 -22.694  0.00  0.00    -0.196 F 
ATOM     34  C   UNL     1      31.046  -6.060 -22.857  0.00  0.00    +0.316 C 
BRANCH  34  36
ATOM     35  N   UNL     1      31.644  -5.922 -25.215  0.00  0.00    -0.243 NA
ATOM     36  C   UNL     1      32.034  -5.698 -23.940  0.00  0.00    +0.121 C 
ATOM     37  C   UNL     1      33.264  -5.167 -23.586  0.00  0.00    +0.020 C 
ATOM     38  C   UNL     1      34.150  -4.843 -24.607  0.00  0.00    +0.003 C 
ATOM     39  C   UNL     1      32.533  -5.594 -26.180  0.00  0.00    +0.099 C 
ATOM     40  C   UNL     1      33.785  -5.057 -25.931  0.00  0.00    +0.021 C 
ENDBRANCH  34  36
ENDBRANCH  31  34
ENDBRANCH   3  31
TORSDOF 10
ENDMDL
MODEL 6
REMARK VINA RESULT:     -10.9      6.499     12.918
REMARK  Name = 131704304
REMARK  10 active torsions:
REMARK  status: ('A' for Active; 'I' for Inactive)
REMARK    1  A    between atoms: N_2  and  C_12
REMARK    2  A    between atoms: N_3  and  C_31
REMARK    3  A    between atoms: C_5  and  O_10
REMARK    4  A    between atoms: C_12  and  C_13
REMARK    5  A    between atoms: C_13  and  N_14
REMARK    6  A    between atoms: N_14  and  C_17
REMARK    7  A    between atoms: C_17  and  C_19
REMARK    8  A    between atoms: C_23  and  N_27
REMARK    9  A    between atoms: C_31  and  C_34
REMARK   10  A    between atoms: C_34  and  C_36
REMARK                            x       y       z     vdW  Elec       q    Type
REMARK                         _______ _______ _______ _____ _____    ______ ____
ROOT
ATOM      1 CL   UNL     1      35.289 -23.007 -15.311  0.00  0.00    -0.064 Cl
ATOM      2  N   UNL     1      33.983 -22.210 -17.491  0.00  0.00    -0.273 N 
ATOM      3  N   UNL     1      35.024 -19.932 -20.252  0.00  0.00    -0.313 N 
ATOM      4  N   UNL     1      36.184 -20.615 -18.342  0.00  0.00    -0.227 NA
ATOM      5  C   UNL     1      33.947 -21.634 -18.844  0.00  0.00    +0.246 C 
ATOM      6  C   UNL     1      35.178 -22.117 -16.782  0.00  0.00    +0.128 C 
ATOM      7  C   UNL     1      35.130 -20.694 -19.112  0.00  0.00    +0.153 C 
ATOM      8  C   UNL     1      36.209 -21.379 -17.208  0.00  0.00    +0.126 C 
ATOM      9  H   UNL     1      34.218 -20.020 -20.812  0.00  0.00    +0.148 HD
ENDROOT
BRANCH   5  10
ATOM     10  O   UNL     1      34.009 -22.654 -19.832  0.00  0.00    -0.362 OA
ATOM     11  H   UNL     1      34.934 -22.903 -19.983  0.00  0.00    +0.213 HD
ENDBRANCH   5  10
BRANCH   2  12
ATOM     12  C   UNL     1      32.814 -22.944 -17.071  0.00  0.00    +0.071 C 
BRANCH  12  13
ATOM     13  C   UNL     1      31.580 -22.063 -17.211  0.00  0.00    -0.060 C 
BRANCH  13  14
ATOM     14  N   UNL     1      30.368 -22.856 -17.046  0.00  0.00    +0.385 N 
ATOM     15  H   UNL     1      29.889 -22.923 -17.944  0.00  0.00    -0.084 HD
ATOM     16  H   UNL     1      30.630 -23.783 -16.710  0.00  0.00    -0.084 HD
BRANCH  14  17
ATOM     17  C   UNL     1      29.474 -22.248 -16.076  0.00  0.00    -0.084 C 
BRANCH  17  19
ATOM     18  N   UNL     1      30.164 -24.812 -13.271  0.00  0.00    +0.375 N 
ATOM     19  C   UNL     1      29.754 -22.783 -14.669  0.00  0.00    -0.041 C 
ATOM     20  C   UNL     1      29.832 -24.328 -14.623  0.00  0.00    -0.067 C 
ATOM     21  C   UNL     1      31.057 -22.165 -14.138  0.00  0.00    -0.008 C 
ATOM     22  C   UNL     1      31.397 -22.722 -12.760  0.00  0.00    -0.043 C 
ATOM     23  C   UNL     1      31.409 -24.255 -12.732  0.00  0.00    -0.135 C 
ATOM     24  C   UNL     1      28.511 -24.988 -15.031  0.00  0.00    -0.024 C 
ATOM     25  H   UNL     1      30.255 -25.828 -13.307  0.00  0.00    -0.087 HD
ATOM     26  H   UNL     1      29.411 -24.510 -12.654  0.00  0.00    -0.087 HD
BRANCH  23  27
ATOM     27  N   UNL     1      32.586 -24.801 -13.407  0.00  0.00    +0.370 N 
ATOM     28  H   UNL     1      32.544 -25.820 -13.391  0.00  0.00    -0.092 HD
ATOM     29  H   UNL     1      33.429 -24.488 -12.926  0.00  0.00    -0.092 HD
ATOM     30  H   UNL     1      32.605 -24.476 -14.373  0.00  0.00    -0.092 HD
ENDBRANCH  23  27
ENDBRANCH  17  19
ENDBRANCH  14  17
ENDBRANCH  13  14
ENDBRANCH  12  13
ENDBRANCH   2  12
BRANCH   3  31
ATOM     31  C   UNL     1      36.043 -19.016 -20.649  0.00  0.00    +0.162 C 
BRANCH  31  34
ATOM     32  F   UNL     1      34.907 -19.296 -22.685  0.00  0.00    -0.196 F 
ATOM     33  F   UNL     1      36.860 -18.353 -22.748  0.00  0.00    -0.196 F 
ATOM     34  C   UNL     1      35.709 -18.417 -22.015  0.00  0.00    +0.316 C 
BRANCH  34  36
ATOM     35  N   UNL     1      34.726 -16.684 -20.611  0.00  0.00    -0.243 NA
ATOM     36  C   UNL     1      35.059 -17.062 -21.865  0.00  0.00    +0.121 C 
ATOM     37  C   UNL     1      34.838 -16.287 -22.993  0.00  0.00    +0.020 C 
ATOM     38  C   UNL     1      34.239 -15.045 -22.821  0.00  0.00    +0.003 C 
ATOM     39  C   UNL     1      34.147 -15.470 -20.483  0.00  0.00    +0.099 C 
ATOM     40  C   UNL     1      33.884 -14.621 -21.546  0.00  0.00    +0.021 C 
ENDBRANCH  34  36
ENDBRANCH  31  34
ENDBRANCH   3  31
TORSDOF 10
ENDMDL
MODEL 7
REMARK VINA RESULT:     -10.8      5.084      8.430
REMARK  Name = 131704304
REMARK  10 active torsions:
REMARK  status: ('A' for Active; 'I' for Inactive)
REMARK    1  A    between atoms: N_2  and  C_12
REMARK    2  A    between atoms: N_3  and  C_31
REMARK    3  A    between atoms: C_5  and  O_10
REMARK    4  A    between atoms: C_12  and  C_13
REMARK    5  A    between atoms: C_13  and  N_14
REMARK    6  A    between atoms: N_14  and  C_17
REMARK    7  A    between atoms: C_17  and  C_19
REMARK    8  A    between atoms: C_23  and  N_27
REMARK    9  A    between atoms: C_31  and  C_34
REMARK   10  A    between atoms: C_34  and  C_36
REMARK                            x       y       z     vdW  Elec       q    Type
REMARK                         _______ _______ _______ _____ _____    ______ ____
ROOT
ATOM      1 CL   UNL     1      31.729 -20.155 -20.966  0.00  0.00    -0.064 Cl
ATOM      2  N   UNL     1      34.287 -20.192 -20.225  0.00  0.00    -0.273 N 
ATOM      3  N   UNL     1      35.935 -21.717 -17.249  0.00  0.00    -0.313 N 
ATOM      4  N   UNL     1      33.684 -21.690 -17.879  0.00  0.00    -0.227 NA
ATOM      5  C   UNL     1      35.403 -20.745 -19.443  0.00  0.00    +0.246 C 
ATOM      6  C   UNL     1      33.000 -20.606 -19.893  0.00  0.00    +0.128 C 
ATOM      7  C   UNL     1      34.935 -21.408 -18.141  0.00  0.00    +0.153 C 
ATOM      8  C   UNL     1      32.739 -21.327 -18.797  0.00  0.00    +0.126 C 
ATOM      9  H   UNL     1      36.866 -21.495 -17.481  0.00  0.00    +0.148 HD
ENDROOT
BRANCH   5  10
ATOM     10  O   UNL     1      36.095 -21.743 -20.180  0.00  0.00    -0.362 OA
ATOM     11  H   UNL     1      35.502 -22.494 -20.341  0.00  0.00    +0.213 HD
ENDBRANCH   5  10
BRANCH   2  12
ATOM     12  C   UNL     1      34.638 -19.373 -21.360  0.00  0.00    +0.071 C 
BRANCH  12  13
ATOM     13  C   UNL     1      35.662 -18.327 -20.939  0.00  0.00    -0.060 C 
BRANCH  13  14
ATOM     14  N   UNL     1      35.033 -17.016 -20.828  0.00  0.00    +0.385 N 
ATOM     15  H   UNL     1      34.374 -17.028 -20.050  0.00  0.00    -0.084 HD
ATOM     16  H   UNL     1      35.762 -16.320 -20.671  0.00  0.00    -0.084 HD
BRANCH  14  17
ATOM     17  C   UNL     1      34.321 -16.674 -22.048  0.00  0.00    -0.084 C 
BRANCH  17  19
ATOM     18  N   UNL     1      33.321 -13.265 -23.561  0.00  0.00    +0.375 N 
ATOM     19  C   UNL     1      34.296 -15.157 -22.254  0.00  0.00    -0.041 C 
ATOM     20  C   UNL     1      33.376 -14.731 -23.424  0.00  0.00    -0.067 C 
ATOM     21  C   UNL     1      33.858 -14.471 -20.951  0.00  0.00    -0.008 C 
ATOM     22  C   UNL     1      33.764 -12.961 -21.141  0.00  0.00    -0.043 C 
ATOM     23  C   UNL     1      32.895 -12.571 -22.341  0.00  0.00    -0.135 C 
ATOM     24  C   UNL     1      33.846 -15.296 -24.768  0.00  0.00    -0.024 C 
ATOM     25  H   UNL     1      32.664 -13.036 -24.307  0.00  0.00    -0.087 HD
ATOM     26  H   UNL     1      34.269 -12.949 -23.767  0.00  0.00    -0.087 HD
BRANCH  23  27
ATOM     27  N   UNL     1      31.472 -12.774 -22.070  0.00  0.00    +0.370 N 
ATOM     28  H   UNL     1      31.117 -11.993 -21.519  0.00  0.00    -0.092 HD
ATOM     29  H   UNL     1      31.346 -13.642 -21.549  0.00  0.00    -0.092 HD
ATOM     30  H   UNL     1      30.963 -12.829 -22.951  0.00  0.00    -0.092 HD
ENDBRANCH  23  27
ENDBRANCH  17  19
ENDBRANCH  14  17
ENDBRANCH  13  14
ENDBRANCH  12  13
ENDBRANCH   2  12
BRANCH   3  31
ATOM     31  C   UNL     1      35.667 -22.347 -15.997  0.00  0.00    +0.162 C 
BRANCH  31  34
ATOM     32  F   UNL     1      36.994 -21.732 -14.160  0.00  0.00    -0.196 F 
ATOM     33  F   UNL     1      38.008 -22.173 -16.027  0.00  0.00    -0.196 F 
ATOM     34  C   UNL     1      36.971 -22.575 -15.234  0.00  0.00    +0.316 C 
BRANCH  34  36
ATOM     35  N   UNL     1      36.061 -24.832 -15.096  0.00  0.00    -0.243 NA
ATOM     36  C   UNL     1      37.106 -24.021 -14.818  0.00  0.00    +0.121 C 
ATOM     37  C   UNL     1      38.266 -24.439 -14.186  0.00  0.00    +0.020 C 
ATOM     38  C   UNL     1      38.361 -25.776 -13.817  0.00  0.00    +0.003 C 
ATOM     39  C   UNL     1      36.190 -26.125 -14.723  0.00  0.00    +0.099 C 
ATOM     40  C   UNL     1      37.307 -26.641 -14.087  0.00  0.00    +0.021 C 
ENDBRANCH  34  36
ENDBRANCH  31  34
ENDBRANCH   3  31
TORSDOF 10
ENDMDL
MODEL 8
REMARK VINA RESULT:     -10.8      9.080     13.799
REMARK  Name = 131704304
REMARK  10 active torsions:
REMARK  status: ('A' for Active; 'I' for Inactive)
REMARK    1  A    between atoms: N_2  and  C_12
REMARK    2  A    between atoms: N_3  and  C_31
REMARK    3  A    between atoms: C_5  and  O_10
REMARK    4  A    between atoms: C_12  and  C_13
REMARK    5  A    between atoms: C_13  and  N_14
REMARK    6  A    between atoms: N_14  and  C_17
REMARK    7  A    between atoms: C_17  and  C_19
REMARK    8  A    between atoms: C_23  and  N_27
REMARK    9  A    between atoms: C_31  and  C_34
REMARK   10  A    between atoms: C_34  and  C_36
REMARK                            x       y       z     vdW  Elec       q    Type
REMARK                         _______ _______ _______ _____ _____    ______ ____
ROOT
ATOM      1 CL   UNL     1      37.783 -23.948 -12.558  0.00  0.00    -0.064 Cl
ATOM      2  N   UNL     1      35.496 -23.558 -13.867  0.00  0.00    -0.273 N 
ATOM      3  N   UNL     1      34.826 -21.973 -17.173  0.00  0.00    -0.313 N 
ATOM      4  N   UNL     1      36.843 -22.300 -16.039  0.00  0.00    -0.227 NA
ATOM      5  C   UNL     1      34.735 -23.280 -15.094  0.00  0.00    +0.246 C 
ATOM      6  C   UNL     1      36.877 -23.383 -13.910  0.00  0.00    +0.128 C 
ATOM      7  C   UNL     1      35.550 -22.482 -16.121  0.00  0.00    +0.153 C 
ATOM      8  C   UNL     1      37.494 -22.808 -14.949  0.00  0.00    +0.126 C 
ATOM      9  H   UNL     1      33.855 -22.134 -17.206  0.00  0.00    +0.148 HD
ENDROOT
BRANCH   5  10
ATOM     10  O   UNL     1      34.345 -24.486 -15.735  0.00  0.00    -0.362 OA
ATOM     11  H   UNL     1      34.762 -24.537 -16.609  0.00  0.00    +0.213 HD
ENDBRANCH   5  10
BRANCH   2  12
ATOM     12  C   UNL     1      34.758 -24.123 -12.763  0.00  0.00    +0.071 C 
BRANCH  12  13
ATOM     13  C   UNL     1      33.332 -23.588 -12.776  0.00  0.00    -0.060 C 
BRANCH  13  14
ATOM     14  N   UNL     1      32.405 -24.623 -13.220  0.00  0.00    +0.385 N 
ATOM     15  H   UNL     1      32.613 -24.861 -14.190  0.00  0.00    -0.084 HD
ATOM     16  H   UNL     1      32.518 -25.439 -12.618  0.00  0.00    -0.084 HD
BRANCH  14  17
ATOM     17  C   UNL     1      31.029 -24.167 -13.127  0.00  0.00    -0.084 C 
BRANCH  17  19
ATOM     18  N   UNL     1      28.327 -24.045 -15.884  0.00  0.00    +0.375 N 
ATOM     19  C   UNL     1      30.419 -23.992 -14.521  0.00  0.00    -0.041 C 
ATOM     20  C   UNL     1      28.899 -24.280 -14.546  0.00  0.00    -0.067 C 
ATOM     21  C   UNL     1      30.703 -22.569 -15.028  0.00  0.00    -0.008 C 
ATOM     22  C   UNL     1      30.057 -22.343 -16.390  0.00  0.00    -0.043 C 
ATOM     23  C   UNL     1      28.565 -22.692 -16.400  0.00  0.00    -0.135 C 
ATOM     24  C   UNL     1      28.575 -25.728 -14.162  0.00  0.00    -0.024 C 
ATOM     25  H   UNL     1      27.319 -24.196 -15.833  0.00  0.00    -0.087 HD
ATOM     26  H   UNL     1      28.787 -24.693 -16.522  0.00  0.00    -0.087 HD
BRANCH  23  27
ATOM     27  N   UNL     1      27.768 -21.692 -15.691  0.00  0.00    +0.370 N 
ATOM     28  H   UNL     1      26.811 -22.028 -15.591  0.00  0.00    -0.092 HD
ATOM     29  H   UNL     1      27.769 -20.820 -16.219  0.00  0.00    -0.092 HD
ATOM     30  H   UNL     1      28.170 -21.530 -14.767  0.00  0.00    -0.092 HD
ENDBRANCH  23  27
ENDBRANCH  17  19
ENDBRANCH  14  17
ENDBRANCH  13  14
ENDBRANCH  12  13
ENDBRANCH   2  12
BRANCH   3  31
ATOM     31  C   UNL     1      35.437 -21.217 -18.219  0.00  0.00    +0.162 C 
BRANCH  31  34
ATOM     32  F   UNL     1      33.218 -20.829 -18.882  0.00  0.00    -0.196 F 
ATOM     33  F   UNL     1      34.374 -22.256 -20.036  0.00  0.00    -0.196 F 
ATOM     34  C   UNL     1      34.466 -21.057 -19.388  0.00  0.00    +0.316 C 
BRANCH  34  36
ATOM     35  N   UNL     1      36.155 -19.458 -20.114  0.00  0.00    -0.243 NA
ATOM     36  C   UNL     1      34.911 -19.949 -20.311  0.00  0.00    +0.121 C 
ATOM     37  C   UNL     1      34.046 -19.497 -21.295  0.00  0.00    +0.020 C 
ATOM     38  C   UNL     1      34.487 -18.476 -22.130  0.00  0.00    +0.003 C 
ATOM     39  C   UNL     1      36.549 -18.468 -20.945  0.00  0.00    +0.099 C 
ATOM     40  C   UNL     1      35.761 -17.947 -21.958  0.00  0.00    +0.021 C 
ENDBRANCH  34  36
ENDBRANCH  31  34
ENDBRANCH   3  31
TORSDOF 10
ENDMDL
MODEL 9
REMARK VINA RESULT:     -10.6      6.732     13.743
REMARK  Name = 131704304
REMARK  10 active torsions:
REMARK  status: ('A' for Active; 'I' for Inactive)
REMARK    1  A    between atoms: N_2  and  C_12
REMARK    2  A    between atoms: N_3  and  C_31
REMARK    3  A    between atoms: C_5  and  O_10
REMARK    4  A    between atoms: C_12  and  C_13
REMARK    5  A    between atoms: C_13  and  N_14
REMARK    6  A    between atoms: N_14  and  C_17
REMARK    7  A    between atoms: C_17  and  C_19
REMARK    8  A    between atoms: C_23  and  N_27
REMARK    9  A    between atoms: C_31  and  C_34
REMARK   10  A    between atoms: C_34  and  C_36
REMARK                            x       y       z     vdW  Elec       q    Type
REMARK                         _______ _______ _______ _____ _____    ______ ____
ROOT
ATOM      1 CL   UNL     1      36.415 -22.607 -15.583  0.00  0.00    -0.064 Cl
ATOM      2  N   UNL     1      34.392 -22.239 -17.276  0.00  0.00    -0.273 N 
ATOM      3  N   UNL     1      34.142 -20.141 -20.347  0.00  0.00    -0.313 N 
ATOM      4  N   UNL     1      35.927 -20.446 -18.870  0.00  0.00    -0.227 NA
ATOM      5  C   UNL     1      33.849 -21.821 -18.578  0.00  0.00    +0.246 C 
ATOM      6  C   UNL     1      35.712 -21.903 -16.990  0.00  0.00    +0.128 C 
ATOM      7  C   UNL     1      34.718 -20.755 -19.260  0.00  0.00    +0.153 C 
ATOM      8  C   UNL     1      36.425 -21.074 -17.762  0.00  0.00    +0.126 C 
ATOM      9  H   UNL     1      33.232 -20.402 -20.616  0.00  0.00    +0.148 HD
ENDROOT
BRANCH   5  10
ATOM     10  O   UNL     1      33.778 -22.920 -19.475  0.00  0.00    -0.362 OA
ATOM     11  H   UNL     1      34.412 -23.602 -19.202  0.00  0.00    +0.213 HD
ENDBRANCH   5  10
BRANCH   2  12
ATOM     12  C   UNL     1      33.548 -23.084 -16.466  0.00  0.00    +0.071 C 
BRANCH  12  13
ATOM     13  C   UNL     1      32.978 -22.276 -15.307  0.00  0.00    -0.060 C 
BRANCH  13  14
ATOM     14  N   UNL     1      33.333 -22.894 -14.035  0.00  0.00    +0.385 N 
ATOM     15  H   UNL     1      34.030 -22.315 -13.567  0.00  0.00    -0.084 HD
ATOM     16  H   UNL     1      32.489 -22.971 -13.466  0.00  0.00    -0.084 HD
BRANCH  14  17
ATOM     17  C   UNL     1      33.878 -24.226 -14.235  0.00  0.00    -0.084 C 
BRANCH  17  19
ATOM     18  N   UNL     1      37.042 -25.347 -12.326  0.00  0.00    +0.375 N 
ATOM     19  C   UNL     1      34.761 -24.635 -13.053  0.00  0.00    -0.041 C 
ATOM     20  C   UNL     1      36.197 -25.018 -13.488  0.00  0.00    -0.067 C 
ATOM     21  C   UNL     1      34.799 -23.493 -12.025  0.00  0.00    -0.008 C 
ATOM     22  C   UNL     1      35.720 -23.846 -10.861  0.00  0.00    -0.043 C 
ATOM     23  C   UNL     1      37.115 -24.277 -11.325  0.00  0.00    -0.135 C 
ATOM     24  C   UNL     1      36.217 -26.231 -14.422  0.00  0.00    -0.024 C 
ATOM     25  H   UNL     1      37.987 -25.539 -12.661  0.00  0.00    -0.087 HD
ATOM     26  H   UNL     1      36.619 -26.154 -11.869  0.00  0.00    -0.087 HD
BRANCH  23  27
ATOM     27  N   UNL     1      37.905 -23.141 -11.800  0.00  0.00    +0.370 N 
ATOM     28  H   UNL     1      37.741 -22.337 -11.195  0.00  0.00    -0.092 HD
ATOM     29  H   UNL     1      37.630 -22.912 -12.754  0.00  0.00    -0.092 HD
ATOM     30  H   UNL     1      38.895 -23.384 -11.780  0.00  0.00    -0.092 HD
ENDBRANCH  23  27
ENDBRANCH  17  19
ENDBRANCH  14  17
ENDBRANCH  13  14
ENDBRANCH  12  13
ENDBRANCH   2  12
BRANCH   3  31
ATOM     31  C   UNL     1      34.823 -19.136 -21.098  0.00  0.00    +0.162 C 
BRANCH  31  34
ATOM     32  F   UNL     1      32.877 -19.448 -22.376  0.00  0.00    -0.196 F 
ATOM     33  F   UNL     1      34.785 -19.730 -23.369  0.00  0.00    -0.196 F 
ATOM     34  C   UNL     1      34.144 -18.944 -22.454  0.00  0.00    +0.316 C 
BRANCH  34  36
ATOM     35  N   UNL     1      33.832 -17.215 -24.142  0.00  0.00    -0.243 NA
ATOM     36  C   UNL     1      34.148 -17.489 -22.857  0.00  0.00    +0.121 C 
ATOM     37  C   UNL     1      34.466 -16.524 -21.914  0.00  0.00    +0.020 C 
ATOM     38  C   UNL     1      34.459 -15.194 -22.316  0.00  0.00    +0.003 C 
ATOM     39  C   UNL     1      33.835 -15.910 -24.496  0.00  0.00    +0.099 C 
ATOM     40  C   UNL     1      34.138 -14.873 -23.630  0.00  0.00    +0.021 C 
ENDBRANCH  34  36
ENDBRANCH  31  34
ENDBRANCH   3  31
TORSDOF 10
ENDMDL
