MODEL 1
REMARK VINA RESULT:     -13.2      0.000      0.000
REMARK  Name = 3815
REMARK  0 active torsions:
REMARK  status: ('A' for Active; 'I' for Inactive)
REMARK                            x       y       z     vdW  Elec       q    Type
REMARK                         _______ _______ _______ _____ _____    ______ ____
ROOT
ATOM      1  O   UNL     1      30.777 -22.306 -16.964  0.00  0.00    -0.270 OA
ATOM      2  N   UNL     1      37.140 -22.966 -15.521  0.00  0.00    -0.352 N 
ATOM      3  N   UNL     1      36.161 -21.651 -17.775  0.00  0.00    -0.352 N 
ATOM      4  N   UNL     1      31.163 -23.486 -14.972  0.00  0.00    -0.297 N 
ATOM      5  C   UNL     1      33.444 -23.395 -15.001  0.00  0.00    +0.003 A 
ATOM      6  C   UNL     1      34.832 -23.429 -14.867  0.00  0.00    +0.016 A 
ATOM      7  C   UNL     1      33.893 -22.173 -17.022  0.00  0.00    +0.022 A 
ATOM      8  C   UNL     1      35.810 -22.871 -15.750  0.00  0.00    +0.072 A 
ATOM      9  C   UNL     1      32.971 -22.731 -16.136  0.00  0.00    +0.053 A 
ATOM     10  C   UNL     1      35.319 -22.212 -16.880  0.00  0.00    +0.073 A 
ATOM     11  C   UNL     1      32.306 -23.917 -14.190  0.00  0.00    +0.117 C 
ATOM     12  C   UNL     1      35.807 -23.969 -13.914  0.00  0.00    +0.017 A 
ATOM     13  C   UNL     1      33.911 -21.419 -18.286  0.00  0.00    +0.017 A 
ATOM     14  C   UNL     1      37.149 -23.678 -14.329  0.00  0.00    +0.057 A 
ATOM     15  C   UNL     1      35.259 -21.133 -18.692  0.00  0.00    +0.057 A 
ATOM     16  C   UNL     1      31.514 -22.786 -16.124  0.00  0.00    +0.246 C 
ATOM     17  C   UNL     1      35.634 -24.694 -12.711  0.00  0.00    +0.001 C 
ATOM     18  C   UNL     1      32.872 -20.950 -19.126  0.00  0.00    +0.001 C 
ATOM     19  C   UNL     1      38.256 -24.093 -13.575  0.00  0.00    +0.017 C 
ATOM     20  C   UNL     1      35.541 -20.422 -19.869  0.00  0.00    +0.017 C 
ATOM     21  C   UNL     1      36.746 -25.102 -11.967  0.00  0.00    +0.000 C 
ATOM     22  C   UNL     1      33.164 -20.244 -20.297  0.00  0.00    +0.000 C 
ATOM     23  C   UNL     1      38.034 -24.806 -12.395  0.00  0.00    +0.001 C 
ATOM     24  C   UNL     1      34.479 -19.984 -20.661  0.00  0.00    +0.001 C 
ATOM     25  H   UNL     1      37.896 -22.624 -16.052  0.00  0.00    +0.166 HD
ATOM     26  H   UNL     1      37.145 -21.617 -17.777  0.00  0.00    +0.166 HD
ATOM     27  H   UNL     1      30.231 -23.669 -14.714  0.00  0.00    +0.150 HD
ENDROOT
TORSDOF 0
ENDMDL
MODEL 2
REMARK VINA RESULT:     -13.2      2.189      4.780
REMARK  Name = 3815
REMARK  0 active torsions:
REMARK  status: ('A' for Active; 'I' for Inactive)
REMARK                            x       y       z     vdW  Elec       q    Type
REMARK                         _______ _______ _______ _____ _____    ______ ____
ROOT
ATOM      1  O   UNL     1      36.957 -22.280 -16.312  0.00  0.00    -0.270 OA
ATOM      2  N   UNL     1      30.440 -22.708 -16.900  0.00  0.00    -0.352 N 
ATOM      3  N   UNL     1      32.109 -21.419 -18.725  0.00  0.00    -0.352 N 
ATOM      4  N   UNL     1      35.938 -23.451 -14.551  0.00  0.00    -0.297 N 
ATOM      5  C   UNL     1      33.781 -23.276 -15.278  0.00  0.00    +0.003 A 
ATOM      6  C   UNL     1      32.419 -23.261 -15.578  0.00  0.00    +0.016 A 
ATOM      7  C   UNL     1      34.017 -22.030 -17.320  0.00  0.00    +0.022 A 
ATOM      8  C   UNL     1      31.779 -22.662 -16.710  0.00  0.00    +0.072 A 
ATOM      9  C   UNL     1      34.603 -22.626 -16.203  0.00  0.00    +0.053 A 
ATOM     10  C   UNL     1      32.616 -22.016 -17.623  0.00  0.00    +0.073 A 
ATOM     11  C   UNL     1      34.596 -23.843 -14.164  0.00  0.00    +0.117 C 
ATOM     12  C   UNL     1      31.180 -23.767 -14.978  0.00  0.00    +0.017 A 
ATOM     13  C   UNL     1      34.413 -21.268 -18.515  0.00  0.00    +0.017 A 
ATOM     14  C   UNL     1      30.042 -23.424 -15.779  0.00  0.00    +0.057 A 
ATOM     15  C   UNL     1      33.266 -20.930 -19.311  0.00  0.00    +0.057 A 
ATOM     16  C   UNL     1      35.983 -22.734 -15.745  0.00  0.00    +0.246 C 
ATOM     17  C   UNL     1      30.950 -24.502 -13.790  0.00  0.00    +0.001 C 
ATOM     18  C   UNL     1      35.675 -20.834 -18.988  0.00  0.00    +0.001 C 
ATOM     19  C   UNL     1      28.743 -23.801 -15.409  0.00  0.00    +0.017 C 
ATOM     20  C   UNL     1      33.384 -20.202 -20.505  0.00  0.00    +0.017 C 
ATOM     21  C   UNL     1      29.651 -24.873 -13.430  0.00  0.00    +0.000 C 
ATOM     22  C   UNL     1      35.781 -20.108 -20.179  0.00  0.00    +0.000 C 
ATOM     23  C   UNL     1      28.567 -24.526 -14.228  0.00  0.00    +0.001 C 
ATOM     24  C   UNL     1      34.651 -19.798 -20.925  0.00  0.00    +0.001 C 
ATOM     25  H   UNL     1      29.897 -22.336 -17.632  0.00  0.00    +0.166 HD
ATOM     26  H   UNL     1      31.175 -21.351 -19.028  0.00  0.00    +0.166 HD
ATOM     27  H   UNL     1      36.739 -23.671 -14.023  0.00  0.00    +0.150 HD
ENDROOT
TORSDOF 0
ENDMDL
MODEL 3
REMARK VINA RESULT:     -13.0      2.115      6.461
REMARK  Name = 3815
REMARK  0 active torsions:
REMARK  status: ('A' for Active; 'I' for Inactive)
REMARK                            x       y       z     vdW  Elec       q    Type
REMARK                         _______ _______ _______ _____ _____    ______ ____
ROOT
ATOM      1  O   UNL     1      34.323 -24.286 -13.400  0.00  0.00    -0.270 OA
ATOM      2  N   UNL     1      32.084 -21.340 -18.814  0.00  0.00    -0.352 N 
ATOM      3  N   UNL     1      30.476 -22.642 -16.945  0.00  0.00    -0.352 N 
ATOM      4  N   UNL     1      36.018 -23.314 -14.700  0.00  0.00    -0.297 N 
ATOM      5  C   UNL     1      34.690 -22.485 -16.362  0.00  0.00    +0.003 A 
ATOM      6  C   UNL     1      34.027 -21.917 -17.449  0.00  0.00    +0.016 A 
ATOM      7  C   UNL     1      32.492 -23.163 -15.661  0.00  0.00    +0.022 A 
ATOM      8  C   UNL     1      32.621 -21.926 -17.718  0.00  0.00    +0.072 A 
ATOM      9  C   UNL     1      33.868 -23.133 -15.434  0.00  0.00    +0.053 A 
ATOM     10  C   UNL     1      31.816 -22.578 -16.782  0.00  0.00    +0.073 A 
ATOM     11  C   UNL     1      36.118 -22.566 -15.939  0.00  0.00    +0.117 C 
ATOM     12  C   UNL     1      34.387 -21.161 -18.653  0.00  0.00    +0.017 A 
ATOM     13  C   UNL     1      31.269 -23.684 -15.031  0.00  0.00    +0.017 A 
ATOM     14  C   UNL     1      33.224 -20.840 -19.428  0.00  0.00    +0.057 A 
ATOM     15  C   UNL     1      30.110 -23.358 -15.815  0.00  0.00    +0.057 A 
ATOM     16  C   UNL     1      34.711 -23.665 -14.370  0.00  0.00    +0.246 C 
ATOM     17  C   UNL     1      35.642 -20.723 -19.139  0.00  0.00    +0.001 C 
ATOM     18  C   UNL     1      31.054 -24.418 -13.839  0.00  0.00    +0.001 C 
ATOM     19  C   UNL     1      33.317 -20.118 -20.626  0.00  0.00    +0.017 C 
ATOM     20  C   UNL     1      28.820 -23.746 -15.423  0.00  0.00    +0.017 C 
ATOM     21  C   UNL     1      35.723 -20.003 -20.336  0.00  0.00    +0.000 C 
ATOM     22  C   UNL     1      29.764 -24.800 -13.458  0.00  0.00    +0.000 C 
ATOM     23  C   UNL     1      34.578 -19.707 -21.065  0.00  0.00    +0.001 C 
ATOM     24  C   UNL     1      28.664 -24.468 -14.240  0.00  0.00    +0.001 C 
ATOM     25  H   UNL     1      31.143 -21.284 -19.098  0.00  0.00    +0.166 HD
ATOM     26  H   UNL     1      29.913 -22.279 -17.666  0.00  0.00    +0.166 HD
ATOM     27  H   UNL     1      36.797 -23.550 -14.146  0.00  0.00    +0.150 HD
ENDROOT
TORSDOF 0
ENDMDL
MODEL 4
REMARK VINA RESULT:     -13.0      0.952      5.964
REMARK  Name = 3815
REMARK  0 active torsions:
REMARK  status: ('A' for Active; 'I' for Inactive)
REMARK                            x       y       z     vdW  Elec       q    Type
REMARK                         _______ _______ _______ _____ _____    ______ ____
ROOT
ATOM      1  O   UNL     1      32.282 -24.498 -13.180  0.00  0.00    -0.270 OA
ATOM      2  N   UNL     1      36.056 -21.678 -17.743  0.00  0.00    -0.352 N 
ATOM      3  N   UNL     1      37.025 -22.967 -15.469  0.00  0.00    -0.352 N 
ATOM      4  N   UNL     1      31.058 -23.523 -14.930  0.00  0.00    -0.297 N 
ATOM      5  C   UNL     1      32.828 -22.743 -16.143  0.00  0.00    +0.003 A 
ATOM      6  C   UNL     1      33.789 -22.206 -16.998  0.00  0.00    +0.016 A 
ATOM      7  C   UNL     1      34.712 -23.439 -14.823  0.00  0.00    +0.022 A 
ATOM      8  C   UNL     1      35.212 -22.237 -16.845  0.00  0.00    +0.072 A 
ATOM      9  C   UNL     1      33.331 -23.387 -15.009  0.00  0.00    +0.053 A 
ATOM     10  C   UNL     1      35.697 -22.883 -15.705  0.00  0.00    +0.073 A 
ATOM     11  C   UNL     1      31.337 -22.797 -16.154  0.00  0.00    +0.117 C 
ATOM     12  C   UNL     1      33.809 -21.465 -18.264  0.00  0.00    +0.017 A 
ATOM     13  C   UNL     1      35.690 -23.963 -13.855  0.00  0.00    +0.017 A 
ATOM     14  C   UNL     1      35.153 -21.173 -18.669  0.00  0.00    +0.057 A 
ATOM     15  C   UNL     1      37.032 -23.666 -14.271  0.00  0.00    +0.057 A 
ATOM     16  C   UNL     1      32.205 -23.887 -14.229  0.00  0.00    +0.246 C 
ATOM     17  C   UNL     1      32.759 -21.018 -19.100  0.00  0.00    +0.001 C 
ATOM     18  C   UNL     1      35.534 -24.677 -12.643  0.00  0.00    +0.001 C 
ATOM     19  C   UNL     1      35.427 -20.471 -19.852  0.00  0.00    +0.017 C 
ATOM     20  C   UNL     1      38.145 -24.062 -13.513  0.00  0.00    +0.017 C 
ATOM     21  C   UNL     1      33.043 -20.319 -20.278  0.00  0.00    +0.000 C 
ATOM     22  C   UNL     1      36.650 -25.067 -11.895  0.00  0.00    +0.000 C 
ATOM     23  C   UNL     1      34.357 -20.051 -20.644  0.00  0.00    +0.001 C 
ATOM     24  C   UNL     1      37.935 -24.763 -12.325  0.00  0.00    +0.001 C 
ATOM     25  H   UNL     1      37.040 -21.639 -17.741  0.00  0.00    +0.166 HD
ATOM     26  H   UNL     1      37.780 -22.627 -16.000  0.00  0.00    +0.166 HD
ATOM     27  H   UNL     1      30.147 -23.739 -14.624  0.00  0.00    +0.150 HD
ENDROOT
TORSDOF 0
ENDMDL
MODEL 5
REMARK VINA RESULT:     -11.7      1.772      4.627
REMARK  Name = 3815
REMARK  0 active torsions:
REMARK  status: ('A' for Active; 'I' for Inactive)
REMARK                            x       y       z     vdW  Elec       q    Type
REMARK                         _______ _______ _______ _____ _____    ______ ____
ROOT
ATOM      1  O   UNL     1      31.718 -21.698 -18.195  0.00  0.00    -0.270 OA
ATOM      2  N   UNL     1      34.893 -24.691 -13.300  0.00  0.00    -0.352 N 
ATOM      3  N   UNL     1      32.119 -24.613 -13.568  0.00  0.00    -0.352 N 
ATOM      4  N   UNL     1      34.052 -21.519 -18.353  0.00  0.00    -0.297 N 
ATOM      5  C   UNL     1      34.576 -22.696 -16.467  0.00  0.00    +0.003 A 
ATOM      6  C   UNL     1      35.065 -23.384 -15.357  0.00  0.00    +0.016 A 
ATOM      7  C   UNL     1      32.413 -23.307 -15.616  0.00  0.00    +0.022 A 
ATOM      8  C   UNL     1      34.310 -24.052 -14.340  0.00  0.00    +0.072 A 
ATOM      9  C   UNL     1      33.184 -22.668 -16.587  0.00  0.00    +0.053 A 
ATOM     10  C   UNL     1      32.920 -24.013 -14.475  0.00  0.00    +0.073 A 
ATOM     11  C   UNL     1      35.211 -21.959 -17.598  0.00  0.00    +0.117 C 
ATOM     12  C   UNL     1      36.375 -23.704 -14.781  0.00  0.00    +0.017 A 
ATOM     13  C   UNL     1      30.997 -23.554 -15.299  0.00  0.00    +0.017 A 
ATOM     14  C   UNL     1      36.235 -24.470 -13.577  0.00  0.00    +0.057 A 
ATOM     15  C   UNL     1      30.868 -24.322 -14.091  0.00  0.00    +0.057 A 
ATOM     16  C   UNL     1      32.842 -21.917 -17.789  0.00  0.00    +0.246 C 
ATOM     17  C   UNL     1      37.686 -23.387 -15.211  0.00  0.00    +0.001 C 
ATOM     18  C   UNL     1      29.799 -23.179 -15.954  0.00  0.00    +0.001 C 
ATOM     19  C   UNL     1      37.353 -24.896 -12.845  0.00  0.00    +0.017 C 
ATOM     20  C   UNL     1      29.615 -24.687 -13.578  0.00  0.00    +0.017 C 
ATOM     21  C   UNL     1      38.793 -23.818 -14.473  0.00  0.00    +0.000 C 
ATOM     22  C   UNL     1      28.554 -23.547 -15.433  0.00  0.00    +0.000 C 
ATOM     23  C   UNL     1      38.626 -24.560 -13.309  0.00  0.00    +0.001 C 
ATOM     24  C   UNL     1      28.466 -24.291 -14.263  0.00  0.00    +0.001 C 
ATOM     25  H   UNL     1      34.480 -25.179 -12.551  0.00  0.00    +0.166 HD
ATOM     26  H   UNL     1      32.357 -25.119 -12.758  0.00  0.00    +0.166 HD
ATOM     27  H   UNL     1      34.115 -20.992 -19.182  0.00  0.00    +0.150 HD
ENDROOT
TORSDOF 0
ENDMDL
MODEL 6
REMARK VINA RESULT:     -11.4      2.090      6.161
REMARK  Name = 3815
REMARK  0 active torsions:
REMARK  status: ('A' for Active; 'I' for Inactive)
REMARK                            x       y       z     vdW  Elec       q    Type
REMARK                         _______ _______ _______ _____ _____    ______ ____
ROOT
ATOM      1  O   UNL     1      36.345 -21.817 -17.625  0.00  0.00    -0.270 OA
ATOM      2  N   UNL     1      32.145 -24.677 -13.479  0.00  0.00    -0.352 N 
ATOM      3  N   UNL     1      34.919 -24.733 -13.205  0.00  0.00    -0.352 N 
ATOM      4  N   UNL     1      34.096 -21.526 -18.230  0.00  0.00    -0.297 N 
ATOM      5  C   UNL     1      33.162 -22.684 -16.498  0.00  0.00    +0.003 A 
ATOM      6  C   UNL     1      32.436 -23.352 -15.511  0.00  0.00    +0.016 A 
ATOM      7  C   UNL     1      35.089 -23.404 -15.253  0.00  0.00    +0.022 A 
ATOM      8  C   UNL     1      32.948 -24.061 -14.378  0.00  0.00    +0.072 A 
ATOM      9  C   UNL     1      34.551 -22.722 -16.344  0.00  0.00    +0.053 A 
ATOM     10  C   UNL     1      34.338 -24.089 -14.241  0.00  0.00    +0.073 A 
ATOM     11  C   UNL     1      32.793 -21.912 -17.719  0.00  0.00    +0.117 C 
ATOM     12  C   UNL     1      31.026 -23.612 -15.205  0.00  0.00    +0.017 A 
ATOM     13  C   UNL     1      36.403 -23.723 -14.672  0.00  0.00    +0.017 A 
ATOM     14  C   UNL     1      30.893 -24.390 -14.008  0.00  0.00    +0.057 A 
ATOM     15  C   UNL     1      36.260 -24.502 -13.475  0.00  0.00    +0.057 A 
ATOM     16  C   UNL     1      35.154 -21.984 -17.448  0.00  0.00    +0.246 C 
ATOM     17  C   UNL     1      29.839 -23.231 -15.876  0.00  0.00    +0.001 C 
ATOM     18  C   UNL     1      37.721 -23.403 -15.079  0.00  0.00    +0.001 C 
ATOM     19  C   UNL     1      29.637 -24.765 -13.512  0.00  0.00    +0.017 C 
ATOM     20  C   UNL     1      37.372 -24.933 -12.736  0.00  0.00    +0.017 C 
ATOM     21  C   UNL     1      28.591 -23.611 -15.372  0.00  0.00    +0.000 C 
ATOM     22  C   UNL     1      38.823 -23.838 -14.335  0.00  0.00    +0.000 C 
ATOM     23  C   UNL     1      28.494 -24.366 -14.209  0.00  0.00    +0.001 C 
ATOM     24  C   UNL     1      38.649 -24.591 -13.181  0.00  0.00    +0.001 C 
ATOM     25  H   UNL     1      32.382 -25.188 -12.672  0.00  0.00    +0.166 HD
ATOM     26  H   UNL     1      34.505 -25.229 -12.463  0.00  0.00    +0.166 HD
ATOM     27  H   UNL     1      34.219 -20.993 -19.048  0.00  0.00    +0.150 HD
ENDROOT
TORSDOF 0
ENDMDL
MODEL 7
REMARK VINA RESULT:     -11.3      8.185     12.456
REMARK  Name = 3815
REMARK  0 active torsions:
REMARK  status: ('A' for Active; 'I' for Inactive)
REMARK                            x       y       z     vdW  Elec       q    Type
REMARK                         _______ _______ _______ _____ _____    ______ ____
ROOT
ATOM      1  O   UNL     1      33.625 -15.207 -25.866  0.00  0.00    -0.270 OA
ATOM      2  N   UNL     1      32.603 -12.577 -19.946  0.00  0.00    -0.352 N 
ATOM      3  N   UNL     1      33.847 -15.032 -20.389  0.00  0.00    -0.352 N 
ATOM      4  N   UNL     1      32.541 -13.127 -25.946  0.00  0.00    -0.297 N 
ATOM      5  C   UNL     1      32.468 -12.735 -23.698  0.00  0.00    +0.003 A 
ATOM      6  C   UNL     1      32.343 -12.344 -22.365  0.00  0.00    +0.016 A 
ATOM      7  C   UNL     1      33.533 -14.690 -22.792  0.00  0.00    +0.022 A 
ATOM      8  C   UNL     1      32.778 -13.054 -21.200  0.00  0.00    +0.072 A 
ATOM      9  C   UNL     1      33.095 -13.967 -23.902  0.00  0.00    +0.053 A 
ATOM     10  C   UNL     1      33.401 -14.284 -21.423  0.00  0.00    +0.073 A 
ATOM     11  C   UNL     1      32.078 -12.126 -25.002  0.00  0.00    +0.117 C 
ATOM     12  C   UNL     1      31.794 -11.202 -21.626  0.00  0.00    +0.017 A 
ATOM     13  C   UNL     1      34.207 -15.961 -22.483  0.00  0.00    +0.017 A 
ATOM     14  C   UNL     1      31.963 -11.373 -20.213  0.00  0.00    +0.057 A 
ATOM     15  C   UNL     1      34.372 -16.123 -21.065  0.00  0.00    +0.057 A 
ATOM     16  C   UNL     1      33.145 -14.224 -25.336  0.00  0.00    +0.246 C 
ATOM     17  C   UNL     1      31.156 -10.020 -22.073  0.00  0.00    +0.001 C 
ATOM     18  C   UNL     1      34.698 -17.000 -23.310  0.00  0.00    +0.001 C 
ATOM     19  C   UNL     1      31.517 -10.409 -19.298  0.00  0.00    +0.017 C 
ATOM     20  C   UNL     1      34.990 -17.258 -20.518  0.00  0.00    +0.017 C 
ATOM     21  C   UNL     1      30.714  -9.065 -21.152  0.00  0.00    +0.000 C 
ATOM     22  C   UNL     1      35.311 -18.128 -22.754  0.00  0.00    +0.000 C 
ATOM     23  C   UNL     1      30.893  -9.259 -19.788  0.00  0.00    +0.001 C 
ATOM     24  C   UNL     1      35.454 -18.253 -21.378  0.00  0.00    +0.001 C 
ATOM     25  H   UNL     1      32.857 -12.973 -19.082  0.00  0.00    +0.166 HD
ATOM     26  H   UNL     1      33.811 -14.851 -19.423  0.00  0.00    +0.166 HD
ATOM     27  H   UNL     1      32.440 -13.039 -26.921  0.00  0.00    +0.150 HD
ENDROOT
TORSDOF 0
ENDMDL
