MODEL 1
REMARK VINA RESULT:     -11.9      0.000      0.000
REMARK  Name = 5330608
REMARK  5 active torsions:
REMARK  status: ('A' for Active; 'I' for Inactive)
REMARK    1  A    between atoms: C_6  and  C_11
REMARK    2  A    between atoms: C_11  and  C_14
REMARK    3  A    between atoms: N_20  and  C_22
REMARK    4  A    between atoms: C_23  and  S_28
REMARK    5  A    between atoms: S_28  and  N_31
REMARK                            x       y       z     vdW  Elec       q    Type
REMARK                         _______ _______ _______ _____ _____    ______ ____
ROOT
ATOM      1  N   UNL     1      33.493 -14.707 -23.046  0.00  0.00    -0.253 N 
ATOM      2  N   UNL     1      33.328 -12.810 -21.873  0.00  0.00    -0.374 NA
ATOM      3  C   UNL     1      33.626 -14.091 -21.804  0.00  0.00    +0.189 C 
ATOM      4  C   UNL     1      32.995 -12.586 -23.185  0.00  0.00    +0.183 C 
ATOM      5  C   UNL     1      33.088 -13.738 -23.929  0.00  0.00    +0.173 C 
ATOM      6  C   UNL     1      34.135 -16.821 -22.233  0.00  0.00    +0.054 C 
ATOM      7  C   UNL     1      33.743 -16.059 -23.268  0.00  0.00    +0.071 C 
ATOM      8  C   UNL     1      34.042 -14.911 -20.714  0.00  0.00    +0.048 C 
ATOM      9  C   UNL     1      34.287 -16.220 -20.917  0.00  0.00    +0.008 C 
ATOM     10  N   UNL     1      32.627 -11.374 -23.654  0.00  0.00    -0.290 N 
ATOM     11  H   UNL     1      32.421 -11.385 -24.616  0.00  0.00    +0.154 HD
ENDROOT
BRANCH  10  12
ATOM     12  C   UNL     1      32.468 -10.062 -23.058  0.00  0.00    +0.050 C 
ATOM     13  C   UNL     1      32.164  -7.574 -21.926  0.00  0.00    +0.122 C 
ATOM     14  C   UNL     1      31.445  -9.869 -22.159  0.00  0.00    +0.016 C 
ATOM     15  C   UNL     1      33.345  -9.065 -23.416  0.00  0.00    +0.016 C 
ATOM     16  C   UNL     1      31.292  -8.607 -21.585  0.00  0.00    +0.021 C 
ATOM     17  C   UNL     1      33.191  -7.803 -22.842  0.00  0.00    +0.021 C 
BRANCH  13  18
ATOM     18  S   UNL     1      31.973  -5.995 -21.208  0.00  0.00    +0.057 S 
ATOM     19  O   UNL     1      32.760  -5.041 -21.978  0.00  0.00    -0.153 OA
ATOM     20  O   UNL     1      30.552  -5.752 -20.993  0.00  0.00    -0.153 OA
BRANCH  18  21
ATOM     21  N   UNL     1      32.723  -6.233 -19.691  0.00  0.00    -0.203 NA
ATOM     22  H   UNL     1      33.413  -5.498 -19.534  0.00  0.00    +0.144 HD
ATOM     23  H   UNL     1      33.187  -7.142 -19.682  0.00  0.00    +0.144 HD
ENDBRANCH  18  21
ENDBRANCH  13  18
ENDBRANCH  10  12
BRANCH   6  25
ATOM     24  O   UNL     1      34.318 -18.723 -23.591  0.00  0.00    -0.286 OA
ATOM     25  C   UNL     1      34.399 -18.241 -22.461  0.00  0.00    +0.198 C 
BRANCH  25  28
ATOM     26 CL   UNL     1      37.349 -18.222 -21.718  0.00  0.00    -0.082 Cl
ATOM     27 CL   UNL     1      32.158 -19.812 -21.133  0.00  0.00    -0.082 Cl
ATOM     28  C   UNL     1      34.792 -19.103 -21.312  0.00  0.00    +0.060 C 
ATOM     29  C   UNL     1      36.118 -19.141 -20.925  0.00  0.00    +0.062 C 
ATOM     30  C   UNL     1      33.821 -19.843 -20.667  0.00  0.00    +0.062 C 
ATOM     31  C   UNL     1      36.487 -19.949 -19.850  0.00  0.00    +0.012 C 
ATOM     32  C   UNL     1      34.190 -20.652 -19.591  0.00  0.00    +0.012 C 
ATOM     33  C   UNL     1      35.523 -20.705 -19.183  0.00  0.00    +0.002 C 
ENDBRANCH  25  28
ENDBRANCH   6  25
TORSDOF 5
ENDMDL
MODEL 2
REMARK VINA RESULT:     -11.8      0.019      1.663
REMARK  Name = 5330608
REMARK  5 active torsions:
REMARK  status: ('A' for Active; 'I' for Inactive)
REMARK    1  A    between atoms: C_6  and  C_11
REMARK    2  A    between atoms: C_11  and  C_14
REMARK    3  A    between atoms: N_20  and  C_22
REMARK    4  A    between atoms: C_23  and  S_28
REMARK    5  A    between atoms: S_28  and  N_31
REMARK                            x       y       z     vdW  Elec       q    Type
REMARK                         _______ _______ _______ _____ _____    ______ ____
ROOT
ATOM      1  N   UNL     1      33.498 -14.717 -23.054  0.00  0.00    -0.253 N 
ATOM      2  N   UNL     1      33.332 -12.817 -21.884  0.00  0.00    -0.374 NA
ATOM      3  C   UNL     1      33.628 -14.099 -21.812  0.00  0.00    +0.189 C 
ATOM      4  C   UNL     1      33.003 -12.595 -23.197  0.00  0.00    +0.183 C 
ATOM      5  C   UNL     1      33.097 -13.749 -23.940  0.00  0.00    +0.173 C 
ATOM      6  C   UNL     1      34.135 -16.831 -22.236  0.00  0.00    +0.054 C 
ATOM      7  C   UNL     1      33.747 -16.069 -23.273  0.00  0.00    +0.071 C 
ATOM      8  C   UNL     1      34.039 -14.918 -20.720  0.00  0.00    +0.048 C 
ATOM      9  C   UNL     1      34.283 -16.227 -20.920  0.00  0.00    +0.008 C 
ATOM     10  N   UNL     1      32.639 -11.384 -23.669  0.00  0.00    -0.290 N 
ATOM     11  H   UNL     1      32.435 -11.395 -24.631  0.00  0.00    +0.154 HD
ENDROOT
BRANCH  10  12
ATOM     12  C   UNL     1      32.479 -10.070 -23.075  0.00  0.00    +0.050 C 
ATOM     13  C   UNL     1      32.175  -7.580 -21.948  0.00  0.00    +0.122 C 
ATOM     14  C   UNL     1      31.449  -9.872 -22.186  0.00  0.00    +0.016 C 
ATOM     15  C   UNL     1      33.364  -9.078 -23.426  0.00  0.00    +0.016 C 
ATOM     16  C   UNL     1      31.295  -8.609 -21.615  0.00  0.00    +0.021 C 
ATOM     17  C   UNL     1      33.210  -7.815 -22.854  0.00  0.00    +0.021 C 
BRANCH  13  18
ATOM     18  S   UNL     1      31.984  -6.000 -21.233  0.00  0.00    +0.057 S 
ATOM     19  O   UNL     1      32.783  -5.050 -21.996  0.00  0.00    -0.153 OA
ATOM     20  O   UNL     1      30.562  -5.751 -21.032  0.00  0.00    -0.153 OA
BRANCH  18  21
ATOM     21  N   UNL     1      32.719  -6.240 -19.709  0.00  0.00    -0.203 NA
ATOM     22  H   UNL     1      33.173  -5.377 -19.410  0.00  0.00    +0.144 HD
ATOM     23  H   UNL     1      33.414  -6.983 -19.781  0.00  0.00    +0.144 HD
ENDBRANCH  18  21
ENDBRANCH  13  18
ENDBRANCH  10  12
BRANCH   6  25
ATOM     24  O   UNL     1      34.314 -18.735 -23.590  0.00  0.00    -0.286 OA
ATOM     25  C   UNL     1      34.397 -18.252 -22.460  0.00  0.00    +0.198 C 
BRANCH  25  28
ATOM     26 CL   UNL     1      32.158 -19.825 -21.130  0.00  0.00    -0.082 Cl
ATOM     27 CL   UNL     1      37.346 -18.227 -21.719  0.00  0.00    -0.082 Cl
ATOM     28  C   UNL     1      34.791 -19.110 -21.311  0.00  0.00    +0.060 C 
ATOM     29  C   UNL     1      33.821 -19.850 -20.661  0.00  0.00    +0.062 C 
ATOM     30  C   UNL     1      36.117 -19.143 -20.922  0.00  0.00    +0.062 C 
ATOM     31  C   UNL     1      34.191 -20.653 -19.582  0.00  0.00    +0.012 C 
ATOM     32  C   UNL     1      36.487 -19.946 -19.843  0.00  0.00    +0.012 C 
ATOM     33  C   UNL     1      35.524 -20.701 -19.173  0.00  0.00    +0.002 C 
ENDBRANCH  25  28
ENDBRANCH   6  25
TORSDOF 5
ENDMDL
MODEL 3
REMARK VINA RESULT:     -11.3      4.686     10.740
REMARK  Name = 5330608
REMARK  5 active torsions:
REMARK  status: ('A' for Active; 'I' for Inactive)
REMARK    1  A    between atoms: C_6  and  C_11
REMARK    2  A    between atoms: C_11  and  C_14
REMARK    3  A    between atoms: N_20  and  C_22
REMARK    4  A    between atoms: C_23  and  S_28
REMARK    5  A    between atoms: S_28  and  N_31
REMARK                            x       y       z     vdW  Elec       q    Type
REMARK                         _______ _______ _______ _____ _____    ______ ____
ROOT
ATOM      1  N   UNL     1      32.520 -10.891 -23.184  0.00  0.00    -0.253 N 
ATOM      2  N   UNL     1      32.514 -12.835 -22.078  0.00  0.00    -0.374 NA
ATOM      3  C   UNL     1      32.003 -11.622 -22.116  0.00  0.00    +0.189 C 
ATOM      4  C   UNL     1      33.379 -12.897 -23.140  0.00  0.00    +0.183 C 
ATOM      5  C   UNL     1      33.402 -11.713 -23.838  0.00  0.00    +0.173 C 
ATOM      6  C   UNL     1      31.259  -8.969 -22.672  0.00  0.00    +0.054 C 
ATOM      7  C   UNL     1      32.157  -9.577 -23.467  0.00  0.00    +0.071 C 
ATOM      8  C   UNL     1      31.052 -10.965 -21.281  0.00  0.00    +0.048 C 
ATOM      9  C   UNL     1      30.693  -9.694 -21.545  0.00  0.00    +0.008 C 
ATOM     10  N   UNL     1      34.103 -13.999 -23.436  0.00  0.00    -0.290 N 
ATOM     11  H   UNL     1      34.674 -13.877 -24.227  0.00  0.00    +0.154 HD
ENDROOT
BRANCH  10  12
ATOM     12  C   UNL     1      34.226 -15.318 -22.848  0.00  0.00    +0.050 C 
ATOM     13  C   UNL     1      34.460 -17.822 -21.734  0.00  0.00    +0.122 C 
ATOM     14  C   UNL     1      34.208 -16.413 -23.680  0.00  0.00    +0.016 C 
ATOM     15  C   UNL     1      34.355 -15.421 -21.483  0.00  0.00    +0.016 C 
ATOM     16  C   UNL     1      34.327 -17.683 -23.115  0.00  0.00    +0.021 C 
ATOM     17  C   UNL     1      34.474 -16.691 -20.918  0.00  0.00    +0.021 C 
BRANCH  13  18
ATOM     18  S   UNL     1      34.610 -19.411 -21.027  0.00  0.00    +0.057 S 
ATOM     19  O   UNL     1      33.469 -19.631 -20.148  0.00  0.00    -0.153 OA
ATOM     20  O   UNL     1      34.900 -20.365 -22.088  0.00  0.00    -0.153 OA
BRANCH  18  21
ATOM     21  N   UNL     1      36.012 -19.211 -20.071  0.00  0.00    -0.203 NA
ATOM     22  H   UNL     1      35.874 -18.437 -19.421  0.00  0.00    +0.144 HD
ATOM     23  H   UNL     1      36.808 -19.010 -20.675  0.00  0.00    +0.144 HD
ENDBRANCH  18  21
ENDBRANCH  13  18
ENDBRANCH  10  12
BRANCH   6  25
ATOM     24  O   UNL     1      29.735  -7.190 -22.730  0.00  0.00    -0.286 OA
ATOM     25  C   UNL     1      30.876  -7.589 -22.965  0.00  0.00    +0.198 C 
BRANCH  25  28
ATOM     26 CL   UNL     1      30.690  -7.054 -25.954  0.00  0.00    -0.082 Cl
ATOM     27 CL   UNL     1      32.885  -6.439 -20.992  0.00  0.00    -0.082 Cl
ATOM     28  C   UNL     1      31.889  -6.655 -23.529  0.00  0.00    +0.060 C 
ATOM     29  C   UNL     1      31.861  -6.371 -24.881  0.00  0.00    +0.062 C 
ATOM     30  C   UNL     1      32.831  -6.099 -22.685  0.00  0.00    +0.062 C 
ATOM     31  C   UNL     1      32.811  -5.498 -25.410  0.00  0.00    +0.012 C 
ATOM     32  C   UNL     1      33.781  -5.225 -23.214  0.00  0.00    +0.012 C 
ATOM     33  C   UNL     1      33.771  -4.925 -24.576  0.00  0.00    +0.002 C 
ENDBRANCH  25  28
ENDBRANCH   6  25
TORSDOF 5
ENDMDL
MODEL 4
REMARK VINA RESULT:     -11.3      4.687     10.690
REMARK  Name = 5330608
REMARK  5 active torsions:
REMARK  status: ('A' for Active; 'I' for Inactive)
REMARK    1  A    between atoms: C_6  and  C_11
REMARK    2  A    between atoms: C_11  and  C_14
REMARK    3  A    between atoms: N_20  and  C_22
REMARK    4  A    between atoms: C_23  and  S_28
REMARK    5  A    between atoms: S_28  and  N_31
REMARK                            x       y       z     vdW  Elec       q    Type
REMARK                         _______ _______ _______ _____ _____    ______ ____
ROOT
ATOM      1  N   UNL     1      32.521 -10.888 -23.185  0.00  0.00    -0.253 N 
ATOM      2  N   UNL     1      32.513 -12.836 -22.085  0.00  0.00    -0.374 NA
ATOM      3  C   UNL     1      32.003 -11.622 -22.121  0.00  0.00    +0.189 C 
ATOM      4  C   UNL     1      33.380 -12.895 -23.146  0.00  0.00    +0.183 C 
ATOM      5  C   UNL     1      33.404 -11.708 -23.841  0.00  0.00    +0.173 C 
ATOM      6  C   UNL     1      31.261  -8.967 -22.670  0.00  0.00    +0.054 C 
ATOM      7  C   UNL     1      32.159  -9.573 -23.465  0.00  0.00    +0.071 C 
ATOM      8  C   UNL     1      31.051 -10.968 -21.284  0.00  0.00    +0.048 C 
ATOM      9  C   UNL     1      30.693  -9.696 -21.545  0.00  0.00    +0.008 C 
ATOM     10  N   UNL     1      34.103 -13.995 -23.445  0.00  0.00    -0.290 N 
ATOM     11  H   UNL     1      34.676 -13.872 -24.235  0.00  0.00    +0.154 HD
ENDROOT
BRANCH  10  12
ATOM     12  C   UNL     1      34.226 -15.317 -22.861  0.00  0.00    +0.050 C 
ATOM     13  C   UNL     1      34.458 -17.823 -21.753  0.00  0.00    +0.122 C 
ATOM     14  C   UNL     1      34.350 -15.424 -21.495  0.00  0.00    +0.016 C 
ATOM     15  C   UNL     1      34.213 -16.409 -23.697  0.00  0.00    +0.016 C 
ATOM     16  C   UNL     1      34.467 -16.695 -20.934  0.00  0.00    +0.021 C 
ATOM     17  C   UNL     1      34.331 -17.680 -23.135  0.00  0.00    +0.021 C 
BRANCH  13  18
ATOM     18  S   UNL     1      34.605 -19.414 -21.050  0.00  0.00    +0.057 S 
ATOM     19  O   UNL     1      33.456 -19.641 -20.182  0.00  0.00    -0.153 OA
ATOM     20  O   UNL     1      34.906 -20.364 -22.112  0.00  0.00    -0.153 OA
BRANCH  18  21
ATOM     21  N   UNL     1      35.997 -19.216 -20.080  0.00  0.00    -0.203 NA
ATOM     22  H   UNL     1      36.758 -18.845 -20.649  0.00  0.00    +0.144 HD
ATOM     23  H   UNL     1      36.273 -20.119 -19.693  0.00  0.00    +0.144 HD
ENDBRANCH  18  21
ENDBRANCH  13  18
ENDBRANCH  10  12
BRANCH   6  25
ATOM     24  O   UNL     1      29.736  -7.188 -22.725  0.00  0.00    -0.286 OA
ATOM     25  C   UNL     1      30.878  -7.586 -22.958  0.00  0.00    +0.198 C 
BRANCH  25  28
ATOM     26 CL   UNL     1      32.879  -6.438 -20.975  0.00  0.00    -0.082 Cl
ATOM     27 CL   UNL     1      30.706  -7.048 -25.947  0.00  0.00    -0.082 Cl
ATOM     28  C   UNL     1      31.892  -6.650 -23.516  0.00  0.00    +0.060 C 
ATOM     29  C   UNL     1      32.829  -6.092 -22.667  0.00  0.00    +0.062 C 
ATOM     30  C   UNL     1      31.868  -6.363 -24.867  0.00  0.00    +0.062 C 
ATOM     31  C   UNL     1      33.778  -5.213 -23.190  0.00  0.00    +0.012 C 
ATOM     32  C   UNL     1      32.817  -5.484 -25.390  0.00  0.00    +0.012 C 
ATOM     33  C   UNL     1      33.772  -4.910 -24.551  0.00  0.00    +0.002 C 
ENDBRANCH  25  28
ENDBRANCH   6  25
TORSDOF 5
ENDMDL
MODEL 5
REMARK VINA RESULT:     -11.2      6.432      9.709
REMARK  Name = 5330608
REMARK  5 active torsions:
REMARK  status: ('A' for Active; 'I' for Inactive)
REMARK    1  A    between atoms: C_6  and  C_11
REMARK    2  A    between atoms: C_11  and  C_14
REMARK    3  A    between atoms: N_20  and  C_22
REMARK    4  A    between atoms: C_23  and  S_28
REMARK    5  A    between atoms: S_28  and  N_31
REMARK                            x       y       z     vdW  Elec       q    Type
REMARK                         _______ _______ _______ _____ _____    ______ ____
ROOT
ATOM      1  N   UNL     1      35.297 -21.909 -17.353  0.00  0.00    -0.253 N 
ATOM      2  N   UNL     1      34.134 -20.889 -18.968  0.00  0.00    -0.374 NA
ATOM      3  C   UNL     1      34.053 -21.721 -17.950  0.00  0.00    +0.189 C 
ATOM      4  C   UNL     1      35.455 -20.528 -19.036  0.00  0.00    +0.183 C 
ATOM      5  C   UNL     1      36.194 -21.141 -18.052  0.00  0.00    +0.173 C 
ATOM      6  C   UNL     1      34.462 -23.398 -15.732  0.00  0.00    +0.054 C 
ATOM      7  C   UNL     1      35.509 -22.737 -16.253  0.00  0.00    +0.071 C 
ATOM      8  C   UNL     1      32.950 -22.429 -17.387  0.00  0.00    +0.048 C 
ATOM      9  C   UNL     1      33.143 -23.232 -16.324  0.00  0.00    +0.008 C 
ATOM     10  N   UNL     1      35.936 -19.673 -19.964  0.00  0.00    -0.290 N 
ATOM     11  H   UNL     1      36.904 -19.520 -19.875  0.00  0.00    +0.154 HD
ENDROOT
BRANCH  10  12
ATOM     12  C   UNL     1      35.347 -18.932 -21.062  0.00  0.00    +0.050 C 
ATOM     13  C   UNL     1      34.230 -17.525 -23.145  0.00  0.00    +0.122 C 
ATOM     14  C   UNL     1      35.454 -17.560 -21.062  0.00  0.00    +0.016 C 
ATOM     15  C   UNL     1      34.706 -19.630 -22.058  0.00  0.00    +0.016 C 
ATOM     16  C   UNL     1      34.888 -16.847 -22.119  0.00  0.00    +0.021 C 
ATOM     17  C   UNL     1      34.139 -18.917 -23.115  0.00  0.00    +0.021 C 
BRANCH  13  18
ATOM     18  S   UNL     1      33.522 -16.633 -24.468  0.00  0.00    +0.057 S 
ATOM     19  O   UNL     1      34.590 -16.224 -25.369  0.00  0.00    -0.153 OA
ATOM     20  O   UNL     1      32.390 -17.391 -24.984  0.00  0.00    -0.153 OA
BRANCH  18  21
ATOM     21  N   UNL     1      32.930 -15.254 -23.651  0.00  0.00    -0.203 NA
ATOM     22  H   UNL     1      32.001 -15.023 -24.002  0.00  0.00    +0.144 HD
ATOM     23  H   UNL     1      33.559 -14.467 -23.815  0.00  0.00    +0.144 HD
ENDBRANCH  18  21
ENDBRANCH  13  18
ENDBRANCH  10  12
BRANCH   6  25
ATOM     24  O   UNL     1      33.726 -24.753 -13.967  0.00  0.00    -0.286 OA
ATOM     25  C   UNL     1      34.679 -24.270 -14.578  0.00  0.00    +0.198 C 
BRANCH  25  28
ATOM     26 CL   UNL     1      35.940 -26.711 -15.885  0.00  0.00    -0.082 Cl
ATOM     27 CL   UNL     1      35.927 -22.410 -12.520  0.00  0.00    -0.082 Cl
ATOM     28  C   UNL     1      36.071 -24.592 -14.160  0.00  0.00    +0.060 C 
ATOM     29  C   UNL     1      36.700 -25.690 -14.715  0.00  0.00    +0.062 C 
ATOM     30  C   UNL     1      36.694 -23.787 -13.227  0.00  0.00    +0.062 C 
ATOM     31  C   UNL     1      38.004 -25.994 -14.322  0.00  0.00    +0.012 C 
ATOM     32  C   UNL     1      37.998 -24.090 -12.834  0.00  0.00    +0.012 C 
ATOM     33  C   UNL     1      38.653 -25.194 -13.381  0.00  0.00    +0.002 C 
ENDBRANCH  25  28
ENDBRANCH   6  25
TORSDOF 5
ENDMDL
MODEL 6
REMARK VINA RESULT:     -11.1      6.173      9.328
REMARK  Name = 5330608
REMARK  5 active torsions:
REMARK  status: ('A' for Active; 'I' for Inactive)
REMARK    1  A    between atoms: C_6  and  C_11
REMARK    2  A    between atoms: C_11  and  C_14
REMARK    3  A    between atoms: N_20  and  C_22
REMARK    4  A    between atoms: C_23  and  S_28
REMARK    5  A    between atoms: S_28  and  N_31
REMARK                            x       y       z     vdW  Elec       q    Type
REMARK                         _______ _______ _______ _____ _____    ______ ____
ROOT
ATOM      1  N   UNL     1      35.407 -21.761 -17.733  0.00  0.00    -0.253 N 
ATOM      2  N   UNL     1      34.203 -20.622 -19.235  0.00  0.00    -0.374 NA
ATOM      3  C   UNL     1      34.147 -21.522 -18.276  0.00  0.00    +0.189 C 
ATOM      4  C   UNL     1      35.525 -20.267 -19.321  0.00  0.00    +0.183 C 
ATOM      5  C   UNL     1      36.289 -20.954 -18.406  0.00  0.00    +0.173 C 
ATOM      6  C   UNL     1      34.608 -23.353 -16.194  0.00  0.00    +0.054 C 
ATOM      7  C   UNL     1      35.645 -22.666 -16.702  0.00  0.00    +0.071 C 
ATOM      8  C   UNL     1      33.055 -22.259 -17.728  0.00  0.00    +0.048 C 
ATOM      9  C   UNL     1      33.273 -23.136 -16.731  0.00  0.00    +0.008 C 
ATOM     10  N   UNL     1      35.986 -19.353 -20.202  0.00  0.00    -0.290 N 
ATOM     11  H   UNL     1      36.958 -19.214 -20.134  0.00  0.00    +0.154 HD
ENDROOT
BRANCH  10  12
ATOM     12  C   UNL     1      35.370 -18.532 -21.226  0.00  0.00    +0.050 C 
ATOM     13  C   UNL     1      34.202 -16.974 -23.168  0.00  0.00    +0.122 C 
ATOM     14  C   UNL     1      35.230 -17.184 -20.992  0.00  0.00    +0.016 C 
ATOM     15  C   UNL     1      34.951 -19.135 -22.388  0.00  0.00    +0.016 C 
ATOM     16  C   UNL     1      34.638 -16.394 -21.977  0.00  0.00    +0.021 C 
ATOM     17  C   UNL     1      34.359 -18.345 -23.374  0.00  0.00    +0.021 C 
BRANCH  13  18
ATOM     18  S   UNL     1      33.461 -15.985 -24.401  0.00  0.00    +0.057 S 
ATOM     19  O   UNL     1      32.824 -14.846 -23.755  0.00  0.00    -0.153 OA
ATOM     20  O   UNL     1      34.434 -15.763 -25.463  0.00  0.00    -0.153 OA
BRANCH  18  21
ATOM     21  N   UNL     1      32.249 -17.040 -24.981  0.00  0.00    -0.203 NA
ATOM     22  H   UNL     1      31.811 -17.521 -24.194  0.00  0.00    +0.144 HD
ATOM     23  H   UNL     1      32.668 -17.727 -25.607  0.00  0.00    +0.144 HD
ENDBRANCH  18  21
ENDBRANCH  13  18
ENDBRANCH  10  12
BRANCH   6  25
ATOM     24  O   UNL     1      34.757 -25.518 -15.307  0.00  0.00    -0.286 OA
ATOM     25  C   UNL     1      34.853 -24.306 -15.112  0.00  0.00    +0.198 C 
BRANCH  25  28
ATOM     26 CL   UNL     1      37.830 -23.867 -14.663  0.00  0.00    -0.082 Cl
ATOM     27 CL   UNL     1      32.585 -23.827 -13.142  0.00  0.00    -0.082 Cl
ATOM     28  C   UNL     1      35.246 -23.797 -13.769  0.00  0.00    +0.060 C 
ATOM     29  C   UNL     1      36.584 -23.579 -13.500  0.00  0.00    +0.062 C 
ATOM     30  C   UNL     1      34.263 -23.561 -12.828  0.00  0.00    +0.062 C 
ATOM     31  C   UNL     1      36.952 -23.104 -12.241  0.00  0.00    +0.012 C 
ATOM     32  C   UNL     1      34.632 -23.086 -11.569  0.00  0.00    +0.012 C 
ATOM     33  C   UNL     1      35.976 -22.858 -11.275  0.00  0.00    +0.002 C 
ENDBRANCH  25  28
ENDBRANCH   6  25
TORSDOF 5
ENDMDL
MODEL 7
REMARK VINA RESULT:     -11.1      6.171      9.452
REMARK  Name = 5330608
REMARK  5 active torsions:
REMARK  status: ('A' for Active; 'I' for Inactive)
REMARK    1  A    between atoms: C_6  and  C_11
REMARK    2  A    between atoms: C_11  and  C_14
REMARK    3  A    between atoms: N_20  and  C_22
REMARK    4  A    between atoms: C_23  and  S_28
REMARK    5  A    between atoms: S_28  and  N_31
REMARK                            x       y       z     vdW  Elec       q    Type
REMARK                         _______ _______ _______ _____ _____    ______ ____
ROOT
ATOM      1  N   UNL     1      35.409 -21.752 -17.748  0.00  0.00    -0.253 N 
ATOM      2  N   UNL     1      34.202 -20.612 -19.247  0.00  0.00    -0.374 NA
ATOM      3  C   UNL     1      34.147 -21.512 -18.286  0.00  0.00    +0.189 C 
ATOM      4  C   UNL     1      35.524 -20.259 -19.337  0.00  0.00    +0.183 C 
ATOM      5  C   UNL     1      36.290 -20.946 -18.425  0.00  0.00    +0.173 C 
ATOM      6  C   UNL     1      34.614 -23.342 -16.205  0.00  0.00    +0.054 C 
ATOM      7  C   UNL     1      35.650 -22.656 -16.717  0.00  0.00    +0.071 C 
ATOM      8  C   UNL     1      33.056 -22.246 -17.734  0.00  0.00    +0.048 C 
ATOM      9  C   UNL     1      33.277 -23.123 -16.737  0.00  0.00    +0.008 C 
ATOM     10  N   UNL     1      35.983 -19.346 -20.221  0.00  0.00    -0.290 N 
ATOM     11  H   UNL     1      36.955 -19.209 -20.156  0.00  0.00    +0.154 HD
ENDROOT
BRANCH  10  12
ATOM     12  C   UNL     1      35.364 -18.525 -21.243  0.00  0.00    +0.050 C 
ATOM     13  C   UNL     1      34.191 -16.969 -23.184  0.00  0.00    +0.122 C 
ATOM     14  C   UNL     1      34.933 -19.131 -22.400  0.00  0.00    +0.016 C 
ATOM     15  C   UNL     1      35.235 -17.176 -21.015  0.00  0.00    +0.016 C 
ATOM     16  C   UNL     1      34.337 -18.341 -23.384  0.00  0.00    +0.021 C 
ATOM     17  C   UNL     1      34.640 -16.386 -21.998  0.00  0.00    +0.021 C 
BRANCH  13  18
ATOM     18  S   UNL     1      33.446 -15.981 -24.414  0.00  0.00    +0.057 S 
ATOM     19  O   UNL     1      32.800 -14.848 -23.765  0.00  0.00    -0.153 OA
ATOM     20  O   UNL     1      34.418 -15.748 -25.474  0.00  0.00    -0.153 OA
BRANCH  18  21
ATOM     21  N   UNL     1      32.241 -17.041 -24.999  0.00  0.00    -0.203 NA
ATOM     22  H   UNL     1      31.699 -16.573 -25.725  0.00  0.00    +0.144 HD
ATOM     23  H   UNL     1      31.622 -17.307 -24.233  0.00  0.00    +0.144 HD
ENDBRANCH  18  21
ENDBRANCH  13  18
ENDBRANCH  10  12
BRANCH   6  25
ATOM     24  O   UNL     1      34.761 -25.506 -15.316  0.00  0.00    -0.286 OA
ATOM     25  C   UNL     1      34.861 -24.294 -15.123  0.00  0.00    +0.198 C 
BRANCH  25  28
ATOM     26 CL   UNL     1      32.605 -23.824 -13.137  0.00  0.00    -0.082 Cl
ATOM     27 CL   UNL     1      37.839 -23.847 -14.693  0.00  0.00    -0.082 Cl
ATOM     28  C   UNL     1      35.262 -23.785 -13.783  0.00  0.00    +0.060 C 
ATOM     29  C   UNL     1      34.284 -23.549 -12.835  0.00  0.00    +0.062 C 
ATOM     30  C   UNL     1      36.600 -23.560 -13.524  0.00  0.00    +0.062 C 
ATOM     31  C   UNL     1      34.660 -23.070 -11.579  0.00  0.00    +0.012 C 
ATOM     32  C   UNL     1      36.975 -23.081 -12.268  0.00  0.00    +0.012 C 
ATOM     33  C   UNL     1      36.005 -22.837 -11.296  0.00  0.00    +0.002 C 
ENDBRANCH  25  28
ENDBRANCH   6  25
TORSDOF 5
ENDMDL
MODEL 8
REMARK VINA RESULT:     -10.3      4.748     10.447
REMARK  Name = 5330608
REMARK  5 active torsions:
REMARK  status: ('A' for Active; 'I' for Inactive)
REMARK    1  A    between atoms: C_6  and  C_11
REMARK    2  A    between atoms: C_11  and  C_14
REMARK    3  A    between atoms: N_20  and  C_22
REMARK    4  A    between atoms: C_23  and  S_28
REMARK    5  A    between atoms: S_28  and  N_31
REMARK                            x       y       z     vdW  Elec       q    Type
REMARK                         _______ _______ _______ _____ _____    ______ ____
ROOT
ATOM      1  N   UNL     1      33.494 -13.204 -22.761  0.00  0.00    -0.253 N 
ATOM      2  N   UNL     1      33.447 -14.927 -21.336  0.00  0.00    -0.374 NA
ATOM      3  C   UNL     1      33.011 -13.704 -21.554  0.00  0.00    +0.189 C 
ATOM      4  C   UNL     1      34.228 -15.232 -22.422  0.00  0.00    +0.183 C 
ATOM      5  C   UNL     1      34.274 -14.187 -23.315  0.00  0.00    +0.173 C 
ATOM      6  C   UNL     1      32.396 -11.136 -22.516  0.00  0.00    +0.054 C 
ATOM      7  C   UNL     1      33.194 -11.933 -23.246  0.00  0.00    +0.071 C 
ATOM      8  C   UNL     1      32.166 -12.847 -20.789  0.00  0.00    +0.048 C 
ATOM      9  C   UNL     1      31.869 -11.616 -21.248  0.00  0.00    +0.008 C 
ATOM     10  N   UNL     1      34.858 -16.417 -22.565  0.00  0.00    -0.290 N 
ATOM     11  H   UNL     1      35.377 -16.474 -23.399  0.00  0.00    +0.154 HD
ENDROOT
BRANCH  10  12
ATOM     12  C   UNL     1      34.942 -17.624 -21.766  0.00  0.00    +0.050 C 
ATOM     13  C   UNL     1      35.102 -19.913 -20.250  0.00  0.00    +0.122 C 
ATOM     14  C   UNL     1      36.158 -17.973 -21.227  0.00  0.00    +0.016 C 
ATOM     15  C   UNL     1      33.802 -18.370 -21.580  0.00  0.00    +0.016 C 
ATOM     16  C   UNL     1      36.239 -19.134 -20.458  0.00  0.00    +0.021 C 
ATOM     17  C   UNL     1      33.882 -19.531 -20.810  0.00  0.00    +0.021 C 
BRANCH  13  18
ATOM     18  S   UNL     1      35.202 -21.365 -19.286  0.00  0.00    +0.057 S 
ATOM     19  O   UNL     1      35.295 -22.507 -20.186  0.00  0.00    -0.153 OA
ATOM     20  O   UNL     1      36.215 -21.170 -18.258  0.00  0.00    -0.153 OA
BRANCH  18  21
ATOM     21  N   UNL     1      33.663 -21.372 -18.545  0.00  0.00    -0.203 NA
ATOM     22  H   UNL     1      33.124 -20.570 -18.872  0.00  0.00    +0.144 HD
ATOM     23  H   UNL     1      33.774 -21.316 -17.532  0.00  0.00    +0.144 HD
ENDBRANCH  18  21
ENDBRANCH  13  18
ENDBRANCH  10  12
BRANCH   6  25
ATOM     24  O   UNL     1      31.665  -9.644 -24.170  0.00  0.00    -0.286 OA
ATOM     25  C   UNL     1      32.078  -9.800 -23.020  0.00  0.00    +0.198 C 
BRANCH  25  28
ATOM     26 CL   UNL     1      34.343  -7.884 -23.696  0.00  0.00    -0.082 Cl
ATOM     27 CL   UNL     1      30.095  -9.598 -20.723  0.00  0.00    -0.082 Cl
ATOM     28  C   UNL     1      32.235  -8.625 -22.120  0.00  0.00    +0.060 C 
ATOM     29  C   UNL     1      33.246  -7.718 -22.371  0.00  0.00    +0.062 C 
ATOM     30  C   UNL     1      31.366  -8.476 -21.056  0.00  0.00    +0.062 C 
ATOM     31  C   UNL     1      33.393  -6.618 -21.526  0.00  0.00    +0.012 C 
ATOM     32  C   UNL     1      31.514  -7.376 -20.211  0.00  0.00    +0.012 C 
ATOM     33  C   UNL     1      32.527  -6.447 -20.446  0.00  0.00    +0.002 C 
ENDBRANCH  25  28
ENDBRANCH   6  25
TORSDOF 5
ENDMDL
MODEL 9
REMARK VINA RESULT:     -10.3      4.747     10.536
REMARK  Name = 5330608
REMARK  5 active torsions:
REMARK  status: ('A' for Active; 'I' for Inactive)
REMARK    1  A    between atoms: C_6  and  C_11
REMARK    2  A    between atoms: C_11  and  C_14
REMARK    3  A    between atoms: N_20  and  C_22
REMARK    4  A    between atoms: C_23  and  S_28
REMARK    5  A    between atoms: S_28  and  N_31
REMARK                            x       y       z     vdW  Elec       q    Type
REMARK                         _______ _______ _______ _____ _____    ______ ____
ROOT
ATOM      1  N   UNL     1      33.478 -13.208 -22.773  0.00  0.00    -0.253 N 
ATOM      2  N   UNL     1      33.440 -14.926 -21.340  0.00  0.00    -0.374 NA
ATOM      3  C   UNL     1      33.004 -13.702 -21.560  0.00  0.00    +0.189 C 
ATOM      4  C   UNL     1      34.214 -15.235 -22.430  0.00  0.00    +0.183 C 
ATOM      5  C   UNL     1      34.254 -14.194 -23.328  0.00  0.00    +0.173 C 
ATOM      6  C   UNL     1      32.384 -11.138 -22.528  0.00  0.00    +0.054 C 
ATOM      7  C   UNL     1      33.176 -11.939 -23.261  0.00  0.00    +0.071 C 
ATOM      8  C   UNL     1      32.164 -12.842 -20.793  0.00  0.00    +0.048 C 
ATOM      9  C   UNL     1      31.865 -11.613 -21.254  0.00  0.00    +0.008 C 
ATOM     10  N   UNL     1      34.842 -16.422 -22.573  0.00  0.00    -0.290 N 
ATOM     11  H   UNL     1      35.355 -16.482 -23.410  0.00  0.00    +0.154 HD
ENDROOT
BRANCH  10  12
ATOM     12  C   UNL     1      34.930 -17.625 -21.770  0.00  0.00    +0.050 C 
ATOM     13  C   UNL     1      35.096 -19.908 -20.245  0.00  0.00    +0.122 C 
ATOM     14  C   UNL     1      33.790 -18.368 -21.571  0.00  0.00    +0.016 C 
ATOM     15  C   UNL     1      36.149 -17.974 -21.238  0.00  0.00    +0.016 C 
ATOM     16  C   UNL     1      33.874 -19.526 -20.798  0.00  0.00    +0.021 C 
ATOM     17  C   UNL     1      36.234 -19.132 -20.465  0.00  0.00    +0.021 C 
BRANCH  13  18
ATOM     18  S   UNL     1      35.202 -21.358 -19.278  0.00  0.00    +0.057 S 
ATOM     19  O   UNL     1      35.320 -22.500 -20.175  0.00  0.00    -0.153 OA
ATOM     20  O   UNL     1      36.201 -21.149 -18.238  0.00  0.00    -0.153 OA
BRANCH  18  21
ATOM     21  N   UNL     1      33.655 -21.382 -18.555  0.00  0.00    -0.203 NA
ATOM     22  H   UNL     1      33.110 -20.588 -18.890  0.00  0.00    +0.144 HD
ATOM     23  H   UNL     1      33.753 -21.323 -17.541  0.00  0.00    +0.144 HD
ENDBRANCH  18  21
ENDBRANCH  13  18
ENDBRANCH  10  12
BRANCH   6  25
ATOM     24  O   UNL     1      31.630  -9.653 -24.178  0.00  0.00    -0.286 OA
ATOM     25  C   UNL     1      32.064  -9.804 -23.035  0.00  0.00    +0.198 C 
BRANCH  25  28
ATOM     26 CL   UNL     1      30.112  -9.566 -20.714  0.00  0.00    -0.082 Cl
ATOM     27 CL   UNL     1      34.338  -7.917 -23.753  0.00  0.00    -0.082 Cl
ATOM     28  C   UNL     1      32.243  -8.624 -22.146  0.00  0.00    +0.060 C 
ATOM     29  C   UNL     1      31.387  -8.456 -21.074  0.00  0.00    +0.062 C 
ATOM     30  C   UNL     1      33.257  -7.728 -22.418  0.00  0.00    +0.062 C 
ATOM     31  C   UNL     1      31.554  -7.349 -20.242  0.00  0.00    +0.012 C 
ATOM     32  C   UNL     1      33.424  -6.620 -21.586  0.00  0.00    +0.012 C 
ATOM     33  C   UNL     1      32.572  -6.431 -20.498  0.00  0.00    +0.002 C 
ENDBRANCH  25  28
ENDBRANCH   6  25
TORSDOF 5
ENDMDL
