MODEL 1
REMARK VINA RESULT:     -11.9      0.000      0.000
REMARK  Name = 491941
REMARK  5 active torsions:
REMARK  status: ('A' for Active; 'I' for Inactive)
REMARK    1  A    between atoms: C_5  and  C_17
REMARK    2  A    between atoms: C_7  and  S_11
REMARK    3  A    between atoms: S_11  and  N_14
REMARK    4  A    between atoms: C_17  and  C_18
REMARK    5  A    between atoms: C_21  and  C_25
REMARK                            x       y       z     vdW  Elec       q    Type
REMARK                         _______ _______ _______ _____ _____    ______ ____
ROOT
ATOM      1  S   UNL     1      34.141 -23.988 -13.163  0.00  0.00    -0.035 S 
ATOM      2  O   UNL     1      35.437 -22.413 -17.064  0.00  0.00    -0.274 OA
ATOM      3  N   UNL     1      33.739 -22.867 -15.498  0.00  0.00    -0.227 N 
ATOM      4  N   UNL     1      35.745 -22.301 -14.289  0.00  0.00    -0.386 NA
ATOM      5  C   UNL     1      34.247 -22.596 -16.793  0.00  0.00    +0.236 C 
ATOM      6  C   UNL     1      34.642 -22.943 -14.394  0.00  0.00    +0.217 C 
ATOM      7  C   UNL     1      35.577 -23.566 -12.328  0.00  0.00    +0.247 C 
ATOM      8  C   UNL     1      36.300 -22.662 -13.077  0.00  0.00    +0.123 C 
ATOM      9  C   UNL     1      32.300 -23.071 -15.266  0.00  0.00    +0.123 C 
ATOM     10  C   UNL     1      37.595 -22.062 -12.695  0.00  0.00    +0.064 C 
ENDROOT
BRANCH   7  11
ATOM     11  S   UNL     1      35.801 -24.340 -10.771  0.00  0.00    +0.052 S 
ATOM     12  O   UNL     1      34.500 -24.891 -10.401  0.00  0.00    -0.157 OA
ATOM     13  O   UNL     1      36.953 -25.217 -10.940  0.00  0.00    -0.157 OA
BRANCH  11  14
ATOM     14  N   UNL     1      36.205 -23.139  -9.607  0.00  0.00    -0.206 NA
ATOM     15  H   UNL     1      36.402 -23.586  -8.713  0.00  0.00    +0.144 HD
ATOM     16  H   UNL     1      35.423 -22.492  -9.501  0.00  0.00    +0.144 HD
ENDBRANCH  11  14
ENDBRANCH   7  11
BRANCH   5  17
ATOM     17  C   UNL     1      33.219 -22.573 -17.931  0.00  0.00    +0.112 C 
BRANCH  17  18
ATOM     18  C   UNL     1      33.445 -21.493 -18.932  0.00  0.00    -0.013 C 
ATOM     19  C   UNL     1      34.741 -21.190 -19.352  0.00  0.00    -0.004 C 
ATOM     20  C   UNL     1      32.361 -20.783 -19.450  0.00  0.00    -0.004 C 
ATOM     21  C   UNL     1      33.869 -19.469 -20.805  0.00  0.00    +0.018 C 
ATOM     22  C   UNL     1      34.953 -20.179 -20.289  0.00  0.00    +0.001 C 
ATOM     23  C   UNL     1      32.573 -19.771 -20.387  0.00  0.00    +0.001 C 
BRANCH  21  25
ATOM     24  N   UNL     1      33.676 -18.711 -23.030  0.00  0.00    -0.244 NA
ATOM     25  C   UNL     1      34.088 -18.420 -21.777  0.00  0.00    +0.081 C 
ATOM     26  C   UNL     1      34.676 -17.223 -21.409  0.00  0.00    +0.019 C 
ATOM     27  C   UNL     1      34.856 -16.258 -22.394  0.00  0.00    +0.003 C 
ATOM     28  C   UNL     1      33.867 -17.750 -23.962  0.00  0.00    +0.099 C 
ATOM     29  C   UNL     1      34.446 -16.519 -23.698  0.00  0.00    +0.021 C 
ENDBRANCH  21  25
ENDBRANCH  17  18
ENDBRANCH   5  17
TORSDOF 5
ENDMDL
MODEL 2
REMARK VINA RESULT:     -10.9      3.410      5.762
REMARK  Name = 491941
REMARK  5 active torsions:
REMARK  status: ('A' for Active; 'I' for Inactive)
REMARK    1  A    between atoms: C_5  and  C_17
REMARK    2  A    between atoms: C_7  and  S_11
REMARK    3  A    between atoms: S_11  and  N_14
REMARK    4  A    between atoms: C_17  and  C_18
REMARK    5  A    between atoms: C_21  and  C_25
REMARK                            x       y       z     vdW  Elec       q    Type
REMARK                         _______ _______ _______ _____ _____    ______ ____
ROOT
ATOM      1  S   UNL     1      36.052 -21.098 -17.934  0.00  0.00    -0.035 S 
ATOM      2  O   UNL     1      33.268 -19.249 -20.798  0.00  0.00    -0.274 OA
ATOM      3  N   UNL     1      35.397 -20.103 -20.269  0.00  0.00    -0.227 N 
ATOM      4  N   UNL     1      33.750 -21.394 -19.073  0.00  0.00    -0.386 NA
ATOM      5  C   UNL     1      34.481 -19.322 -21.016  0.00  0.00    +0.236 C 
ATOM      6  C   UNL     1      34.919 -20.881 -19.171  0.00  0.00    +0.217 C 
ATOM      7  C   UNL     1      34.859 -22.011 -17.108  0.00  0.00    +0.247 C 
ATOM      8  C   UNL     1      33.707 -22.059 -17.864  0.00  0.00    +0.123 C 
ATOM      9  C   UNL     1      36.831 -20.131 -20.601  0.00  0.00    +0.123 C 
ATOM     10  C   UNL     1      32.457 -22.753 -17.492  0.00  0.00    +0.064 C 
ENDROOT
BRANCH   7  11
ATOM     11  S   UNL     1      35.345 -22.657 -15.553  0.00  0.00    +0.052 S 
ATOM     12  O   UNL     1      34.532 -21.968 -14.555  0.00  0.00    -0.157 OA
ATOM     13  O   UNL     1      35.267 -24.106 -15.697  0.00  0.00    -0.157 OA
BRANCH  11  14
ATOM     14  N   UNL     1      36.987 -22.234 -15.265  0.00  0.00    -0.206 NA
ATOM     15  H   UNL     1      37.566 -23.072 -15.305  0.00  0.00    +0.144 HD
ATOM     16  H   UNL     1      37.071 -21.806 -14.342  0.00  0.00    +0.144 HD
ENDBRANCH  11  14
ENDBRANCH   7  11
BRANCH   5  17
ATOM     17  C   UNL     1      35.078 -18.482 -22.153  0.00  0.00    +0.112 C 
BRANCH  17  18
ATOM     18  C   UNL     1      34.557 -17.087 -22.216  0.00  0.00    -0.013 C 
ATOM     19  C   UNL     1      34.221 -16.523 -23.447  0.00  0.00    -0.004 C 
ATOM     20  C   UNL     1      34.404 -16.346 -21.044  0.00  0.00    -0.004 C 
ATOM     21  C   UNL     1      33.582 -14.476 -22.335  0.00  0.00    +0.018 C 
ATOM     22  C   UNL     1      33.733 -15.218 -23.507  0.00  0.00    +0.001 C 
ATOM     23  C   UNL     1      33.917 -15.040 -21.104  0.00  0.00    +0.001 C 
BRANCH  21  25
ATOM     24  N   UNL     1      33.543 -12.387 -23.427  0.00  0.00    -0.244 NA
ATOM     25  C   UNL     1      33.075 -13.122 -22.396  0.00  0.00    +0.081 C 
ATOM     26  C   UNL     1      32.180 -12.657 -21.449  0.00  0.00    +0.019 C 
ATOM     27  C   UNL     1      31.734 -11.345 -21.568  0.00  0.00    +0.003 C 
ATOM     28  C   UNL     1      33.088 -11.116 -23.511  0.00  0.00    +0.099 C 
ATOM     29  C   UNL     1      32.192 -10.553 -22.616  0.00  0.00    +0.021 C 
ENDBRANCH  21  25
ENDBRANCH  17  18
ENDBRANCH   5  17
TORSDOF 5
ENDMDL
MODEL 3
REMARK VINA RESULT:     -10.9      9.163     13.484
REMARK  Name = 491941
REMARK  5 active torsions:
REMARK  status: ('A' for Active; 'I' for Inactive)
REMARK    1  A    between atoms: C_5  and  C_17
REMARK    2  A    between atoms: C_7  and  S_11
REMARK    3  A    between atoms: S_11  and  N_14
REMARK    4  A    between atoms: C_17  and  C_18
REMARK    5  A    between atoms: C_21  and  C_25
REMARK                            x       y       z     vdW  Elec       q    Type
REMARK                         _______ _______ _______ _____ _____    ______ ____
ROOT
ATOM      1  S   UNL     1      32.543  -8.205 -23.038  0.00  0.00    -0.035 S 
ATOM      2  O   UNL     1      31.575 -12.450 -22.388  0.00  0.00    -0.274 OA
ATOM      3  N   UNL     1      33.037 -10.777 -23.165  0.00  0.00    -0.227 N 
ATOM      4  N   UNL     1      31.886  -9.928 -21.225  0.00  0.00    -0.386 NA
ATOM      5  C   UNL     1      32.519 -12.094 -23.099  0.00  0.00    +0.236 C 
ATOM      6  C   UNL     1      32.449  -9.753 -22.362  0.00  0.00    +0.217 C 
ATOM      7  C   UNL     1      31.723  -7.632 -21.646  0.00  0.00    +0.247 C 
ATOM      8  C   UNL     1      31.457  -8.687 -20.798  0.00  0.00    +0.123 C 
ATOM      9  C   UNL     1      34.170 -10.441 -24.043  0.00  0.00    +0.123 C 
ATOM     10  C   UNL     1      30.766  -8.597 -19.496  0.00  0.00    +0.064 C 
ENDROOT
BRANCH   7  11
ATOM     11  S   UNL     1      31.417  -5.907 -21.606  0.00  0.00    +0.052 S 
ATOM     12  O   UNL     1      30.064  -5.722 -22.122  0.00  0.00    -0.157 OA
ATOM     13  O   UNL     1      31.754  -5.489 -20.249  0.00  0.00    -0.157 OA
BRANCH  11  14
ATOM     14  N   UNL     1      32.499  -5.127 -22.692  0.00  0.00    -0.206 NA
ATOM     15  H   UNL     1      32.785  -4.230 -22.301  0.00  0.00    +0.144 HD
ATOM     16  H   UNL     1      32.031  -4.974 -23.586  0.00  0.00    +0.144 HD
ENDBRANCH  11  14
ENDBRANCH   7  11
BRANCH   5  17
ATOM     17  C   UNL     1      33.177 -13.126 -24.023  0.00  0.00    +0.112 C 
BRANCH  17  18
ATOM     18  C   UNL     1      33.608 -14.373 -23.331  0.00  0.00    -0.013 C 
ATOM     19  C   UNL     1      33.806 -15.545 -24.062  0.00  0.00    -0.004 C 
ATOM     20  C   UNL     1      33.816 -14.369 -21.951  0.00  0.00    -0.004 C 
ATOM     21  C   UNL     1      34.416 -16.708 -22.035  0.00  0.00    +0.018 C 
ATOM     22  C   UNL     1      34.210 -16.712 -23.415  0.00  0.00    +0.001 C 
ATOM     23  C   UNL     1      34.220 -15.537 -21.303  0.00  0.00    +0.001 C 
BRANCH  21  25
ATOM     24  N   UNL     1      36.094 -17.889 -20.873  0.00  0.00    -0.244 NA
ATOM     25  C   UNL     1      34.836 -17.918 -21.362  0.00  0.00    +0.081 C 
ATOM     26  C   UNL     1      33.980 -19.000 -21.250  0.00  0.00    +0.019 C 
ATOM     27  C   UNL     1      34.449 -20.132 -20.590  0.00  0.00    +0.003 C 
ATOM     28  C   UNL     1      36.515 -19.007 -20.238  0.00  0.00    +0.099 C 
ATOM     29  C   UNL     1      35.739 -20.143 -20.071  0.00  0.00    +0.021 C 
ENDBRANCH  21  25
ENDBRANCH  17  18
ENDBRANCH   5  17
TORSDOF 5
ENDMDL
MODEL 4
REMARK VINA RESULT:     -10.7      5.931     11.006
REMARK  Name = 491941
REMARK  5 active torsions:
REMARK  status: ('A' for Active; 'I' for Inactive)
REMARK    1  A    between atoms: C_5  and  C_17
REMARK    2  A    between atoms: C_7  and  S_11
REMARK    3  A    between atoms: S_11  and  N_14
REMARK    4  A    between atoms: C_17  and  C_18
REMARK    5  A    between atoms: C_21  and  C_25
REMARK                            x       y       z     vdW  Elec       q    Type
REMARK                         _______ _______ _______ _____ _____    ______ ____
ROOT
ATOM      1  S   UNL     1      33.433 -15.118 -23.872  0.00  0.00    -0.035 S 
ATOM      2  O   UNL     1      34.122 -17.540 -20.263  0.00  0.00    -0.274 OA
ATOM      3  N   UNL     1      34.403 -17.176 -22.571  0.00  0.00    -0.227 N 
ATOM      4  N   UNL     1      34.383 -15.033 -21.469  0.00  0.00    -0.386 NA
ATOM      5  C   UNL     1      34.369 -17.965 -21.395  0.00  0.00    +0.236 C 
ATOM      6  C   UNL     1      34.136 -15.777 -22.482  0.00  0.00    +0.217 C 
ATOM      7  C   UNL     1      33.433 -13.607 -23.061  0.00  0.00    +0.247 C 
ATOM      8  C   UNL     1      33.973 -13.758 -21.802  0.00  0.00    +0.123 C 
ATOM      9  C   UNL     1      34.707 -17.769 -23.884  0.00  0.00    +0.123 C 
ATOM     10  C   UNL     1      34.145 -12.685 -20.801  0.00  0.00    +0.064 C 
ENDROOT
BRANCH   7  11
ATOM     11  S   UNL     1      32.777 -12.261 -23.972  0.00  0.00    +0.052 S 
ATOM     12  O   UNL     1      32.680 -12.716 -25.356  0.00  0.00    -0.157 OA
ATOM     13  O   UNL     1      31.582 -11.851 -23.244  0.00  0.00    -0.157 OA
BRANCH  11  14
ATOM     14  N   UNL     1      33.904 -10.962 -23.932  0.00  0.00    -0.206 NA
ATOM     15  H   UNL     1      33.400 -10.078 -23.864  0.00  0.00    +0.144 HD
ATOM     16  H   UNL     1      34.464 -10.972 -24.784  0.00  0.00    +0.144 HD
ENDBRANCH  11  14
ENDBRANCH   7  11
BRANCH   5  17
ATOM     17  C   UNL     1      34.624 -19.467 -21.580  0.00  0.00    +0.112 C 
BRANCH  17  18
ATOM     18  C   UNL     1      34.471 -20.267 -20.332  0.00  0.00    -0.013 C 
ATOM     19  C   UNL     1      33.201 -20.649 -19.898  0.00  0.00    -0.004 C 
ATOM     20  C   UNL     1      35.599 -20.635 -19.597  0.00  0.00    -0.004 C 
ATOM     21  C   UNL     1      34.186 -21.765 -17.996  0.00  0.00    +0.018 C 
ATOM     22  C   UNL     1      33.058 -21.398 -18.730  0.00  0.00    +0.001 C 
ATOM     23  C   UNL     1      35.456 -21.385 -18.429  0.00  0.00    +0.001 C 
BRANCH  21  25
ATOM     24  N   UNL     1      35.199 -22.939 -16.219  0.00  0.00    -0.244 NA
ATOM     25  C   UNL     1      34.038 -22.542 -16.784  0.00  0.00    +0.081 C 
ATOM     26  C   UNL     1      32.785 -22.834 -16.276  0.00  0.00    +0.019 C 
ATOM     27  C   UNL     1      32.717 -23.585 -15.108  0.00  0.00    +0.003 C 
ATOM     28  C   UNL     1      35.094 -23.668 -15.085  0.00  0.00    +0.099 C 
ATOM     29  C   UNL     1      33.890 -24.013 -14.494  0.00  0.00    +0.021 C 
ENDBRANCH  21  25
ENDBRANCH  17  18
ENDBRANCH   5  17
TORSDOF 5
ENDMDL
MODEL 5
REMARK VINA RESULT:     -10.5     10.638     14.954
REMARK  Name = 491941
REMARK  5 active torsions:
REMARK  status: ('A' for Active; 'I' for Inactive)
REMARK    1  A    between atoms: C_5  and  C_17
REMARK    2  A    between atoms: C_7  and  S_11
REMARK    3  A    between atoms: S_11  and  N_14
REMARK    4  A    between atoms: C_17  and  C_18
REMARK    5  A    between atoms: C_21  and  C_25
REMARK                            x       y       z     vdW  Elec       q    Type
REMARK                         _______ _______ _______ _____ _____    ______ ____
ROOT
ATOM      1  S   UNL     1      31.493  -6.393 -21.500  0.00  0.00    -0.035 S 
ATOM      2  O   UNL     1      31.822 -10.649 -22.572  0.00  0.00    -0.274 OA
ATOM      3  N   UNL     1      31.203  -8.960 -21.054  0.00  0.00    -0.227 N 
ATOM      4  N   UNL     1      30.828  -8.138 -23.289  0.00  0.00    -0.386 NA
ATOM      5  C   UNL     1      31.559 -10.280 -21.423  0.00  0.00    +0.236 C 
ATOM      6  C   UNL     1      31.132  -7.948 -22.059  0.00  0.00    +0.217 C 
ATOM      7  C   UNL     1      31.220  -5.839 -23.099  0.00  0.00    +0.247 C 
ATOM      8  C   UNL     1      30.878  -6.904 -23.906  0.00  0.00    +0.123 C 
ATOM      9  C   UNL     1      30.904  -8.608 -19.656  0.00  0.00    +0.123 C 
ATOM     10  C   UNL     1      30.565  -6.831 -25.348  0.00  0.00    +0.064 C 
ENDROOT
BRANCH   7  11
ATOM     11  S   UNL     1      31.424  -4.116 -23.347  0.00  0.00    +0.052 S 
ATOM     12  O   UNL     1      32.710  -3.952 -24.017  0.00  0.00    -0.157 OA
ATOM     13  O   UNL     1      30.193  -3.673 -23.992  0.00  0.00    -0.157 OA
BRANCH  11  14
ATOM     14  N   UNL     1      31.535  -3.344 -21.814  0.00  0.00    -0.206 NA
ATOM     15  H   UNL     1      31.453  -2.335 -21.935  0.00  0.00    +0.144 HD
ATOM     16  H   UNL     1      32.435  -3.565 -21.387  0.00  0.00    +0.144 HD
ENDBRANCH  11  14
ENDBRANCH   7  11
BRANCH   5  17
ATOM     17  C   UNL     1      31.656 -11.299 -20.281  0.00  0.00    +0.112 C 
BRANCH  17  18
ATOM     18  C   UNL     1      32.366 -12.557 -20.647  0.00  0.00    -0.013 C 
ATOM     19  C   UNL     1      33.192 -12.591 -21.772  0.00  0.00    -0.004 C 
ATOM     20  C   UNL     1      32.207 -13.702 -19.865  0.00  0.00    -0.004 C 
ATOM     21  C   UNL     1      33.696 -14.912 -21.333  0.00  0.00    +0.018 C 
ATOM     22  C   UNL     1      33.857 -13.767 -22.115  0.00  0.00    +0.001 C 
ATOM     23  C   UNL     1      32.872 -14.879 -20.209  0.00  0.00    +0.001 C 
BRANCH  21  25
ATOM     24  N   UNL     1      34.998 -16.759 -20.660  0.00  0.00    -0.244 NA
ATOM     25  C   UNL     1      34.386 -16.133 -21.688  0.00  0.00    +0.081 C 
ATOM     26  C   UNL     1      34.392 -16.591 -22.994  0.00  0.00    +0.019 C 
ATOM     27  C   UNL     1      35.075 -17.772 -23.264  0.00  0.00    +0.003 C 
ATOM     28  C   UNL     1      35.652 -17.904 -20.960  0.00  0.00    +0.099 C 
ATOM     29  C   UNL     1      35.719 -18.447 -22.233  0.00  0.00    +0.021 C 
ENDBRANCH  21  25
ENDBRANCH  17  18
ENDBRANCH   5  17
TORSDOF 5
ENDMDL
MODEL 6
REMARK VINA RESULT:     -10.1     11.980     16.654
REMARK  Name = 491941
REMARK  5 active torsions:
REMARK  status: ('A' for Active; 'I' for Inactive)
REMARK    1  A    between atoms: C_5  and  C_17
REMARK    2  A    between atoms: C_7  and  S_11
REMARK    3  A    between atoms: S_11  and  N_14
REMARK    4  A    between atoms: C_17  and  C_18
REMARK    5  A    between atoms: C_21  and  C_25
REMARK                            x       y       z     vdW  Elec       q    Type
REMARK                         _______ _______ _______ _____ _____    ______ ____
ROOT
ATOM      1  S   UNL     1      30.681  -5.098 -24.321  0.00  0.00    -0.035 S 
ATOM      2  O   UNL     1      33.053  -8.120 -22.172  0.00  0.00    -0.274 OA
ATOM      3  N   UNL     1      31.110  -7.492 -23.343  0.00  0.00    -0.227 N 
ATOM      4  N   UNL     1      32.975  -6.290 -24.283  0.00  0.00    -0.386 NA
ATOM      5  C   UNL     1      31.865  -8.298 -22.456  0.00  0.00    +0.236 C 
ATOM      6  C   UNL     1      31.734  -6.376 -23.977  0.00  0.00    +0.217 C 
ATOM      7  C   UNL     1      32.027  -4.269 -24.982  0.00  0.00    +0.247 C 
ATOM      8  C   UNL     1      33.155  -5.056 -24.874  0.00  0.00    +0.123 C 
ATOM      9  C   UNL     1      29.694  -7.780 -23.624  0.00  0.00    +0.123 C 
ATOM     10  C   UNL     1      34.511  -4.691 -25.332  0.00  0.00    +0.064 C 
ENDROOT
BRANCH   7  11
ATOM     11  S   UNL     1      31.691  -2.674 -25.626  0.00  0.00    +0.052 S 
ATOM     12  O   UNL     1      32.716  -1.790 -25.078  0.00  0.00    -0.157 OA
ATOM     13  O   UNL     1      31.569  -2.859 -27.067  0.00  0.00    -0.157 OA
BRANCH  11  14
ATOM     14  N   UNL     1      30.170  -2.141 -25.022  0.00  0.00    -0.206 NA
ATOM     15  H   UNL     1      29.423  -2.525 -25.599  0.00  0.00    +0.144 HD
ATOM     16  H   UNL     1      30.133  -1.122 -25.048  0.00  0.00    +0.144 HD
ENDBRANCH  11  14
ENDBRANCH   7  11
BRANCH   5  17
ATOM     17  C   UNL     1      31.111  -9.452 -21.782  0.00  0.00    +0.112 C 
BRANCH  17  18
ATOM     18  C   UNL     1      31.758 -10.784 -21.956  0.00  0.00    -0.013 C 
ATOM     19  C   UNL     1      32.406 -11.095 -23.152  0.00  0.00    -0.004 C 
ATOM     20  C   UNL     1      31.716 -11.720 -20.922  0.00  0.00    -0.004 C 
ATOM     21  C   UNL     1      32.968 -13.276 -22.281  0.00  0.00    +0.018 C 
ATOM     22  C   UNL     1      33.011 -12.340 -23.315  0.00  0.00    +0.001 C 
ATOM     23  C   UNL     1      32.321 -12.966 -21.085  0.00  0.00    +0.001 C 
BRANCH  21  25
ATOM     24  N   UNL     1      33.588 -15.044 -23.713  0.00  0.00    -0.244 NA
ATOM     25  C   UNL     1      33.595 -14.569 -22.449  0.00  0.00    +0.081 C 
ATOM     26  C   UNL     1      34.149 -15.234 -21.370  0.00  0.00    +0.019 C 
ATOM     27  C   UNL     1      34.737 -16.473 -21.603  0.00  0.00    +0.003 C 
ATOM     28  C   UNL     1      34.168 -16.251 -23.902  0.00  0.00    +0.099 C 
ATOM     29  C   UNL     1      34.750 -16.998 -22.891  0.00  0.00    +0.021 C 
ENDBRANCH  21  25
ENDBRANCH  17  18
ENDBRANCH   5  17
TORSDOF 5
ENDMDL
MODEL 7
REMARK VINA RESULT:      -9.9     12.365     17.213
REMARK  Name = 491941
REMARK  5 active torsions:
REMARK  status: ('A' for Active; 'I' for Inactive)
REMARK    1  A    between atoms: C_5  and  C_17
REMARK    2  A    between atoms: C_7  and  S_11
REMARK    3  A    between atoms: S_11  and  N_14
REMARK    4  A    between atoms: C_17  and  C_18
REMARK    5  A    between atoms: C_21  and  C_25
REMARK                            x       y       z     vdW  Elec       q    Type
REMARK                         _______ _______ _______ _____ _____    ______ ____
ROOT
ATOM      1  S   UNL     1      34.010  -5.247 -24.343  0.00  0.00    -0.035 S 
ATOM      2  O   UNL     1      30.113  -7.159 -23.613  0.00  0.00    -0.274 OA
ATOM      3  N   UNL     1      32.221  -6.444 -22.847  0.00  0.00    -0.227 N 
ATOM      4  N   UNL     1      31.456  -4.880 -24.513  0.00  0.00    -0.386 NA
ATOM      5  C   UNL     1      31.038  -7.222 -22.797  0.00  0.00    +0.236 C 
ATOM      6  C   UNL     1      32.396  -5.504 -23.907  0.00  0.00    +0.217 C 
ATOM      7  C   UNL     1      33.435  -4.141 -25.519  0.00  0.00    +0.247 C 
ATOM      8  C   UNL     1      32.058  -4.077 -25.461  0.00  0.00    +0.123 C 
ATOM      9  C   UNL     1      33.275  -6.584 -21.828  0.00  0.00    +0.123 C 
ATOM     10  C   UNL     1      31.195  -3.235 -26.315  0.00  0.00    +0.064 C 
ENDROOT
BRANCH   7  11
ATOM     11  S   UNL     1      34.668  -3.364 -26.493  0.00  0.00    +0.052 S 
ATOM     12  O   UNL     1      34.476  -1.927 -26.321  0.00  0.00    -0.157 OA
ATOM     13  O   UNL     1      35.922  -3.994 -26.098  0.00  0.00    -0.157 OA
BRANCH  11  14
ATOM     14  N   UNL     1      34.380  -3.731 -28.149  0.00  0.00    -0.206 NA
ATOM     15  H   UNL     1      33.544  -3.241 -28.465  0.00  0.00    +0.144 HD
ATOM     16  H   UNL     1      34.246  -4.737 -28.256  0.00  0.00    +0.144 HD
ENDBRANCH  11  14
ENDBRANCH   7  11
BRANCH   5  17
ATOM     17  C   UNL     1      30.944  -8.238 -21.653  0.00  0.00    +0.112 C 
BRANCH  17  18
ATOM     18  C   UNL     1      31.510  -9.577 -21.982  0.00  0.00    -0.013 C 
ATOM     19  C   UNL     1      31.245 -10.670 -21.154  0.00  0.00    -0.004 C 
ATOM     20  C   UNL     1      32.303  -9.740 -23.117  0.00  0.00    -0.004 C 
ATOM     21  C   UNL     1      32.568 -12.084 -22.597  0.00  0.00    +0.018 C 
ATOM     22  C   UNL     1      31.774 -11.923 -21.462  0.00  0.00    +0.001 C 
ATOM     23  C   UNL     1      32.833 -10.993 -23.425  0.00  0.00    +0.001 C 
BRANCH  21  25
ATOM     24  N   UNL     1      32.889 -13.801 -24.181  0.00  0.00    -0.244 NA
ATOM     25  C   UNL     1      33.117 -13.384 -22.917  0.00  0.00    +0.081 C 
ATOM     26  C   UNL     1      33.817 -14.111 -21.971  0.00  0.00    +0.019 C 
ATOM     27  C   UNL     1      34.318 -15.353 -22.347  0.00  0.00    +0.003 C 
ATOM     28  C   UNL     1      33.390 -15.014 -24.511  0.00  0.00    +0.099 C 
ATOM     29  C   UNL     1      34.104 -15.820 -23.640  0.00  0.00    +0.021 C 
ENDBRANCH  21  25
ENDBRANCH  17  18
ENDBRANCH   5  17
TORSDOF 5
ENDMDL
MODEL 8
REMARK VINA RESULT:      -9.8      1.474      2.097
REMARK  Name = 491941
REMARK  5 active torsions:
REMARK  status: ('A' for Active; 'I' for Inactive)
REMARK    1  A    between atoms: C_5  and  C_17
REMARK    2  A    between atoms: C_7  and  S_11
REMARK    3  A    between atoms: S_11  and  N_14
REMARK    4  A    between atoms: C_17  and  C_18
REMARK    5  A    between atoms: C_21  and  C_25
REMARK                            x       y       z     vdW  Elec       q    Type
REMARK                         _______ _______ _______ _____ _____    ______ ____
ROOT
ATOM      1  S   UNL     1      34.163 -23.760 -14.668  0.00  0.00    -0.035 S 
ATOM      2  O   UNL     1      36.479 -21.798 -17.856  0.00  0.00    -0.274 OA
ATOM      3  N   UNL     1      34.419 -22.473 -16.937  0.00  0.00    -0.227 N 
ATOM      4  N   UNL     1      35.900 -21.900 -15.124  0.00  0.00    -0.386 NA
ATOM      5  C   UNL     1      35.281 -22.068 -17.986  0.00  0.00    +0.236 C 
ATOM      6  C   UNL     1      34.938 -22.590 -15.612  0.00  0.00    +0.217 C 
ATOM      7  C   UNL     1      35.231 -23.331 -13.398  0.00  0.00    +0.247 C 
ATOM      8  C   UNL     1      36.078 -22.329 -13.824  0.00  0.00    +0.123 C 
ATOM      9  C   UNL     1      33.000 -22.775 -17.184  0.00  0.00    +0.123 C 
ATOM     10  C   UNL     1      37.138 -21.692 -13.017  0.00  0.00    +0.064 C 
ENDROOT
BRANCH   7  11
ATOM     11  S   UNL     1      35.020 -24.217 -11.901  0.00  0.00    +0.052 S 
ATOM     12  O   UNL     1      33.618 -24.623 -11.864  0.00  0.00    -0.157 OA
ATOM     13  O   UNL     1      36.079 -25.220 -11.895  0.00  0.00    -0.157 OA
BRANCH  11  14
ATOM     14  N   UNL     1      35.285 -23.148 -10.580  0.00  0.00    -0.206 NA
ATOM     15  H   UNL     1      36.281 -23.110 -10.368  0.00  0.00    +0.144 HD
ATOM     16  H   UNL     1      34.774 -23.483  -9.763  0.00  0.00    +0.144 HD
ENDBRANCH  11  14
ENDBRANCH   7  11
BRANCH   5  17
ATOM     17  C   UNL     1      34.660 -22.008 -19.387  0.00  0.00    +0.112 C 
BRANCH  17  18
ATOM     18  C   UNL     1      34.581 -20.634 -19.958  0.00  0.00    -0.013 C 
ATOM     19  C   UNL     1      33.339 -20.077 -20.269  0.00  0.00    -0.004 C 
ATOM     20  C   UNL     1      35.748 -19.903 -20.181  0.00  0.00    -0.004 C 
ATOM     21  C   UNL     1      34.432 -18.061 -21.027  0.00  0.00    +0.018 C 
ATOM     22  C   UNL     1      33.265 -18.791 -20.803  0.00  0.00    +0.001 C 
ATOM     23  C   UNL     1      35.673 -18.616 -20.716  0.00  0.00    +0.001 C 
BRANCH  21  25
ATOM     24  N   UNL     1      34.159 -15.745 -20.674  0.00  0.00    -0.244 NA
ATOM     25  C   UNL     1      34.355 -16.726 -21.581  0.00  0.00    +0.081 C 
ATOM     26  C   UNL     1      34.481 -16.515 -22.942  0.00  0.00    +0.019 C 
ATOM     27  C   UNL     1      34.398 -15.207 -23.406  0.00  0.00    +0.003 C 
ATOM     28  C   UNL     1      34.083 -14.486 -21.161  0.00  0.00    +0.099 C 
ATOM     29  C   UNL     1      34.196 -14.167 -22.505  0.00  0.00    +0.021 C 
ENDBRANCH  21  25
ENDBRANCH  17  18
ENDBRANCH   5  17
TORSDOF 5
ENDMDL
MODEL 9
REMARK VINA RESULT:      -9.4      8.306     12.327
REMARK  Name = 491941
REMARK  5 active torsions:
REMARK  status: ('A' for Active; 'I' for Inactive)
REMARK    1  A    between atoms: C_5  and  C_17
REMARK    2  A    between atoms: C_7  and  S_11
REMARK    3  A    between atoms: S_11  and  N_14
REMARK    4  A    between atoms: C_17  and  C_18
REMARK    5  A    between atoms: C_21  and  C_25
REMARK                            x       y       z     vdW  Elec       q    Type
REMARK                         _______ _______ _______ _____ _____    ______ ____
ROOT
ATOM      1  S   UNL     1      34.156 -15.626 -20.912  0.00  0.00    -0.035 S 
ATOM      2  O   UNL     1      31.409 -12.844 -22.934  0.00  0.00    -0.274 OA
ATOM      3  N   UNL     1      33.018 -13.293 -21.276  0.00  0.00    -0.227 N 
ATOM      4  N   UNL     1      33.547 -14.622 -23.216  0.00  0.00    -0.386 NA
ATOM      5  C   UNL     1      31.952 -12.566 -21.861  0.00  0.00    +0.236 C 
ATOM      6  C   UNL     1      33.532 -14.443 -21.947  0.00  0.00    +0.217 C 
ATOM      7  C   UNL     1      34.519 -16.548 -22.311  0.00  0.00    +0.247 C 
ATOM      8  C   UNL     1      34.125 -15.855 -23.437  0.00  0.00    +0.123 C 
ATOM      9  C   UNL     1      33.608 -12.887 -19.989  0.00  0.00    +0.123 C 
ATOM     10  C   UNL     1      34.271 -16.319 -24.832  0.00  0.00    +0.064 C 
ENDROOT
BRANCH   7  11
ATOM     11  S   UNL     1      35.281 -18.098 -22.017  0.00  0.00    +0.052 S 
ATOM     12  O   UNL     1      34.972 -18.447 -20.634  0.00  0.00    -0.157 OA
ATOM     13  O   UNL     1      34.840 -18.957 -23.111  0.00  0.00    -0.157 OA
BRANCH  11  14
ATOM     14  N   UNL     1      36.987 -17.910 -22.137  0.00  0.00    -0.206 NA
ATOM     15  H   UNL     1      37.437 -18.390 -21.358  0.00  0.00    +0.144 HD
ATOM     16  H   UNL     1      37.222 -16.918 -22.107  0.00  0.00    +0.144 HD
ENDBRANCH  11  14
ENDBRANCH   7  11
BRANCH   5  17
ATOM     17  C   UNL     1      31.428 -11.369 -21.058  0.00  0.00    +0.112 C 
BRANCH  17  18
ATOM     18  C   UNL     1      31.702 -10.047 -21.689  0.00  0.00    -0.013 C 
ATOM     19  C   UNL     1      31.202  -8.880 -21.110  0.00  0.00    -0.004 C 
ATOM     20  C   UNL     1      32.459  -9.976 -22.859  0.00  0.00    -0.004 C 
ATOM     21  C   UNL     1      32.214  -7.572 -22.871  0.00  0.00    +0.018 C 
ATOM     22  C   UNL     1      31.459  -7.642 -21.701  0.00  0.00    +0.001 C 
ATOM     23  C   UNL     1      32.715  -8.738 -23.450  0.00  0.00    +0.001 C 
BRANCH  21  25
ATOM     24  N   UNL     1      31.401  -5.490 -23.622  0.00  0.00    -0.244 NA
ATOM     25  C   UNL     1      32.481  -6.289 -23.484  0.00  0.00    +0.081 C 
ATOM     26  C   UNL     1      33.761  -5.946 -23.883  0.00  0.00    +0.019 C 
ATOM     27  C   UNL     1      33.945  -4.696 -24.465  0.00  0.00    +0.003 C 
ATOM     28  C   UNL     1      31.619  -4.283 -24.192  0.00  0.00    +0.099 C 
ATOM     29  C   UNL     1      32.859  -3.843 -24.626  0.00  0.00    +0.021 C 
ENDBRANCH  21  25
ENDBRANCH  17  18
ENDBRANCH   5  17
TORSDOF 5
ENDMDL
