MODEL 1
REMARK VINA RESULT:     -10.7      0.000      0.000
REMARK  Name = 9951059
REMARK  5 active torsions:
REMARK  status: ('A' for Active; 'I' for Inactive)
REMARK    1  A    between atoms: C_1  and  C_8
REMARK    2  A    between atoms: C_1  and  N_11
REMARK    3  A    between atoms: C_1  and  C_22
REMARK    4  A    between atoms: C_12  and  C_17
REMARK    5  A    between atoms: C_22  and  C_25
REMARK                            x       y       z     vdW  Elec       q    Type
REMARK                         _______ _______ _______ _____ _____    ______ ____
ROOT
ATOM      1  C   UNL     1      33.653 -23.024 -15.578  0.00  0.00    +0.154 C 
ENDROOT
BRANCH   1   8
ATOM      2  O   UNL     1      32.896 -24.052 -13.570  0.00  0.00    -0.273 OA
ATOM      3  N   UNL     1      31.286 -23.152 -14.967  0.00  0.00    -0.280 N 
ATOM      4  C   UNL     1      30.141 -23.415 -14.093  0.00  0.00    +0.075 C 
ATOM      5  C   UNL     1      29.028 -22.542 -14.679  0.00  0.00    +0.022 C 
ATOM      6  C   UNL     1      29.355 -22.504 -16.166  0.00  0.00    +0.023 C 
ATOM      7  C   UNL     1      30.875 -22.453 -16.181  0.00  0.00    +0.093 C 
ATOM      8  C   UNL     1      32.587 -23.460 -14.605  0.00  0.00    +0.244 C 
ATOM      9  C   UNL     1      29.769 -24.897 -14.091  0.00  0.00    +0.022 C 
ENDBRANCH   1   8
BRANCH   1  11
ATOM     10  O   UNL     1      36.272 -22.526 -14.430  0.00  0.00    -0.273 OA
ATOM     11  N   UNL     1      34.708 -23.975 -15.369  0.00  0.00    -0.297 N 
ATOM     12  C   UNL     1      35.936 -23.645 -14.810  0.00  0.00    +0.244 C 
ATOM     13  H   UNL     1      34.552 -24.909 -15.636  0.00  0.00    +0.150 HD
BRANCH  12  17
ATOM     14  O   UNL     1      38.276 -25.811 -13.111  0.00  0.00    -0.436 OA
ATOM     15  O   UNL     1      40.249 -24.957 -13.905  0.00  0.00    -0.226 OA
ATOM     16  N   UNL     1      38.195 -24.398 -14.845  0.00  0.00    -0.261 N 
ATOM     17  C   UNL     1      36.844 -24.827 -14.681  0.00  0.00    +0.192 C 
ATOM     18  C   UNL     1      36.875 -25.522 -13.329  0.00  0.00    +0.197 C 
ATOM     19  C   UNL     1      36.385 -24.708 -12.138  0.00  0.00    +0.050 C 
ATOM     20  C   UNL     1      39.029 -25.036 -13.955  0.00  0.00    +0.402 C 
ATOM     21  H   UNL     1      38.492 -23.733 -15.507  0.00  0.00    +0.153 HD
ENDBRANCH  12  17
ENDBRANCH   1  11
BRANCH   1  22
ATOM     22  C   UNL     1      33.106 -23.034 -17.001  0.00  0.00    +0.071 C 
BRANCH  22  25
ATOM     23  S   UNL     1      34.670 -20.669 -19.796  0.00  0.00    -0.108 S 
ATOM     24  N   UNL     1      35.224 -21.963 -17.628  0.00  0.00    -0.266 NA
ATOM     25  C   UNL     1      33.903 -22.164 -17.930  0.00  0.00    +0.046 C 
ATOM     26  C   UNL     1      33.409 -21.560 -19.049  0.00  0.00    +0.100 C 
ATOM     27  C   UNL     1      35.736 -21.182 -18.553  0.00  0.00    +0.183 C 
ENDBRANCH  22  25
ENDBRANCH   1  22
TORSDOF 5
ENDMDL
MODEL 2
REMARK VINA RESULT:     -10.2      1.712      5.996
REMARK  Name = 9951059
REMARK  5 active torsions:
REMARK  status: ('A' for Active; 'I' for Inactive)
REMARK    1  A    between atoms: C_1  and  C_8
REMARK    2  A    between atoms: C_1  and  N_11
REMARK    3  A    between atoms: C_1  and  C_22
REMARK    4  A    between atoms: C_12  and  C_17
REMARK    5  A    between atoms: C_22  and  C_25
REMARK                            x       y       z     vdW  Elec       q    Type
REMARK                         _______ _______ _______ _____ _____    ______ ____
ROOT
ATOM      1  C   UNL     1      35.750 -22.688 -15.748  0.00  0.00    +0.154 C 
ENDROOT
BRANCH   1   8
ATOM      2  O   UNL     1      37.183 -22.114 -13.936  0.00  0.00    -0.273 OA
ATOM      3  N   UNL     1      36.721 -24.360 -14.247  0.00  0.00    -0.280 N 
ATOM      4  C   UNL     1      37.443 -24.843 -13.067  0.00  0.00    +0.075 C 
ATOM      5  C   UNL     1      36.930 -26.274 -12.888  0.00  0.00    +0.022 C 
ATOM      6  C   UNL     1      36.625 -26.720 -14.312  0.00  0.00    +0.023 C 
ATOM      7  C   UNL     1      36.070 -25.458 -14.955  0.00  0.00    +0.093 C 
ATOM      8  C   UNL     1      36.617 -23.014 -14.559  0.00  0.00    +0.244 C 
ATOM      9  C   UNL     1      38.955 -24.795 -13.280  0.00  0.00    +0.022 C 
ENDBRANCH   1   8
BRANCH   1  11
ATOM     10  O   UNL     1      33.145 -23.909 -16.138  0.00  0.00    -0.273 OA
ATOM     11  N   UNL     1      34.504 -22.291 -15.156  0.00  0.00    -0.297 N 
ATOM     12  C   UNL     1      33.298 -22.938 -15.401  0.00  0.00    +0.244 C 
ATOM     13  H   UNL     1      34.504 -21.521 -14.544  0.00  0.00    +0.150 HD
BRANCH  12  17
ATOM     14  O   UNL     1      30.292 -23.018 -13.400  0.00  0.00    -0.436 OA
ATOM     15  O   UNL     1      28.718 -22.779 -15.048  0.00  0.00    -0.226 OA
ATOM     16  N   UNL     1      30.979 -22.399 -15.438  0.00  0.00    -0.261 N 
ATOM     17  C   UNL     1      32.160 -22.339 -14.638  0.00  0.00    +0.192 C 
ATOM     18  C   UNL     1      31.738 -23.054 -13.365  0.00  0.00    +0.197 C 
ATOM     19  C   UNL     1      32.156 -24.514 -13.238  0.00  0.00    +0.050 C 
ATOM     20  C   UNL     1      29.882 -22.737 -14.679  0.00  0.00    +0.402 C 
ATOM     21  H   UNL     1      30.953 -22.221 -16.406  0.00  0.00    +0.153 HD
ENDBRANCH  12  17
ENDBRANCH   1  11
BRANCH   1  22
ATOM     22  C   UNL     1      36.394 -21.592 -16.588  0.00  0.00    +0.071 C 
BRANCH  22  25
ATOM     23  S   UNL     1      34.967 -20.578 -20.164  0.00  0.00    -0.108 S 
ATOM     24  N   UNL     1      34.538 -22.094 -18.114  0.00  0.00    -0.266 NA
ATOM     25  C   UNL     1      35.678 -21.370 -17.890  0.00  0.00    +0.046 C 
ATOM     26  C   UNL     1      36.080 -20.501 -18.862  0.00  0.00    +0.100 C 
ATOM     27  C   UNL     1      34.071 -21.756 -19.296  0.00  0.00    +0.183 C 
ENDBRANCH  22  25
ENDBRANCH   1  22
TORSDOF 5
ENDMDL
MODEL 3
REMARK VINA RESULT:     -10.1      1.692      2.167
REMARK  Name = 9951059
REMARK  5 active torsions:
REMARK  status: ('A' for Active; 'I' for Inactive)
REMARK    1  A    between atoms: C_1  and  C_8
REMARK    2  A    between atoms: C_1  and  N_11
REMARK    3  A    between atoms: C_1  and  C_22
REMARK    4  A    between atoms: C_12  and  C_17
REMARK    5  A    between atoms: C_22  and  C_25
REMARK                            x       y       z     vdW  Elec       q    Type
REMARK                         _______ _______ _______ _____ _____    ______ ____
ROOT
ATOM      1  C   UNL     1      33.291 -22.616 -15.005  0.00  0.00    +0.154 C 
ENDROOT
BRANCH   1   8
ATOM      2  O   UNL     1      32.377 -24.033 -13.325  0.00  0.00    -0.273 OA
ATOM      3  N   UNL     1      30.906 -23.155 -14.881  0.00  0.00    -0.280 N 
ATOM      4  C   UNL     1      29.686 -23.702 -14.283  0.00  0.00    +0.075 C 
ATOM      5  C   UNL     1      28.564 -22.908 -14.957  0.00  0.00    +0.022 C 
ATOM      6  C   UNL     1      29.130 -22.599 -16.337  0.00  0.00    +0.023 C 
ATOM      7  C   UNL     1      30.602 -22.340 -16.054  0.00  0.00    +0.093 C 
ATOM      8  C   UNL     1      32.159 -23.336 -14.317  0.00  0.00    +0.244 C 
ATOM      9  C   UNL     1      29.563 -25.203 -14.539  0.00  0.00    +0.022 C 
ENDBRANCH   1   8
BRANCH   1  11
ATOM     10  O   UNL     1      35.609 -24.344 -14.745  0.00  0.00    -0.273 OA
ATOM     11  N   UNL     1      34.313 -22.558 -14.000  0.00  0.00    -0.297 N 
ATOM     12  C   UNL     1      35.393 -23.431 -13.953  0.00  0.00    +0.244 C 
ATOM     13  H   UNL     1      34.245 -21.862 -13.307  0.00  0.00    +0.150 HD
BRANCH  12  17
ATOM     14  O   UNL     1      37.285 -24.211 -10.975  0.00  0.00    -0.436 OA
ATOM     15  O   UNL     1      35.824 -23.463  -9.376  0.00  0.00    -0.226 OA
ATOM     16  N   UNL     1      35.559 -22.943 -11.628  0.00  0.00    -0.261 N 
ATOM     17  C   UNL     1      36.322 -23.134 -12.819  0.00  0.00    +0.192 C 
ATOM     18  C   UNL     1      37.291 -24.235 -12.422  0.00  0.00    +0.197 C 
ATOM     19  C   UNL     1      36.925 -25.649 -12.858  0.00  0.00    +0.050 C 
ATOM     20  C   UNL     1      36.175 -23.529 -10.545  0.00  0.00    +0.402 C 
ATOM     21  H   UNL     1      34.705 -22.456 -11.585  0.00  0.00    +0.153 HD
ENDBRANCH  12  17
ENDBRANCH   1  11
BRANCH   1  22
ATOM     22  C   UNL     1      33.718 -23.375 -16.256  0.00  0.00    +0.071 C 
BRANCH  22  25
ATOM     23  S   UNL     1      34.507 -21.046 -19.387  0.00  0.00    -0.108 S 
ATOM     24  N   UNL     1      35.507 -21.981 -17.195  0.00  0.00    -0.266 NA
ATOM     25  C   UNL     1      34.233 -22.465 -17.333  0.00  0.00    +0.046 C 
ATOM     26  C   UNL     1      33.527 -22.085 -18.438  0.00  0.00    +0.100 C 
ATOM     27  C   UNL     1      35.763 -21.213 -18.230  0.00  0.00    +0.183 C 
ENDBRANCH  22  25
ENDBRANCH   1  22
TORSDOF 5
ENDMDL
MODEL 4
REMARK VINA RESULT:     -10.0      2.898      6.602
REMARK  Name = 9951059
REMARK  5 active torsions:
REMARK  status: ('A' for Active; 'I' for Inactive)
REMARK    1  A    between atoms: C_1  and  C_8
REMARK    2  A    between atoms: C_1  and  N_11
REMARK    3  A    between atoms: C_1  and  C_22
REMARK    4  A    between atoms: C_12  and  C_17
REMARK    5  A    between atoms: C_22  and  C_25
REMARK                            x       y       z     vdW  Elec       q    Type
REMARK                         _______ _______ _______ _____ _____    ______ ____
ROOT
ATOM      1  C   UNL     1      33.761 -23.368 -14.311  0.00  0.00    +0.154 C 
ENDROOT
BRANCH   1   8
ATOM      2  O   UNL     1      34.962 -25.243 -15.154  0.00  0.00    -0.273 OA
ATOM      3  N   UNL     1      35.934 -24.058 -13.421  0.00  0.00    -0.280 N 
ATOM      4  C   UNL     1      37.186 -24.818 -13.382  0.00  0.00    +0.075 C 
ATOM      5  C   UNL     1      38.121 -23.937 -12.550  0.00  0.00    +0.022 C 
ATOM      6  C   UNL     1      37.175 -23.228 -11.589  0.00  0.00    +0.023 C 
ATOM      7  C   UNL     1      35.945 -22.972 -12.445  0.00  0.00    +0.093 C 
ATOM      8  C   UNL     1      34.935 -24.314 -14.345  0.00  0.00    +0.244 C 
ATOM      9  C   UNL     1      36.983 -26.196 -12.753  0.00  0.00    +0.022 C 
ENDBRANCH   1   8
BRANCH   1  11
ATOM     10  O   UNL     1      35.279 -21.951 -16.339  0.00  0.00    -0.273 OA
ATOM     11  N   UNL     1      33.423 -23.202 -15.696  0.00  0.00    -0.297 N 
ATOM     12  C   UNL     1      34.214 -22.504 -16.600  0.00  0.00    +0.244 C 
ATOM     13  H   UNL     1      32.587 -23.605 -16.022  0.00  0.00    +0.150 HD
BRANCH  12  17
ATOM     14  O   UNL     1      33.631 -21.168 -19.905  0.00  0.00    -0.436 OA
ATOM     15  O   UNL     1      31.610 -20.143 -19.563  0.00  0.00    -0.226 OA
ATOM     16  N   UNL     1      32.514 -21.633 -18.022  0.00  0.00    -0.261 N 
ATOM     17  C   UNL     1      33.644 -22.505 -17.983  0.00  0.00    +0.192 C 
ATOM     18  C   UNL     1      34.530 -21.954 -19.088  0.00  0.00    +0.197 C 
ATOM     19  C   UNL     1      35.669 -21.041 -18.652  0.00  0.00    +0.050 C 
ATOM     20  C   UNL     1      32.492 -20.903 -19.189  0.00  0.00    +0.402 C 
ATOM     21  H   UNL     1      31.840 -21.563 -17.309  0.00  0.00    +0.153 HD
ENDBRANCH  12  17
ENDBRANCH   1  11
BRANCH   1  22
ATOM     22  C   UNL     1      32.629 -23.960 -13.480  0.00  0.00    +0.071 C 
BRANCH  22  25
ATOM     23  S   UNL     1      28.984 -23.995 -15.081  0.00  0.00    -0.108 S 
ATOM     24  N   UNL     1      30.935 -22.441 -14.403  0.00  0.00    -0.266 NA
ATOM     25  C   UNL     1      31.280 -23.732 -14.101  0.00  0.00    +0.046 C 
ATOM     26  C   UNL     1      30.377 -24.714 -14.385  0.00  0.00    +0.100 C 
ATOM     27  C   UNL     1      29.731 -22.458 -14.930  0.00  0.00    +0.183 C 
ENDBRANCH  22  25
ENDBRANCH   1  22
TORSDOF 5
ENDMDL
MODEL 5
REMARK VINA RESULT:      -9.8      1.741      2.038
REMARK  Name = 9951059
REMARK  5 active torsions:
REMARK  status: ('A' for Active; 'I' for Inactive)
REMARK    1  A    between atoms: C_1  and  C_8
REMARK    2  A    between atoms: C_1  and  N_11
REMARK    3  A    between atoms: C_1  and  C_22
REMARK    4  A    between atoms: C_12  and  C_17
REMARK    5  A    between atoms: C_22  and  C_25
REMARK                            x       y       z     vdW  Elec       q    Type
REMARK                         _______ _______ _______ _____ _____    ______ ____
ROOT
ATOM      1  C   UNL     1      33.393 -23.277 -14.299  0.00  0.00    +0.154 C 
ENDROOT
BRANCH   1   8
ATOM      2  O   UNL     1      32.060 -24.723 -12.958  0.00  0.00    -0.273 OA
ATOM      3  N   UNL     1      30.969 -23.478 -14.574  0.00  0.00    -0.280 N 
ATOM      4  C   UNL     1      29.612 -23.905 -14.226  0.00  0.00    +0.075 C 
ATOM      5  C   UNL     1      28.716 -22.889 -14.939  0.00  0.00    +0.022 C 
ATOM      6  C   UNL     1      29.522 -22.515 -16.176  0.00  0.00    +0.023 C 
ATOM      7  C   UNL     1      30.953 -22.504 -15.662  0.00  0.00    +0.093 C 
ATOM      8  C   UNL     1      32.087 -23.898 -13.872  0.00  0.00    +0.244 C 
ATOM      9  C   UNL     1      29.341 -25.336 -14.688  0.00  0.00    +0.022 C 
ENDBRANCH   1   8
BRANCH   1  11
ATOM     10  O   UNL     1      34.641 -23.144 -11.681  0.00  0.00    -0.273 OA
ATOM     11  N   UNL     1      34.380 -24.167 -13.758  0.00  0.00    -0.297 N 
ATOM     12  C   UNL     1      34.925 -24.027 -12.487  0.00  0.00    +0.244 C 
ATOM     13  H   UNL     1      34.687 -24.917 -14.316  0.00  0.00    +0.150 HD
BRANCH  12  17
ATOM     14  O   UNL     1      38.180 -25.593 -12.480  0.00  0.00    -0.436 OA
ATOM     15  O   UNL     1      37.954 -26.976 -14.292  0.00  0.00    -0.226 OA
ATOM     16  N   UNL     1      36.132 -25.900 -13.327  0.00  0.00    -0.261 N 
ATOM     17  C   UNL     1      35.912 -25.103 -12.164  0.00  0.00    +0.192 C 
ATOM     18  C   UNL     1      37.317 -24.653 -11.796  0.00  0.00    +0.197 C 
ATOM     19  C   UNL     1      37.719 -23.253 -12.244  0.00  0.00    +0.050 C 
ATOM     20  C   UNL     1      37.462 -26.230 -13.458  0.00  0.00    +0.402 C 
ATOM     21  H   UNL     1      35.425 -26.178 -13.953  0.00  0.00    +0.153 HD
ENDBRANCH  12  17
ENDBRANCH   1  11
BRANCH   1  22
ATOM     22  C   UNL     1      33.452 -23.161 -15.817  0.00  0.00    +0.071 C 
BRANCH  22  25
ATOM     23  S   UNL     1      36.848 -21.183 -16.453  0.00  0.00    -0.108 S 
ATOM     24  N   UNL     1      34.732 -22.098 -17.622  0.00  0.00    -0.266 NA
ATOM     25  C   UNL     1      34.661 -22.407 -16.289  0.00  0.00    +0.046 C 
ATOM     26  C   UNL     1      35.693 -22.007 -15.490  0.00  0.00    +0.100 C 
ATOM     27  C   UNL     1      35.855 -21.445 -17.827  0.00  0.00    +0.183 C 
ENDBRANCH  22  25
ENDBRANCH   1  22
TORSDOF 5
ENDMDL
MODEL 6
REMARK VINA RESULT:      -9.8      2.201      6.511
REMARK  Name = 9951059
REMARK  5 active torsions:
REMARK  status: ('A' for Active; 'I' for Inactive)
REMARK    1  A    between atoms: C_1  and  C_8
REMARK    2  A    between atoms: C_1  and  N_11
REMARK    3  A    between atoms: C_1  and  C_22
REMARK    4  A    between atoms: C_12  and  C_17
REMARK    5  A    between atoms: C_22  and  C_25
REMARK                            x       y       z     vdW  Elec       q    Type
REMARK                         _______ _______ _______ _____ _____    ______ ____
ROOT
ATOM      1  C   UNL     1      34.221 -23.119 -14.936  0.00  0.00    +0.154 C 
ENDROOT
BRANCH   1   8
ATOM      2  O   UNL     1      33.720 -23.474 -12.637  0.00  0.00    -0.273 OA
ATOM      3  N   UNL     1      35.746 -24.278 -13.412  0.00  0.00    -0.280 N 
ATOM      4  C   UNL     1      36.157 -24.925 -12.163  0.00  0.00    +0.075 C 
ATOM      5  C   UNL     1      37.305 -25.843 -12.590  0.00  0.00    +0.022 C 
ATOM      6  C   UNL     1      37.934 -25.101 -13.762  0.00  0.00    +0.023 C 
ATOM      7  C   UNL     1      36.731 -24.493 -14.468  0.00  0.00    +0.093 C 
ATOM      8  C   UNL     1      34.526 -23.637 -13.553  0.00  0.00    +0.244 C 
ATOM      9  C   UNL     1      36.598 -23.898 -11.122  0.00  0.00    +0.022 C 
ENDBRANCH   1   8
BRANCH   1  11
ATOM     10  O   UNL     1      31.996 -23.796 -16.672  0.00  0.00    -0.273 OA
ATOM     11  N   UNL     1      32.865 -22.662 -14.832  0.00  0.00    -0.297 N 
ATOM     12  C   UNL     1      31.859 -23.041 -15.713  0.00  0.00    +0.244 C 
ATOM     13  H   UNL     1      32.635 -22.049 -14.098  0.00  0.00    +0.150 HD
BRANCH  12  17
ATOM     14  O   UNL     1      28.310 -23.101 -15.043  0.00  0.00    -0.436 OA
ATOM     15  O   UNL     1      27.510 -22.528 -17.113  0.00  0.00    -0.226 OA
ATOM     16  N   UNL     1      29.756 -22.302 -16.552  0.00  0.00    -0.261 N 
ATOM     17  C   UNL     1      30.534 -22.442 -15.363  0.00  0.00    +0.192 C 
ATOM     18  C   UNL     1      29.626 -23.267 -14.466  0.00  0.00    +0.197 C 
ATOM     19  C   UNL     1      29.914 -24.762 -14.403  0.00  0.00    +0.050 C 
ATOM     20  C   UNL     1      28.440 -22.633 -16.326  0.00  0.00    +0.402 C 
ATOM     21  H   UNL     1      30.114 -22.007 -17.420  0.00  0.00    +0.153 HD
ENDBRANCH  12  17
ENDBRANCH   1  11
BRANCH   1  22
ATOM     22  C   UNL     1      35.202 -22.016 -15.317  0.00  0.00    +0.071 C 
BRANCH  22  25
ATOM     23  S   UNL     1      35.885 -21.086 -19.127  0.00  0.00    -0.108 S 
ATOM     24  N   UNL     1      34.182 -22.211 -17.541  0.00  0.00    -0.266 NA
ATOM     25  C   UNL     1      35.244 -21.771 -16.798  0.00  0.00    +0.046 C 
ATOM     26  C   UNL     1      36.262 -21.141 -17.455  0.00  0.00    +0.100 C 
ATOM     27  C   UNL     1      34.413 -21.902 -18.798  0.00  0.00    +0.183 C 
ENDBRANCH  22  25
ENDBRANCH   1  22
TORSDOF 5
ENDMDL
MODEL 7
REMARK VINA RESULT:      -9.5      2.153      4.703
REMARK  Name = 9951059
REMARK  5 active torsions:
REMARK  status: ('A' for Active; 'I' for Inactive)
REMARK    1  A    between atoms: C_1  and  C_8
REMARK    2  A    between atoms: C_1  and  N_11
REMARK    3  A    between atoms: C_1  and  C_22
REMARK    4  A    between atoms: C_12  and  C_17
REMARK    5  A    between atoms: C_22  and  C_25
REMARK                            x       y       z     vdW  Elec       q    Type
REMARK                         _______ _______ _______ _____ _____    ______ ____
ROOT
ATOM      1  C   UNL     1      35.270 -23.087 -15.850  0.00  0.00    +0.154 C 
ENDROOT
BRANCH   1   8
ATOM      2  O   UNL     1      37.267 -21.961 -16.493  0.00  0.00    -0.273 OA
ATOM      3  N   UNL     1      35.421 -21.703 -17.864  0.00  0.00    -0.280 N 
ATOM      4  C   UNL     1      36.091 -20.909 -18.897  0.00  0.00    +0.075 C 
ATOM      5  C   UNL     1      35.124 -20.965 -20.082  0.00  0.00    +0.022 C 
ATOM      6  C   UNL     1      33.757 -21.070 -19.418  0.00  0.00    +0.023 C 
ATOM      7  C   UNL     1      34.028 -21.962 -18.216  0.00  0.00    +0.093 C 
ATOM      8  C   UNL     1      36.088 -22.203 -16.757  0.00  0.00    +0.244 C 
ATOM      9  C   UNL     1      36.342 -19.478 -18.425  0.00  0.00    +0.022 C 
ENDBRANCH   1   8
BRANCH   1  11
ATOM     10  O   UNL     1      35.078 -25.933 -15.313  0.00  0.00    -0.273 OA
ATOM     11  N   UNL     1      36.252 -23.924 -15.222  0.00  0.00    -0.297 N 
ATOM     12  C   UNL     1      36.074 -25.284 -15.004  0.00  0.00    +0.244 C 
ATOM     13  H   UNL     1      37.097 -23.511 -14.930  0.00  0.00    +0.150 HD
BRANCH  12  17
ATOM     14  O   UNL     1      38.705 -25.572 -12.546  0.00  0.00    -0.436 OA
ATOM     15  O   UNL     1      40.430 -24.603 -13.702  0.00  0.00    -0.226 OA
ATOM     16  N   UNL     1      38.439 -25.215 -14.739  0.00  0.00    -0.261 N 
ATOM     17  C   UNL     1      37.261 -25.923 -14.356  0.00  0.00    +0.192 C 
ATOM     18  C   UNL     1      37.320 -25.873 -12.838  0.00  0.00    +0.197 C 
ATOM     19  C   UNL     1      36.468 -24.806 -12.162  0.00  0.00    +0.050 C 
ATOM     20  C   UNL     1      39.302 -25.075 -13.676  0.00  0.00    +0.402 C 
ATOM     21  H   UNL     1      38.613 -24.870 -15.645  0.00  0.00    +0.153 HD
ENDBRANCH  12  17
ENDBRANCH   1  11
BRANCH   1  22
ATOM     22  C   UNL     1      34.477 -22.241 -14.861  0.00  0.00    +0.071 C 
BRANCH  22  25
ATOM     23  S   UNL     1      31.357 -24.197 -13.349  0.00  0.00    -0.108 S 
ATOM     24  N   UNL     1      32.081 -22.607 -15.253  0.00  0.00    -0.266 NA
ATOM     25  C   UNL     1      33.174 -22.879 -14.474  0.00  0.00    +0.046 C 
ATOM     26  C   UNL     1      33.000 -23.710 -13.405  0.00  0.00    +0.100 C 
ATOM     27  C   UNL     1      31.054 -23.254 -14.750  0.00  0.00    +0.183 C 
ENDBRANCH  22  25
ENDBRANCH   1  22
TORSDOF 5
ENDMDL
MODEL 8
REMARK VINA RESULT:      -9.2      1.500      2.030
REMARK  Name = 9951059
REMARK  5 active torsions:
REMARK  status: ('A' for Active; 'I' for Inactive)
REMARK    1  A    between atoms: C_1  and  C_8
REMARK    2  A    between atoms: C_1  and  N_11
REMARK    3  A    between atoms: C_1  and  C_22
REMARK    4  A    between atoms: C_12  and  C_17
REMARK    5  A    between atoms: C_22  and  C_25
REMARK                            x       y       z     vdW  Elec       q    Type
REMARK                         _______ _______ _______ _____ _____    ______ ____
ROOT
ATOM      1  C   UNL     1      33.062 -22.693 -16.756  0.00  0.00    +0.154 C 
ENDROOT
BRANCH   1   8
ATOM      2  O   UNL     1      30.757 -22.792 -17.339  0.00  0.00    -0.273 OA
ATOM      3  N   UNL     1      31.282 -22.889 -15.088  0.00  0.00    -0.280 N 
ATOM      4  C   UNL     1      29.914 -23.095 -14.606  0.00  0.00    +0.075 C 
ATOM      5  C   UNL     1      30.104 -23.567 -13.162  0.00  0.00    +0.022 C 
ATOM      6  C   UNL     1      31.384 -22.865 -12.727  0.00  0.00    +0.023 C 
ATOM      7  C   UNL     1      32.239 -22.899 -13.984  0.00  0.00    +0.093 C 
ATOM      8  C   UNL     1      31.593 -22.797 -16.435  0.00  0.00    +0.244 C 
ATOM      9  C   UNL     1      29.095 -21.808 -14.688  0.00  0.00    +0.022 C 
ENDBRANCH   1   8
BRANCH   1  11
ATOM     10  O   UNL     1      35.860 -22.865 -16.001  0.00  0.00    -0.273 OA
ATOM     11  N   UNL     1      33.669 -23.646 -15.871  0.00  0.00    -0.297 N 
ATOM     12  C   UNL     1      35.024 -23.653 -15.565  0.00  0.00    +0.244 C 
ATOM     13  H   UNL     1      33.094 -24.330 -15.459  0.00  0.00    +0.150 HD
BRANCH  12  17
ATOM     14  O   UNL     1      36.738 -25.057 -12.712  0.00  0.00    -0.436 OA
ATOM     15  O   UNL     1      38.528 -26.024 -13.766  0.00  0.00    -0.226 OA
ATOM     16  N   UNL     1      36.674 -25.253 -14.940  0.00  0.00    -0.261 N 
ATOM     17  C   UNL     1      35.389 -24.735 -14.599  0.00  0.00    +0.192 C 
ATOM     18  C   UNL     1      35.570 -24.322 -13.147  0.00  0.00    +0.197 C 
ATOM     19  C   UNL     1      35.839 -22.844 -12.891  0.00  0.00    +0.050 C 
ATOM     20  C   UNL     1      37.427 -25.495 -13.814  0.00  0.00    +0.402 C 
ATOM     21  H   UNL     1      36.982 -25.416 -15.861  0.00  0.00    +0.153 HD
ENDBRANCH  12  17
ENDBRANCH   1  11
BRANCH   1  22
ATOM     22  C   UNL     1      33.305 -22.998 -18.230  0.00  0.00    +0.071 C 
BRANCH  22  25
ATOM     23  S   UNL     1      34.016 -19.715 -20.366  0.00  0.00    -0.108 S 
ATOM     24  N   UNL     1      35.162 -21.605 -19.027  0.00  0.00    -0.266 NA
ATOM     25  C   UNL     1      33.808 -21.804 -18.989  0.00  0.00    +0.046 C 
ATOM     26  C   UNL     1      33.016 -20.906 -19.644  0.00  0.00    +0.100 C 
ATOM     27  C   UNL     1      35.392 -20.520 -19.733  0.00  0.00    +0.183 C 
ENDBRANCH  22  25
ENDBRANCH   1  22
TORSDOF 5
ENDMDL
MODEL 9
REMARK VINA RESULT:      -8.6      1.924      2.728
REMARK  Name = 9951059
REMARK  5 active torsions:
REMARK  status: ('A' for Active; 'I' for Inactive)
REMARK    1  A    between atoms: C_1  and  C_8
REMARK    2  A    between atoms: C_1  and  N_11
REMARK    3  A    between atoms: C_1  and  C_22
REMARK    4  A    between atoms: C_12  and  C_17
REMARK    5  A    between atoms: C_22  and  C_25
REMARK                            x       y       z     vdW  Elec       q    Type
REMARK                         _______ _______ _______ _____ _____    ______ ____
ROOT
ATOM      1  C   UNL     1      33.272 -22.411 -16.397  0.00  0.00    +0.154 C 
ENDROOT
BRANCH   1   8
ATOM      2  O   UNL     1      31.726 -24.021 -17.222  0.00  0.00    -0.273 OA
ATOM      3  N   UNL     1      31.395 -23.247 -15.067  0.00  0.00    -0.280 N 
ATOM      4  C   UNL     1      30.262 -24.119 -14.749  0.00  0.00    +0.075 C 
ATOM      5  C   UNL     1      30.145 -24.023 -13.226  0.00  0.00    +0.022 C 
ATOM      6  C   UNL     1      30.630 -22.611 -12.923  0.00  0.00    +0.023 C 
ATOM      7  C   UNL     1      31.759 -22.415 -13.924  0.00  0.00    +0.093 C 
ATOM      8  C   UNL     1      32.064 -23.305 -16.278  0.00  0.00    +0.244 C 
ATOM      9  C   UNL     1      28.987 -23.657 -15.454  0.00  0.00    +0.022 C 
ENDBRANCH   1   8
BRANCH   1  11
ATOM     10  O   UNL     1      36.017 -21.643 -15.846  0.00  0.00    -0.273 OA
ATOM     11  N   UNL     1      34.061 -22.759 -15.250  0.00  0.00    -0.297 N 
ATOM     12  C   UNL     1      35.375 -22.343 -15.068  0.00  0.00    +0.244 C 
ATOM     13  H   UNL     1      33.650 -23.321 -14.554  0.00  0.00    +0.150 HD
BRANCH  12  17
ATOM     14  O   UNL     1      36.148 -24.802 -12.537  0.00  0.00    -0.436 OA
ATOM     15  O   UNL     1      34.407 -24.439 -11.093  0.00  0.00    -0.226 OA
ATOM     16  N   UNL     1      34.910 -22.958 -12.815  0.00  0.00    -0.261 N 
ATOM     17  C   UNL     1      35.956 -22.825 -13.777  0.00  0.00    +0.192 C 
ATOM     18  C   UNL     1      36.584 -24.209 -13.783  0.00  0.00    +0.197 C 
ATOM     19  C   UNL     1      36.154 -25.142 -14.909  0.00  0.00    +0.050 C 
ATOM     20  C   UNL     1      35.077 -24.094 -12.055  0.00  0.00    +0.402 C 
ATOM     21  H   UNL     1      34.166 -22.323 -12.709  0.00  0.00    +0.153 HD
ENDBRANCH  12  17
ENDBRANCH   1  11
BRANCH   1  22
ATOM     22  C   UNL     1      33.988 -22.660 -17.719  0.00  0.00    +0.071 C 
BRANCH  22  25
ATOM     23  S   UNL     1      33.867 -19.790 -20.476  0.00  0.00    -0.108 S 
ATOM     24  N   UNL     1      32.387 -21.304 -18.994  0.00  0.00    -0.266 NA
ATOM     25  C   UNL     1      33.700 -21.594 -18.738  0.00  0.00    +0.046 C 
ATOM     26  C   UNL     1      34.650 -20.896 -19.425  0.00  0.00    +0.100 C 
ATOM     27  C   UNL     1      32.352 -20.357 -19.905  0.00  0.00    +0.183 C 
ENDBRANCH  22  25
ENDBRANCH   1  22
TORSDOF 5
ENDMDL
