MODEL 1
REMARK VINA RESULT:     -13.1      0.000      0.000
REMARK  Name = 208951
REMARK  4 active torsions:
REMARK  status: ('A' for Active; 'I' for Inactive)
REMARK    1  A    between atoms: N_1  and  C_19
REMARK    2  A    between atoms: N_2  and  C_11
REMARK    3  A    between atoms: C_19  and  C_20
REMARK    4  A    between atoms: C_23  and  C_26
REMARK                            x       y       z     vdW  Elec       q    Type
REMARK                         _______ _______ _______ _____ _____    ______ ____
ROOT
ATOM      1  N   UNL     1      35.007 -20.045 -20.686  0.00  0.00    +0.392 N 
ATOM      2  N   UNL     1      33.664 -21.281 -18.490  0.00  0.00    -0.309 N 
ATOM      3  C   UNL     1      33.687 -19.568 -20.259  0.00  0.00    -0.055 C 
ATOM      4  C   UNL     1      35.767 -20.519 -19.523  0.00  0.00    -0.055 C 
ATOM      5  C   UNL     1      32.890 -20.686 -19.583  0.00  0.00    +0.068 C 
ATOM      6  C   UNL     1      35.040 -21.670 -18.823  0.00  0.00    +0.068 C 
ATOM      7  H   UNL     1      34.883 -20.822 -21.337  0.00  0.00    -0.079 HD
ENDROOT
BRANCH   2  11
ATOM      8  O   UNL     1      35.067 -22.756 -16.361  0.00  0.00    -0.406 OA
ATOM      9  O   UNL     1      36.328 -23.858 -14.766  0.00  0.00    -0.223 OA
ATOM     10  N   UNL     1      34.000 -23.930 -14.697  0.00  0.00    -0.287 N 
ATOM     11  C   UNL     1      33.006 -21.995 -17.481  0.00  0.00    +0.084 C 
ATOM     12  C   UNL     1      33.688 -22.684 -16.485  0.00  0.00    +0.179 A 
ATOM     13  C   UNL     1      31.599 -22.054 -17.414  0.00  0.00    +0.018 C 
ATOM     14  C   UNL     1      33.030 -23.381 -15.496  0.00  0.00    +0.098 A 
ATOM     15  C   UNL     1      30.937 -22.772 -16.398  0.00  0.00    +0.003 C 
ATOM     16  C   UNL     1      31.658 -23.452 -15.415  0.00  0.00    +0.020 C 
ATOM     17  C   UNL     1      35.229 -23.556 -15.215  0.00  0.00    +0.419 A 
ATOM     18  H   UNL     1      33.850 -24.488 -13.901  0.00  0.00    +0.172 HD
ENDBRANCH   2  11
BRANCH   1  19
ATOM     19  C   UNL     1      35.737 -18.984 -21.378  0.00  0.00    -0.050 C 
BRANCH  19  20
ATOM     20  C   UNL     1      34.897 -18.367 -22.464  0.00  0.00    -0.043 C 
ATOM     21  C   UNL     1      34.675 -16.996 -22.462  0.00  0.00    -0.006 C 
ATOM     22  C   UNL     1      34.356 -19.176 -23.454  0.00  0.00    -0.006 C 
ATOM     23  C   UNL     1      33.897 -16.425 -23.469  0.00  0.00    -0.000 C 
ATOM     24  C   UNL     1      33.579 -18.606 -24.460  0.00  0.00    -0.000 C 
ATOM     25  C   UNL     1      33.349 -17.230 -24.468  0.00  0.00    -0.000 C 
BRANCH  23  26
ATOM     26  C   UNL     1      33.660 -14.998 -23.479  0.00  0.00    -0.000 C 
ATOM     27  C   UNL     1      33.131 -14.386 -24.615  0.00  0.00    -0.000 C 
ATOM     28  C   UNL     1      33.960 -14.233 -22.351  0.00  0.00    -0.000 C 
ATOM     29  C   UNL     1      32.901 -13.011 -24.625  0.00  0.00    -0.000 C 
ATOM     30  C   UNL     1      33.732 -12.857 -22.361  0.00  0.00    -0.000 C 
ATOM     31  C   UNL     1      33.201 -12.246 -23.498  0.00  0.00    +0.000 C 
ENDBRANCH  23  26
ENDBRANCH  19  20
ENDBRANCH   1  19
TORSDOF 4
ENDMDL
MODEL 2
REMARK VINA RESULT:     -12.9      3.125      9.551
REMARK  Name = 208951
REMARK  4 active torsions:
REMARK  status: ('A' for Active; 'I' for Inactive)
REMARK    1  A    between atoms: N_1  and  C_19
REMARK    2  A    between atoms: N_2  and  C_11
REMARK    3  A    between atoms: C_19  and  C_20
REMARK    4  A    between atoms: C_23  and  C_26
REMARK                            x       y       z     vdW  Elec       q    Type
REMARK                         _______ _______ _______ _____ _____    ______ ____
ROOT
ATOM      1  N   UNL     1      35.398 -20.092 -19.884  0.00  0.00    +0.392 N 
ATOM      2  N   UNL     1      34.668 -18.101 -21.798  0.00  0.00    -0.309 N 
ATOM      3  C   UNL     1      34.155 -20.221 -20.653  0.00  0.00    -0.055 C 
ATOM      4  C   UNL     1      36.426 -19.437 -20.702  0.00  0.00    -0.055 C 
ATOM      5  C   UNL     1      33.629 -18.849 -21.084  0.00  0.00    +0.068 C 
ATOM      6  C   UNL     1      35.976 -18.039 -21.134  0.00  0.00    +0.068 C 
ATOM      7  H   UNL     1      35.218 -19.517 -19.060  0.00  0.00    -0.079 HD
ENDROOT
BRANCH   2  11
ATOM      8  O   UNL     1      34.336 -15.326 -20.872  0.00  0.00    -0.406 OA
ATOM      9  O   UNL     1      34.121 -13.205 -19.973  0.00  0.00    -0.223 OA
ATOM     10  N   UNL     1      33.746 -13.578 -22.243  0.00  0.00    -0.287 N 
ATOM     11  C   UNL     1      34.308 -17.043 -22.640  0.00  0.00    +0.084 C 
ATOM     12  C   UNL     1      34.157 -15.740 -22.182  0.00  0.00    +0.179 A 
ATOM     13  C   UNL     1      34.077 -17.239 -24.017  0.00  0.00    +0.018 C 
ATOM     14  C   UNL     1      33.803 -14.705 -23.021  0.00  0.00    +0.098 A 
ATOM     15  C   UNL     1      33.714 -16.173 -24.866  0.00  0.00    +0.003 C 
ATOM     16  C   UNL     1      33.573 -14.877 -24.366  0.00  0.00    +0.020 C 
ATOM     17  C   UNL     1      34.067 -13.946 -20.947  0.00  0.00    +0.419 A 
ATOM     18  H   UNL     1      33.520 -12.671 -22.551  0.00  0.00    +0.172 HD
ENDBRANCH   2  11
BRANCH   1  19
ATOM     19  C   UNL     1      35.860 -21.403 -19.433  0.00  0.00    -0.050 C 
BRANCH  19  20
ATOM     20  C   UNL     1      35.679 -21.560 -17.948  0.00  0.00    -0.043 C 
ATOM     21  C   UNL     1      34.501 -22.107 -17.456  0.00  0.00    -0.006 C 
ATOM     22  C   UNL     1      36.692 -21.158 -17.088  0.00  0.00    -0.006 C 
ATOM     23  C   UNL     1      34.334 -22.254 -16.079  0.00  0.00    -0.000 C 
ATOM     24  C   UNL     1      36.524 -21.304 -15.712  0.00  0.00    -0.000 C 
ATOM     25  C   UNL     1      35.345 -21.852 -15.207  0.00  0.00    -0.000 C 
BRANCH  23  26
ATOM     26  C   UNL     1      33.111 -22.824 -15.555  0.00  0.00    -0.000 C 
ATOM     27  C   UNL     1      31.926 -22.722 -16.283  0.00  0.00    -0.000 C 
ATOM     28  C   UNL     1      33.118 -23.476 -14.321  0.00  0.00    -0.000 C 
ATOM     29  C   UNL     1      30.748 -23.272 -15.778  0.00  0.00    -0.000 C 
ATOM     30  C   UNL     1      31.940 -24.025 -13.816  0.00  0.00    -0.000 C 
ATOM     31  C   UNL     1      30.755 -23.924 -14.545  0.00  0.00    +0.000 C 
ENDBRANCH  23  26
ENDBRANCH  19  20
ENDBRANCH   1  19
TORSDOF 4
ENDMDL
MODEL 3
REMARK VINA RESULT:     -12.9      5.832     10.595
REMARK  Name = 208951
REMARK  4 active torsions:
REMARK  status: ('A' for Active; 'I' for Inactive)
REMARK    1  A    between atoms: N_1  and  C_19
REMARK    2  A    between atoms: N_2  and  C_11
REMARK    3  A    between atoms: C_19  and  C_20
REMARK    4  A    between atoms: C_23  and  C_26
REMARK                            x       y       z     vdW  Elec       q    Type
REMARK                         _______ _______ _______ _____ _____    ______ ____
ROOT
ATOM      1  N   UNL     1      33.644 -14.251 -22.856  0.00  0.00    +0.392 N 
ATOM      2  N   UNL     1      32.599 -11.879 -21.657  0.00  0.00    -0.309 N 
ATOM      3  C   UNL     1      33.547 -13.008 -23.630  0.00  0.00    -0.055 C 
ATOM      4  C   UNL     1      33.930 -13.943 -21.450  0.00  0.00    -0.055 C 
ATOM      5  C   UNL     1      32.428 -12.112 -23.094  0.00  0.00    +0.068 C 
ATOM      6  C   UNL     1      32.823 -13.079 -20.841  0.00  0.00    +0.068 C 
ATOM      7  H   UNL     1      32.752 -14.743 -22.911  0.00  0.00    -0.079 HD
ENDROOT
BRANCH   2  11
ATOM      8  O   UNL     1      31.887  -9.414 -23.103  0.00  0.00    -0.406 OA
ATOM      9  O   UNL     1      31.398  -7.556 -24.392  0.00  0.00    -0.223 OA
ATOM     10  N   UNL     1      30.866  -7.602 -22.123  0.00  0.00    -0.287 N 
ATOM     11  C   UNL     1      31.978 -10.779 -21.052  0.00  0.00    +0.084 C 
ATOM     12  C   UNL     1      31.651  -9.626 -21.754  0.00  0.00    +0.179 A 
ATOM     13  C   UNL     1      31.644 -10.780 -19.683  0.00  0.00    +0.018 C 
ATOM     14  C   UNL     1      31.038  -8.550 -21.148  0.00  0.00    +0.098 A 
ATOM     15  C   UNL     1      31.019  -9.673 -19.073  0.00  0.00    +0.003 C 
ATOM     16  C   UNL     1      30.705  -8.532 -19.813  0.00  0.00    +0.020 C 
ATOM     17  C   UNL     1      31.376  -8.118 -23.303  0.00  0.00    +0.419 A 
ATOM     18  H   UNL     1      30.455  -6.716 -22.006  0.00  0.00    +0.172 HD
ENDBRANCH   2  11
BRANCH   1  19
ATOM     19  C   UNL     1      34.680 -15.121 -23.411  0.00  0.00    -0.050 C 
BRANCH  19  20
ATOM     20  C   UNL     1      34.232 -16.558 -23.423  0.00  0.00    -0.043 C 
ATOM     21  C   UNL     1      34.451 -17.352 -22.306  0.00  0.00    -0.006 C 
ATOM     22  C   UNL     1      33.605 -17.069 -24.551  0.00  0.00    -0.006 C 
ATOM     23  C   UNL     1      34.034 -18.684 -22.318  0.00  0.00    -0.000 C 
ATOM     24  C   UNL     1      33.189 -18.400 -24.563  0.00  0.00    -0.000 C 
ATOM     25  C   UNL     1      33.404 -19.207 -23.447  0.00  0.00    -0.000 C 
BRANCH  23  26
ATOM     26  C   UNL     1      34.255 -19.522 -21.159  0.00  0.00    -0.000 C 
ATOM     27  C   UNL     1      35.553 -19.761 -20.708  0.00  0.00    -0.000 C 
ATOM     28  C   UNL     1      33.169 -20.089 -20.491  0.00  0.00    -0.000 C 
ATOM     29  C   UNL     1      35.765 -20.568 -19.591  0.00  0.00    -0.000 C 
ATOM     30  C   UNL     1      33.382 -20.897 -19.374  0.00  0.00    -0.000 C 
ATOM     31  C   UNL     1      34.680 -21.136 -18.924  0.00  0.00    +0.000 C 
ENDBRANCH  23  26
ENDBRANCH  19  20
ENDBRANCH   1  19
TORSDOF 4
ENDMDL
MODEL 4
REMARK VINA RESULT:     -12.8      1.968      4.283
REMARK  Name = 208951
REMARK  4 active torsions:
REMARK  status: ('A' for Active; 'I' for Inactive)
REMARK    1  A    between atoms: N_1  and  C_19
REMARK    2  A    between atoms: N_2  and  C_11
REMARK    3  A    between atoms: C_19  and  C_20
REMARK    4  A    between atoms: C_23  and  C_26
REMARK                            x       y       z     vdW  Elec       q    Type
REMARK                         _______ _______ _______ _____ _____    ______ ____
ROOT
ATOM      1  N   UNL     1      33.921 -21.785 -17.784  0.00  0.00    +0.392 N 
ATOM      2  N   UNL     1      34.683 -23.060 -15.344  0.00  0.00    -0.309 N 
ATOM      3  C   UNL     1      35.336 -22.039 -17.488  0.00  0.00    -0.055 C 
ATOM      4  C   UNL     1      33.092 -22.855 -17.216  0.00  0.00    -0.055 C 
ATOM      5  C   UNL     1      35.582 -22.091 -15.979  0.00  0.00    +0.068 C 
ATOM      6  C   UNL     1      33.263 -22.935 -15.696  0.00  0.00    +0.068 C 
ATOM      7  H   UNL     1      33.649 -20.898 -17.359  0.00  0.00    -0.079 HD
ENDROOT
BRANCH   2  11
ATOM      8  O   UNL     1      36.950 -24.880 -14.873  0.00  0.00    -0.406 OA
ATOM      9  O   UNL     1      38.769 -26.297 -14.685  0.00  0.00    -0.223 OA
ATOM     10  N   UNL     1      37.489 -25.751 -12.815  0.00  0.00    -0.287 N 
ATOM     11  C   UNL     1      35.004 -23.587 -14.087  0.00  0.00    +0.084 C 
ATOM     12  C   UNL     1      36.078 -24.444 -13.888  0.00  0.00    +0.179 A 
ATOM     13  C   UNL     1      34.248 -23.273 -12.940  0.00  0.00    +0.018 C 
ATOM     14  C   UNL     1      36.385 -24.955 -12.645  0.00  0.00    +0.098 A 
ATOM     15  C   UNL     1      34.570 -23.803 -11.674  0.00  0.00    +0.003 C 
ATOM     16  C   UNL     1      35.660 -24.661 -11.514  0.00  0.00    +0.020 C 
ATOM     17  C   UNL     1      37.833 -25.709 -14.156  0.00  0.00    +0.419 A 
ATOM     18  H   UNL     1      37.952 -26.259 -12.112  0.00  0.00    +0.172 HD
ENDBRANCH   2  11
BRANCH   1  19
ATOM     19  C   UNL     1      33.708 -21.684 -19.227  0.00  0.00    -0.050 C 
BRANCH  19  20
ATOM     20  C   UNL     1      34.579 -20.615 -19.829  0.00  0.00    -0.043 C 
ATOM     21  C   UNL     1      34.087 -19.835 -20.868  0.00  0.00    -0.006 C 
ATOM     22  C   UNL     1      35.863 -20.420 -19.338  0.00  0.00    -0.006 C 
ATOM     23  C   UNL     1      34.894 -18.843 -21.425  0.00  0.00    -0.000 C 
ATOM     24  C   UNL     1      36.670 -19.429 -19.895  0.00  0.00    -0.000 C 
ATOM     25  C   UNL     1      36.186 -18.641 -20.938  0.00  0.00    -0.000 C 
BRANCH  23  26
ATOM     26  C   UNL     1      34.392 -18.024 -22.506  0.00  0.00    -0.000 C 
ATOM     27  C   UNL     1      34.634 -16.651 -22.512  0.00  0.00    -0.000 C 
ATOM     28  C   UNL     1      33.666 -18.608 -23.545  0.00  0.00    -0.000 C 
ATOM     29  C   UNL     1      34.151 -15.861 -23.555  0.00  0.00    -0.000 C 
ATOM     30  C   UNL     1      33.182 -17.818 -24.587  0.00  0.00    -0.000 C 
ATOM     31  C   UNL     1      33.425 -16.444 -24.592  0.00  0.00    +0.000 C 
ENDBRANCH  23  26
ENDBRANCH  19  20
ENDBRANCH   1  19
TORSDOF 4
ENDMDL
MODEL 5
REMARK VINA RESULT:     -12.5      0.968      1.681
REMARK  Name = 208951
REMARK  4 active torsions:
REMARK  status: ('A' for Active; 'I' for Inactive)
REMARK    1  A    between atoms: N_1  and  C_19
REMARK    2  A    between atoms: N_2  and  C_11
REMARK    3  A    between atoms: C_19  and  C_20
REMARK    4  A    between atoms: C_23  and  C_26
REMARK                            x       y       z     vdW  Elec       q    Type
REMARK                         _______ _______ _______ _____ _____    ______ ____
ROOT
ATOM      1  N   UNL     1      35.310 -20.085 -19.707  0.00  0.00    +0.392 N 
ATOM      2  N   UNL     1      33.953 -21.771 -17.842  0.00  0.00    -0.309 N 
ATOM      3  C   UNL     1      36.069 -20.972 -18.817  0.00  0.00    -0.055 C 
ATOM      4  C   UNL     1      34.033 -20.713 -20.066  0.00  0.00    -0.055 C 
ATOM      5  C   UNL     1      35.292 -21.259 -17.531  0.00  0.00    +0.068 C 
ATOM      6  C   UNL     1      33.186 -20.990 -18.821  0.00  0.00    +0.068 C 
ATOM      7  H   UNL     1      35.120 -19.211 -19.216  0.00  0.00    -0.079 HD
ENDROOT
BRANCH   2  11
ATOM      8  O   UNL     1      35.241 -23.413 -15.764  0.00  0.00    -0.406 OA
ATOM      9  O   UNL     1      36.416 -24.652 -14.203  0.00  0.00    -0.223 OA
ATOM     10  N   UNL     1      34.086 -24.599 -14.169  0.00  0.00    -0.287 N 
ATOM     11  C   UNL     1      33.243 -22.491 -16.874  0.00  0.00    +0.084 C 
ATOM     12  C   UNL     1      33.871 -23.260 -15.902  0.00  0.00    +0.179 A 
ATOM     13  C   UNL     1      31.834 -22.477 -16.829  0.00  0.00    +0.018 C 
ATOM     14  C   UNL     1      33.160 -23.964 -14.954  0.00  0.00    +0.098 A 
ATOM     15  C   UNL     1      31.117 -23.202 -15.855  0.00  0.00    +0.003 C 
ATOM     16  C   UNL     1      31.786 -23.963 -14.894  0.00  0.00    +0.020 C 
ATOM     17  C   UNL     1      35.342 -24.271 -14.652  0.00  0.00    +0.419 A 
ATOM     18  H   UNL     1      33.894 -25.183 -13.401  0.00  0.00    +0.172 HD
ENDBRANCH   2  11
BRANCH   1  19
ATOM     19  C   UNL     1      36.085 -19.776 -20.906  0.00  0.00    -0.050 C 
BRANCH  19  20
ATOM     20  C   UNL     1      35.287 -18.935 -21.866  0.00  0.00    -0.043 C 
ATOM     21  C   UNL     1      35.081 -17.590 -21.588  0.00  0.00    -0.006 C 
ATOM     22  C   UNL     1      34.769 -19.513 -23.016  0.00  0.00    -0.006 C 
ATOM     23  C   UNL     1      34.342 -16.810 -22.478  0.00  0.00    -0.000 C 
ATOM     24  C   UNL     1      34.031 -18.734 -23.905  0.00  0.00    -0.000 C 
ATOM     25  C   UNL     1      33.816 -17.383 -23.637  0.00  0.00    -0.000 C 
BRANCH  23  26
ATOM     26  C   UNL     1      34.121 -15.407 -22.201  0.00  0.00    -0.000 C 
ATOM     27  C   UNL     1      34.015 -14.965 -20.882  0.00  0.00    -0.000 C 
ATOM     28  C   UNL     1      34.014 -14.496 -23.253  0.00  0.00    -0.000 C 
ATOM     29  C   UNL     1      33.803 -13.613 -20.615  0.00  0.00    -0.000 C 
ATOM     30  C   UNL     1      33.801 -13.144 -22.985  0.00  0.00    -0.000 C 
ATOM     31  C   UNL     1      33.696 -12.702 -21.666  0.00  0.00    +0.000 C 
ENDBRANCH  23  26
ENDBRANCH  19  20
ENDBRANCH   1  19
TORSDOF 4
ENDMDL
MODEL 6
REMARK VINA RESULT:     -12.5      3.171      9.847
REMARK  Name = 208951
REMARK  4 active torsions:
REMARK  status: ('A' for Active; 'I' for Inactive)
REMARK    1  A    between atoms: N_1  and  C_19
REMARK    2  A    between atoms: N_2  and  C_11
REMARK    3  A    between atoms: C_19  and  C_20
REMARK    4  A    between atoms: C_23  and  C_26
REMARK                            x       y       z     vdW  Elec       q    Type
REMARK                         _______ _______ _______ _____ _____    ______ ____
ROOT
ATOM      1  N   UNL     1      35.265 -20.030 -19.649  0.00  0.00    +0.392 N 
ATOM      2  N   UNL     1      34.624 -18.147 -21.699  0.00  0.00    -0.309 N 
ATOM      3  C   UNL     1      34.087 -20.231 -20.501  0.00  0.00    -0.055 C 
ATOM      4  C   UNL     1      36.332 -19.378 -20.418  0.00  0.00    -0.055 C 
ATOM      5  C   UNL     1      33.556 -18.897 -21.030  0.00  0.00    +0.068 C 
ATOM      6  C   UNL     1      35.876 -18.014 -20.943  0.00  0.00    +0.068 C 
ATOM      7  H   UNL     1      35.007 -19.426 -18.867  0.00  0.00    -0.079 HD
ENDROOT
BRANCH   2  11
ATOM      8  O   UNL     1      34.314 -15.315 -20.952  0.00  0.00    -0.406 OA
ATOM      9  O   UNL     1      34.111 -13.140 -20.190  0.00  0.00    -0.223 OA
ATOM     10  N   UNL     1      33.780 -13.647 -22.440  0.00  0.00    -0.287 N 
ATOM     11  C   UNL     1      34.297 -17.137 -22.612  0.00  0.00    +0.084 C 
ATOM     12  C   UNL     1      34.156 -15.807 -22.238  0.00  0.00    +0.179 A 
ATOM     13  C   UNL     1      34.093 -17.415 -23.979  0.00  0.00    +0.018 C 
ATOM     14  C   UNL     1      33.836 -14.821 -23.146  0.00  0.00    +0.098 A 
ATOM     15  C   UNL     1      33.764 -16.398 -24.899  0.00  0.00    +0.003 C 
ATOM     16  C   UNL     1      33.632 -15.072 -24.483  0.00  0.00    +0.020 C 
ATOM     17  C   UNL     1      34.067 -13.940 -21.117  0.00  0.00    +0.419 A 
ATOM     18  H   UNL     1      33.573 -12.759 -22.808  0.00  0.00    +0.172 HD
ENDBRANCH   2  11
BRANCH   1  19
ATOM     19  C   UNL     1      35.730 -21.305 -19.106  0.00  0.00    -0.050 C 
BRANCH  19  20
ATOM     20  C   UNL     1      34.784 -21.825 -18.058  0.00  0.00    -0.043 C 
ATOM     21  C   UNL     1      35.261 -22.102 -16.783  0.00  0.00    -0.006 C 
ATOM     22  C   UNL     1      33.448 -22.021 -18.378  0.00  0.00    -0.006 C 
ATOM     23  C   UNL     1      34.383 -22.583 -15.811  0.00  0.00    -0.000 C 
ATOM     24  C   UNL     1      32.571 -22.502 -17.407  0.00  0.00    -0.000 C 
ATOM     25  C   UNL     1      33.039 -22.783 -16.123  0.00  0.00    -0.000 C 
BRANCH  23  26
ATOM     26  C   UNL     1      34.868 -22.873 -14.479  0.00  0.00    -0.000 C 
ATOM     27  C   UNL     1      36.156 -22.490 -14.106  0.00  0.00    -0.000 C 
ATOM     28  C   UNL     1      34.045 -23.536 -13.567  0.00  0.00    -0.000 C 
ATOM     29  C   UNL     1      36.622 -22.769 -12.821  0.00  0.00    -0.000 C 
ATOM     30  C   UNL     1      34.513 -23.816 -12.283  0.00  0.00    -0.000 C 
ATOM     31  C   UNL     1      35.801 -23.432 -11.910  0.00  0.00    +0.000 C 
ENDBRANCH  23  26
ENDBRANCH  19  20
ENDBRANCH   1  19
TORSDOF 4
ENDMDL
MODEL 7
REMARK VINA RESULT:     -12.2      6.920     11.211
REMARK  Name = 208951
REMARK  4 active torsions:
REMARK  status: ('A' for Active; 'I' for Inactive)
REMARK    1  A    between atoms: N_1  and  C_19
REMARK    2  A    between atoms: N_2  and  C_11
REMARK    3  A    between atoms: C_19  and  C_20
REMARK    4  A    between atoms: C_23  and  C_26
REMARK                            x       y       z     vdW  Elec       q    Type
REMARK                         _______ _______ _______ _____ _____    ______ ____
ROOT
ATOM      1  N   UNL     1      31.183  -9.213 -22.112  0.00  0.00    +0.392 N 
ATOM      2  N   UNL     1      32.320 -11.830 -21.980  0.00  0.00    -0.309 N 
ATOM      3  C   UNL     1      31.910  -9.766 -23.260  0.00  0.00    -0.055 C 
ATOM      4  C   UNL     1      30.487 -10.289 -21.396  0.00  0.00    -0.055 C 
ATOM      5  C   UNL     1      32.947 -10.797 -22.811  0.00  0.00    +0.068 C 
ATOM      6  C   UNL     1      31.477 -11.338 -20.883  0.00  0.00    +0.068 C 
ATOM      7  H   UNL     1      31.852  -8.775 -21.478  0.00  0.00    -0.079 HD
ENDROOT
BRANCH   2  11
ATOM      8  O   UNL     1      32.842 -13.689 -24.204  0.00  0.00    -0.406 OA
ATOM      9  O   UNL     1      33.173 -15.024 -26.064  0.00  0.00    -0.223 OA
ATOM     10  N   UNL     1      33.875 -15.727 -23.955  0.00  0.00    -0.287 N 
ATOM     11  C   UNL     1      32.949 -13.070 -21.820  0.00  0.00    +0.084 C 
ATOM     12  C   UNL     1      33.185 -13.932 -22.884  0.00  0.00    +0.179 A 
ATOM     13  C   UNL     1      33.384 -13.520 -20.557  0.00  0.00    +0.018 C 
ATOM     14  C   UNL     1      33.807 -15.150 -22.714  0.00  0.00    +0.098 A 
ATOM     15  C   UNL     1      34.018 -14.769 -20.395  0.00  0.00    +0.003 C 
ATOM     16  C   UNL     1      34.238 -15.607 -21.490  0.00  0.00    +0.020 C 
ATOM     17  C   UNL     1      33.294 -14.851 -24.857  0.00  0.00    +0.419 A 
ATOM     18  H   UNL     1      34.265 -16.605 -24.167  0.00  0.00    +0.172 HD
ENDBRANCH   2  11
BRANCH   1  19
ATOM     19  C   UNL     1      30.233  -8.191 -22.549  0.00  0.00    -0.050 C 
BRANCH  19  20
ATOM     20  C   UNL     1      30.914  -6.861 -22.730  0.00  0.00    -0.043 C 
ATOM     21  C   UNL     1      31.682  -6.634 -23.865  0.00  0.00    -0.006 C 
ATOM     22  C   UNL     1      30.764  -5.878 -21.761  0.00  0.00    -0.006 C 
ATOM     23  C   UNL     1      32.311  -5.400 -24.033  0.00  0.00    -0.000 C 
ATOM     24  C   UNL     1      31.394  -4.646 -21.929  0.00  0.00    -0.000 C 
ATOM     25  C   UNL     1      32.168  -4.407 -23.064  0.00  0.00    -0.000 C 
BRANCH  23  26
ATOM     26  C   UNL     1      33.113  -5.151 -25.211  0.00  0.00    -0.000 C 
ATOM     27  C   UNL     1      32.656  -5.558 -26.465  0.00  0.00    -0.000 C 
ATOM     28  C   UNL     1      34.343  -4.502 -25.094  0.00  0.00    -0.000 C 
ATOM     29  C   UNL     1      33.428  -5.317 -27.601  0.00  0.00    -0.000 C 
ATOM     30  C   UNL     1      35.115  -4.263 -26.231  0.00  0.00    -0.000 C 
ATOM     31  C   UNL     1      34.657  -4.669 -27.484  0.00  0.00    +0.000 C 
ENDBRANCH  23  26
ENDBRANCH  19  20
ENDBRANCH   1  19
TORSDOF 4
ENDMDL
MODEL 8
REMARK VINA RESULT:     -12.1      6.780     12.131
REMARK  Name = 208951
REMARK  4 active torsions:
REMARK  status: ('A' for Active; 'I' for Inactive)
REMARK    1  A    between atoms: N_1  and  C_19
REMARK    2  A    between atoms: N_2  and  C_11
REMARK    3  A    between atoms: C_19  and  C_20
REMARK    4  A    between atoms: C_23  and  C_26
REMARK                            x       y       z     vdW  Elec       q    Type
REMARK                         _______ _______ _______ _____ _____    ______ ____
ROOT
ATOM      1  N   UNL     1      32.381 -12.228 -21.532  0.00  0.00    +0.392 N 
ATOM      2  N   UNL     1      31.782  -9.529 -22.252  0.00  0.00    -0.309 N 
ATOM      3  C   UNL     1      33.402 -11.383 -22.163  0.00  0.00    -0.055 C 
ATOM      4  C   UNL     1      31.511 -11.408 -20.680  0.00  0.00    -0.055 C 
ATOM      5  C   UNL     1      32.759 -10.297 -23.030  0.00  0.00    +0.068 C 
ATOM      6  C   UNL     1      30.804 -10.324 -21.497  0.00  0.00    +0.068 C 
ATOM      7  H   UNL     1      31.814 -12.660 -22.262  0.00  0.00    -0.079 HD
ENDROOT
BRANCH   2  11
ATOM      8  O   UNL     1      32.082  -7.101 -20.612  0.00  0.00    -0.406 OA
ATOM      9  O   UNL     1      32.392  -5.302 -19.191  0.00  0.00    -0.223 OA
ATOM     10  N   UNL     1      31.460  -5.000 -21.307  0.00  0.00    -0.287 N 
ATOM     11  C   UNL     1      31.400  -8.253 -22.682  0.00  0.00    +0.084 C 
ATOM     12  C   UNL     1      31.551  -7.120 -21.892  0.00  0.00    +0.179 A 
ATOM     13  C   UNL     1      30.835  -8.041 -23.956  0.00  0.00    +0.018 C 
ATOM     14  C   UNL     1      31.171  -5.869 -22.326  0.00  0.00    +0.098 A 
ATOM     15  C   UNL     1      30.450  -6.756 -24.390  0.00  0.00    +0.003 C 
ATOM     16  C   UNL     1      30.618  -5.642 -23.566  0.00  0.00    +0.020 C 
ATOM     17  C   UNL     1      32.009  -5.738 -20.271  0.00  0.00    +0.419 A 
ATOM     18  H   UNL     1      31.305  -4.029 -21.310  0.00  0.00    +0.172 HD
ENDBRANCH   2  11
BRANCH   1  19
ATOM     19  C   UNL     1      33.008 -13.293 -20.751  0.00  0.00    -0.050 C 
BRANCH  19  20
ATOM     20  C   UNL     1      33.532 -14.384 -21.645  0.00  0.00    -0.043 C 
ATOM     21  C   UNL     1      33.948 -15.585 -21.086  0.00  0.00    -0.006 C 
ATOM     22  C   UNL     1      33.592 -14.175 -23.016  0.00  0.00    -0.006 C 
ATOM     23  C   UNL     1      34.433 -16.597 -21.916  0.00  0.00    -0.000 C 
ATOM     24  C   UNL     1      34.077 -15.186 -23.845  0.00  0.00    -0.000 C 
ATOM     25  C   UNL     1      34.498 -16.397 -23.295  0.00  0.00    -0.000 C 
BRANCH  23  26
ATOM     26  C   UNL     1      34.868 -17.854 -21.346  0.00  0.00    -0.000 C 
ATOM     27  C   UNL     1      36.228 -18.104 -21.165  0.00  0.00    -0.000 C 
ATOM     28  C   UNL     1      33.926 -18.816 -20.977  0.00  0.00    -0.000 C 
ATOM     29  C   UNL     1      36.647 -19.315 -20.615  0.00  0.00    -0.000 C 
ATOM     30  C   UNL     1      34.346 -20.027 -20.428  0.00  0.00    -0.000 C 
ATOM     31  C   UNL     1      35.707 -20.276 -20.246  0.00  0.00    +0.000 C 
ENDBRANCH  23  26
ENDBRANCH  19  20
ENDBRANCH   1  19
TORSDOF 4
ENDMDL
MODEL 9
REMARK VINA RESULT:     -12.1      1.853      3.425
REMARK  Name = 208951
REMARK  4 active torsions:
REMARK  status: ('A' for Active; 'I' for Inactive)
REMARK    1  A    between atoms: N_1  and  C_19
REMARK    2  A    between atoms: N_2  and  C_11
REMARK    3  A    between atoms: C_19  and  C_20
REMARK    4  A    between atoms: C_23  and  C_26
REMARK                            x       y       z     vdW  Elec       q    Type
REMARK                         _______ _______ _______ _____ _____    ______ ____
ROOT
ATOM      1  N   UNL     1      34.260 -20.915 -18.745  0.00  0.00    +0.392 N 
ATOM      2  N   UNL     1      35.308 -22.391 -16.535  0.00  0.00    -0.309 N 
ATOM      3  C   UNL     1      35.709 -21.089 -18.588  0.00  0.00    -0.055 C 
ATOM      4  C   UNL     1      33.557 -22.102 -18.246  0.00  0.00    -0.055 C 
ATOM      5  C   UNL     1      36.083 -21.291 -17.117  0.00  0.00    +0.068 C 
ATOM      6  C   UNL     1      33.858 -22.337 -16.763  0.00  0.00    +0.068 C 
ATOM      7  H   UNL     1      33.965 -20.104 -18.200  0.00  0.00    -0.079 HD
ENDROOT
BRANCH   2  11
ATOM      8  O   UNL     1      33.535 -23.306 -14.370  0.00  0.00    -0.406 OA
ATOM      9  O   UNL     1      31.999 -23.961 -12.769  0.00  0.00    -0.223 OA
ATOM     10  N   UNL     1      34.276 -24.355 -12.463  0.00  0.00    -0.287 N 
ATOM     11  C   UNL     1      35.768 -23.028 -15.377  0.00  0.00    +0.084 C 
ATOM     12  C   UNL     1      34.913 -23.452 -14.367  0.00  0.00    +0.179 A 
ATOM     13  C   UNL     1      37.139 -23.280 -15.166  0.00  0.00    +0.018 C 
ATOM     14  C   UNL     1      35.377 -24.080 -13.231  0.00  0.00    +0.098 A 
ATOM     15  C   UNL     1      37.602 -23.922 -14.000  0.00  0.00    +0.003 C 
ATOM     16  C   UNL     1      36.710 -24.334 -13.008  0.00  0.00    +0.020 C 
ATOM     17  C   UNL     1      33.163 -23.891 -13.145  0.00  0.00    +0.419 A 
ATOM     18  H   UNL     1      34.276 -24.802 -11.587  0.00  0.00    +0.172 HD
ENDBRANCH   2  11
BRANCH   1  19
ATOM     19  C   UNL     1      33.922 -20.669 -20.146  0.00  0.00    -0.050 C 
BRANCH  19  20
ATOM     20  C   UNL     1      34.774 -19.573 -20.725  0.00  0.00    -0.043 C 
ATOM     21  C   UNL     1      34.214 -18.325 -20.964  0.00  0.00    -0.006 C 
ATOM     22  C   UNL     1      36.109 -19.823 -21.013  0.00  0.00    -0.006 C 
ATOM     23  C   UNL     1      35.006 -17.308 -21.500  0.00  0.00    -0.000 C 
ATOM     24  C   UNL     1      36.899 -18.808 -21.550  0.00  0.00    -0.000 C 
ATOM     25  C   UNL     1      36.348 -17.550 -21.793  0.00  0.00    -0.000 C 
BRANCH  23  26
ATOM     26  C   UNL     1      34.434 -16.003 -21.751  0.00  0.00    -0.000 C 
ATOM     27  C   UNL     1      34.281 -15.549 -23.061  0.00  0.00    -0.000 C 
ATOM     28  C   UNL     1      34.036 -15.198 -20.683  0.00  0.00    -0.000 C 
ATOM     29  C   UNL     1      33.729 -14.291 -23.303  0.00  0.00    -0.000 C 
ATOM     30  C   UNL     1      33.486 -13.940 -20.926  0.00  0.00    -0.000 C 
ATOM     31  C   UNL     1      33.332 -13.486 -22.236  0.00  0.00    +0.000 C 
ENDBRANCH  23  26
ENDBRANCH  19  20
ENDBRANCH   1  19
TORSDOF 4
ENDMDL
