MODEL 1
REMARK VINA RESULT:     -12.4      0.000      0.000
REMARK  Name = 6420159
REMARK  9 active torsions:
REMARK  status: ('A' for Active; 'I' for Inactive)
REMARK    1  A    between atoms: C_1  and  N_3
REMARK    2  A    between atoms: C_1  and  C_15
REMARK    3  A    between atoms: C_1  and  C_29
REMARK    4  A    between atoms: N_14  and  C_17
REMARK    5  A    between atoms: C_17  and  C_18
REMARK    6  A    between atoms: C_18  and  N_19
REMARK    7  A    between atoms: N_19  and  C_21
REMARK    8  A    between atoms: C_26  and  O_27
REMARK    9  A    between atoms: C_29  and  C_30
REMARK                            x       y       z     vdW  Elec       q    Type
REMARK                         _______ _______ _______ _____ _____    ______ ____
ROOT
ATOM      1  C   UNL     1      33.001 -22.989 -16.844  0.00  0.00    +0.151 C 
ENDROOT
BRANCH   1   3
ATOM      2  O   UNL     1      35.626 -22.539 -14.324  0.00  0.00    -0.414 OA
ATOM      3  N   UNL     1      33.939 -22.453 -15.880  0.00  0.00    -0.271 N 
ATOM      4  N   UNL     1      35.000 -24.516 -15.241  0.00  0.00    -0.356 NA
ATOM      5  C   UNL     1      34.839 -23.231 -15.174  0.00  0.00    +0.345 C 
ATOM      6  C   UNL     1      36.398 -23.522 -13.772  0.00  0.00    +0.175 C 
ATOM      7  C   UNL     1      36.011 -24.730 -14.335  0.00  0.00    +0.152 C 
ATOM      8  C   UNL     1      37.397 -23.378 -12.818  0.00  0.00    +0.040 C 
ATOM      9  C   UNL     1      36.660 -25.904 -13.930  0.00  0.00    +0.088 C 
ATOM     10  C   UNL     1      38.034 -24.559 -12.425  0.00  0.00    -0.001 C 
ATOM     11  C   UNL     1      37.675 -25.799 -12.968  0.00  0.00    -0.018 C 
ATOM     12  H   UNL     1      33.936 -21.482 -15.719  0.00  0.00    +0.153 HD
ENDBRANCH   1   3
BRANCH   1  15
ATOM     13  O   UNL     1      33.274 -23.409 -19.214  0.00  0.00    -0.273 OA
ATOM     14  N   UNL     1      34.303 -21.550 -18.286  0.00  0.00    -0.301 N 
ATOM     15  C   UNL     1      33.521 -22.694 -18.244  0.00  0.00    +0.240 C 
ATOM     16  H   UNL     1      34.447 -21.039 -17.457  0.00  0.00    +0.150 HD
BRANCH  14  17
ATOM     17  C   UNL     1      34.913 -21.082 -19.508  0.00  0.00    +0.111 C 
BRANCH  17  18
ATOM     18  C   UNL     1      34.081 -20.010 -20.193  0.00  0.00    +0.109 C 
BRANCH  18  19
ATOM     19  N   UNL     1      34.930 -18.949 -20.682  0.00  0.00    -0.331 N 
ATOM     20  H   UNL     1      35.765 -18.760 -20.194  0.00  0.00    +0.147 HD
BRANCH  19  21
ATOM     21  C   UNL     1      34.636 -18.181 -21.797  0.00  0.00    +0.045 C 
ATOM     22  C   UNL     1      34.083 -18.766 -22.952  0.00  0.00    +0.017 C 
ATOM     23  C   UNL     1      34.885 -16.796 -21.807  0.00  0.00    +0.017 C 
ATOM     24  C   UNL     1      33.789 -17.993 -24.075  0.00  0.00    +0.038 C 
ATOM     25  C   UNL     1      34.592 -16.023 -22.930  0.00  0.00    +0.038 C 
ATOM     26  C   UNL     1      34.044 -16.622 -24.064  0.00  0.00    +0.139 C 
BRANCH  26  27
ATOM     27  O   UNL     1      33.756 -15.867 -25.160  0.00  0.00    -0.471 OA
ATOM     28  C   UNL     1      33.154 -14.594 -24.932  0.00  0.00    +0.252 C 
ENDBRANCH  26  27
ENDBRANCH  19  21
ENDBRANCH  18  19
ENDBRANCH  17  18
ENDBRANCH  14  17
ENDBRANCH   1  15
BRANCH   1  29
ATOM     29  C   UNL     1      31.622 -22.357 -16.652  0.00  0.00    +0.029 C 
BRANCH  29  30
ATOM     30  C   UNL     1      30.574 -23.367 -16.190  0.00  0.00    +0.002 C 
ATOM     31  C   UNL     1      29.184 -22.721 -16.136  0.00  0.00    +0.000 C 
ATOM     32  C   UNL     1      30.955 -23.957 -14.825  0.00  0.00    +0.000 C 
ATOM     33  C   UNL     1      28.127 -23.698 -15.625  0.00  0.00    +0.000 C 
ATOM     34  C   UNL     1      29.896 -24.931 -14.316  0.00  0.00    +0.000 C 
ATOM     35  C   UNL     1      28.513 -24.288 -14.273  0.00  0.00    +0.000 C 
ENDBRANCH  29  30
ENDBRANCH   1  29
TORSDOF 9
ENDMDL
MODEL 2
REMARK VINA RESULT:     -12.0      2.316      5.109
REMARK  Name = 6420159
REMARK  9 active torsions:
REMARK  status: ('A' for Active; 'I' for Inactive)
REMARK    1  A    between atoms: C_1  and  N_3
REMARK    2  A    between atoms: C_1  and  C_15
REMARK    3  A    between atoms: C_1  and  C_29
REMARK    4  A    between atoms: N_14  and  C_17
REMARK    5  A    between atoms: C_17  and  C_18
REMARK    6  A    between atoms: C_18  and  N_19
REMARK    7  A    between atoms: N_19  and  C_21
REMARK    8  A    between atoms: C_26  and  O_27
REMARK    9  A    between atoms: C_29  and  C_30
REMARK                            x       y       z     vdW  Elec       q    Type
REMARK                         _______ _______ _______ _____ _____    ______ ____
ROOT
ATOM      1  C   UNL     1      32.824 -21.189 -18.301  0.00  0.00    +0.151 C 
ENDROOT
BRANCH   1   3
ATOM      2  O   UNL     1      30.042 -23.115 -16.890  0.00  0.00    -0.414 OA
ATOM      3  N   UNL     1      31.588 -21.911 -18.089  0.00  0.00    -0.271 N 
ATOM      4  N   UNL     1      31.913 -22.486 -15.775  0.00  0.00    -0.356 NA
ATOM      5  C   UNL     1      31.236 -22.487 -16.880  0.00  0.00    +0.345 C 
ATOM      6  C   UNL     1      29.944 -23.580 -15.610  0.00  0.00    +0.175 C 
ATOM      7  C   UNL     1      31.091 -23.193 -14.931  0.00  0.00    +0.152 C 
ATOM      8  C   UNL     1      28.903 -24.310 -15.052  0.00  0.00    +0.040 C 
ATOM      9  C   UNL     1      31.234 -23.552 -13.583  0.00  0.00    +0.088 C 
ATOM     10  C   UNL     1      29.060 -24.660 -13.707  0.00  0.00    -0.001 C 
ATOM     11  C   UNL     1      30.202 -24.290 -12.985  0.00  0.00    -0.018 C 
ATOM     12  H   UNL     1      30.963 -21.997 -18.844  0.00  0.00    +0.153 HD
ENDBRANCH   1   3
BRANCH   1  15
ATOM     13  O   UNL     1      31.759 -20.513 -20.369  0.00  0.00    -0.273 OA
ATOM     14  N   UNL     1      33.987 -19.968 -20.035  0.00  0.00    -0.301 N 
ATOM     15  C   UNL     1      32.772 -20.528 -19.672  0.00  0.00    +0.240 C 
ATOM     16  H   UNL     1      34.746 -20.028 -19.410  0.00  0.00    +0.150 HD
BRANCH  14  17
ATOM     17  C   UNL     1      34.176 -19.298 -21.299  0.00  0.00    +0.111 C 
BRANCH  17  18
ATOM     18  C   UNL     1      35.343 -18.323 -21.265  0.00  0.00    +0.109 C 
BRANCH  18  19
ATOM     19  N   UNL     1      34.917 -17.045 -20.746  0.00  0.00    -0.331 N 
ATOM     20  H   UNL     1      34.940 -16.909 -19.770  0.00  0.00    +0.147 HD
BRANCH  19  21
ATOM     21  C   UNL     1      34.477 -15.999 -21.541  0.00  0.00    +0.045 C 
ATOM     22  C   UNL     1      34.505 -16.098 -22.945  0.00  0.00    +0.017 C 
ATOM     23  C   UNL     1      33.991 -14.810 -20.967  0.00  0.00    +0.017 C 
ATOM     24  C   UNL     1      34.064 -15.044 -23.745  0.00  0.00    +0.038 C 
ATOM     25  C   UNL     1      33.549 -13.757 -21.767  0.00  0.00    +0.038 C 
ATOM     26  C   UNL     1      33.586 -13.874 -23.156  0.00  0.00    +0.139 C 
BRANCH  26  27
ATOM     27  O   UNL     1      33.154 -12.846 -23.937  0.00  0.00    -0.471 OA
ATOM     28  C   UNL     1      33.208 -11.535 -23.376  0.00  0.00    +0.252 C 
ENDBRANCH  26  27
ENDBRANCH  19  21
ENDBRANCH  18  19
ENDBRANCH  17  18
ENDBRANCH  14  17
ENDBRANCH   1  15
BRANCH   1  29
ATOM     29  C   UNL     1      34.018 -22.143 -18.224  0.00  0.00    +0.029 C 
BRANCH  29  30
ATOM     30  C   UNL     1      34.929 -21.843 -17.035  0.00  0.00    +0.002 C 
ATOM     31  C   UNL     1      36.328 -21.434 -17.514  0.00  0.00    +0.000 C 
ATOM     32  C   UNL     1      35.007 -23.052 -16.093  0.00  0.00    +0.000 C 
ATOM     33  C   UNL     1      37.273 -21.180 -16.342  0.00  0.00    +0.000 C 
ATOM     34  C   UNL     1      35.955 -22.797 -14.924  0.00  0.00    +0.000 C 
ATOM     35  C   UNL     1      37.342 -22.381 -15.404  0.00  0.00    +0.000 C 
ENDBRANCH  29  30
ENDBRANCH   1  29
TORSDOF 9
ENDMDL
MODEL 3
REMARK VINA RESULT:     -11.9      1.339      5.053
REMARK  Name = 6420159
REMARK  9 active torsions:
REMARK  status: ('A' for Active; 'I' for Inactive)
REMARK    1  A    between atoms: C_1  and  N_3
REMARK    2  A    between atoms: C_1  and  C_15
REMARK    3  A    between atoms: C_1  and  C_29
REMARK    4  A    between atoms: N_14  and  C_17
REMARK    5  A    between atoms: C_17  and  C_18
REMARK    6  A    between atoms: C_18  and  N_19
REMARK    7  A    between atoms: N_19  and  C_21
REMARK    8  A    between atoms: C_26  and  O_27
REMARK    9  A    between atoms: C_29  and  C_30
REMARK                            x       y       z     vdW  Elec       q    Type
REMARK                         _______ _______ _______ _____ _____    ______ ____
ROOT
ATOM      1  C   UNL     1      35.117 -22.372 -15.703  0.00  0.00    +0.151 C 
ENDROOT
BRANCH   1   3
ATOM      2  O   UNL     1      31.591 -23.184 -16.297  0.00  0.00    -0.414 OA
ATOM      3  N   UNL     1      33.801 -22.557 -16.277  0.00  0.00    -0.271 N 
ATOM      4  N   UNL     1      32.713 -23.512 -14.355  0.00  0.00    -0.356 NA
ATOM      5  C   UNL     1      32.732 -23.096 -15.582  0.00  0.00    +0.345 C 
ATOM      6  C   UNL     1      30.723 -23.733 -15.398  0.00  0.00    +0.175 C 
ATOM      7  C   UNL     1      31.413 -23.933 -14.211  0.00  0.00    +0.152 C 
ATOM      8  C   UNL     1      29.385 -24.050 -15.598  0.00  0.00    +0.040 C 
ATOM      9  C   UNL     1      30.735 -24.492 -13.119  0.00  0.00    +0.088 C 
ATOM     10  C   UNL     1      28.723 -24.607 -14.499  0.00  0.00    -0.001 C 
ATOM     11  C   UNL     1      29.382 -24.825 -13.283  0.00  0.00    -0.018 C 
ATOM     12  H   UNL     1      33.659 -22.285 -17.212  0.00  0.00    +0.153 HD
ENDBRANCH   1   3
BRANCH   1  15
ATOM     13  O   UNL     1      37.063 -21.113 -16.407  0.00  0.00    -0.273 OA
ATOM     14  N   UNL     1      35.403 -21.560 -17.963  0.00  0.00    -0.301 N 
ATOM     15  C   UNL     1      35.982 -21.617 -16.704  0.00  0.00    +0.240 C 
ATOM     16  H   UNL     1      34.532 -21.995 -18.108  0.00  0.00    +0.150 HD
BRANCH  14  17
ATOM     17  C   UNL     1      36.038 -20.885 -19.069  0.00  0.00    +0.111 C 
BRANCH  17  18
ATOM     18  C   UNL     1      35.041 -20.471 -20.139  0.00  0.00    +0.109 C 
BRANCH  18  19
ATOM     19  N   UNL     1      35.003 -19.033 -20.263  0.00  0.00    -0.331 N 
ATOM     20  H   UNL     1      35.217 -18.492 -19.469  0.00  0.00    +0.147 HD
BRANCH  19  21
ATOM     21  C   UNL     1      34.681 -18.370 -21.437  0.00  0.00    +0.045 C 
ATOM     22  C   UNL     1      34.102 -19.058 -22.520  0.00  0.00    +0.017 C 
ATOM     23  C   UNL     1      34.927 -16.992 -21.579  0.00  0.00    +0.017 C 
ATOM     24  C   UNL     1      33.780 -18.391 -23.702  0.00  0.00    +0.038 C 
ATOM     25  C   UNL     1      34.604 -16.325 -22.761  0.00  0.00    +0.038 C 
ATOM     26  C   UNL     1      34.031 -17.024 -23.822  0.00  0.00    +0.139 C 
BRANCH  26  27
ATOM     27  O   UNL     1      33.715 -16.373 -24.974  0.00  0.00    -0.471 OA
ATOM     28  C   UNL     1      33.397 -14.986 -24.871  0.00  0.00    +0.252 C 
ENDBRANCH  26  27
ENDBRANCH  19  21
ENDBRANCH  18  19
ENDBRANCH  17  18
ENDBRANCH  14  17
ENDBRANCH   1  15
BRANCH   1  29
ATOM     29  C   UNL     1      35.751 -23.725 -15.376  0.00  0.00    +0.029 C 
BRANCH  29  30
ATOM     30  C   UNL     1      36.628 -23.674 -14.127  0.00  0.00    +0.002 C 
ATOM     31  C   UNL     1      36.792 -25.074 -13.522  0.00  0.00    +0.000 C 
ATOM     32  C   UNL     1      36.045 -22.699 -13.095  0.00  0.00    +0.000 C 
ATOM     33  C   UNL     1      37.623 -25.041 -12.241  0.00  0.00    +0.000 C 
ATOM     34  C   UNL     1      36.876 -22.670 -11.814  0.00  0.00    +0.000 C 
ATOM     35  C   UNL     1      37.045 -24.065 -11.221  0.00  0.00    +0.000 C 
ENDBRANCH  29  30
ENDBRANCH   1  29
TORSDOF 9
ENDMDL
MODEL 4
REMARK VINA RESULT:     -11.2      1.203      5.325
REMARK  Name = 6420159
REMARK  9 active torsions:
REMARK  status: ('A' for Active; 'I' for Inactive)
REMARK    1  A    between atoms: C_1  and  N_3
REMARK    2  A    between atoms: C_1  and  C_15
REMARK    3  A    between atoms: C_1  and  C_29
REMARK    4  A    between atoms: N_14  and  C_17
REMARK    5  A    between atoms: C_17  and  C_18
REMARK    6  A    between atoms: C_18  and  N_19
REMARK    7  A    between atoms: N_19  and  C_21
REMARK    8  A    between atoms: C_26  and  O_27
REMARK    9  A    between atoms: C_29  and  C_30
REMARK                            x       y       z     vdW  Elec       q    Type
REMARK                         _______ _______ _______ _____ _____    ______ ____
ROOT
ATOM      1  C   UNL     1      34.599 -22.155 -15.673  0.00  0.00    +0.151 C 
ENDROOT
BRANCH   1   3
ATOM      2  O   UNL     1      31.862 -24.299 -14.511  0.00  0.00    -0.414 OA
ATOM      3  N   UNL     1      33.799 -23.200 -15.069  0.00  0.00    -0.271 N 
ATOM      4  N   UNL     1      31.627 -22.402 -15.729  0.00  0.00    -0.356 NA
ATOM      5  C   UNL     1      32.418 -23.243 -15.140  0.00  0.00    +0.345 C 
ATOM      6  C   UNL     1      30.528 -24.103 -14.730  0.00  0.00    +0.175 C 
ATOM      7  C   UNL     1      30.389 -22.941 -15.476  0.00  0.00    +0.152 C 
ATOM      8  C   UNL     1      29.473 -24.899 -14.302  0.00  0.00    +0.040 C 
ATOM      9  C   UNL     1      29.102 -22.517 -15.836  0.00  0.00    +0.088 C 
ATOM     10  C   UNL     1      28.196 -24.463 -14.670  0.00  0.00    -0.001 C 
ATOM     11  C   UNL     1      28.012 -23.296 -15.422  0.00  0.00    -0.018 C 
ATOM     12  H   UNL     1      34.263 -23.917 -14.581  0.00  0.00    +0.153 HD
ENDBRANCH   1   3
BRANCH   1  15
ATOM     13  O   UNL     1      33.767 -23.095 -17.744  0.00  0.00    -0.273 OA
ATOM     14  N   UNL     1      35.361 -21.415 -17.845  0.00  0.00    -0.301 N 
ATOM     15  C   UNL     1      34.509 -22.289 -17.187  0.00  0.00    +0.240 C 
ATOM     16  H   UNL     1      35.920 -20.803 -17.314  0.00  0.00    +0.150 HD
BRANCH  14  17
ATOM     17  C   UNL     1      35.454 -21.372 -19.285  0.00  0.00    +0.111 C 
BRANCH  17  18
ATOM     18  C   UNL     1      34.455 -20.403 -19.897  0.00  0.00    +0.109 C 
BRANCH  18  19
ATOM     19  N   UNL     1      35.117 -19.183 -20.297  0.00  0.00    -0.331 N 
ATOM     20  H   UNL     1      35.844 -18.841 -19.727  0.00  0.00    +0.147 HD
BRANCH  19  21
ATOM     21  C   UNL     1      34.787 -18.466 -21.436  0.00  0.00    +0.045 C 
ATOM     22  C   UNL     1      35.013 -17.079 -21.507  0.00  0.00    +0.017 C 
ATOM     23  C   UNL     1      34.217 -19.106 -22.552  0.00  0.00    +0.017 C 
ATOM     24  C   UNL     1      34.679 -16.357 -22.653  0.00  0.00    +0.038 C 
ATOM     25  C   UNL     1      33.883 -18.384 -23.698  0.00  0.00    +0.038 C 
ATOM     26  C   UNL     1      34.114 -17.010 -23.748  0.00  0.00    +0.139 C 
BRANCH  26  27
ATOM     27  O   UNL     1      33.790 -16.306 -24.867  0.00  0.00    -0.471 OA
ATOM     28  C   UNL     1      33.251 -14.999 -24.680  0.00  0.00    +0.252 C 
ENDBRANCH  26  27
ENDBRANCH  19  21
ENDBRANCH  18  19
ENDBRANCH  17  18
ENDBRANCH  14  17
ENDBRANCH   1  15
BRANCH   1  29
ATOM     29  C   UNL     1      36.056 -22.272 -15.221  0.00  0.00    +0.029 C 
BRANCH  29  30
ATOM     30  C   UNL     1      36.248 -23.326 -14.133  0.00  0.00    +0.002 C 
ATOM     31  C   UNL     1      36.706 -22.675 -12.822  0.00  0.00    +0.000 C 
ATOM     32  C   UNL     1      37.247 -24.399 -14.587  0.00  0.00    +0.000 C 
ATOM     33  C   UNL     1      36.956 -23.715 -11.732  0.00  0.00    +0.000 C 
ATOM     34  C   UNL     1      37.497 -25.436 -13.495  0.00  0.00    +0.000 C 
ATOM     35  C   UNL     1      37.943 -24.784 -12.191  0.00  0.00    +0.000 C 
ENDBRANCH  29  30
ENDBRANCH   1  29
TORSDOF 9
ENDMDL
MODEL 5
REMARK VINA RESULT:     -10.4      2.758      8.507
REMARK  Name = 6420159
REMARK  9 active torsions:
REMARK  status: ('A' for Active; 'I' for Inactive)
REMARK    1  A    between atoms: C_1  and  N_3
REMARK    2  A    between atoms: C_1  and  C_15
REMARK    3  A    between atoms: C_1  and  C_29
REMARK    4  A    between atoms: N_14  and  C_17
REMARK    5  A    between atoms: C_17  and  C_18
REMARK    6  A    between atoms: C_18  and  N_19
REMARK    7  A    between atoms: N_19  and  C_21
REMARK    8  A    between atoms: C_26  and  O_27
REMARK    9  A    between atoms: C_29  and  C_30
REMARK                            x       y       z     vdW  Elec       q    Type
REMARK                         _______ _______ _______ _____ _____    ______ ____
ROOT
ATOM      1  C   UNL     1      34.832 -23.398 -15.683  0.00  0.00    +0.151 C 
ENDROOT
BRANCH   1   3
ATOM      2  O   UNL     1      33.077 -21.612 -18.361  0.00  0.00    -0.414 OA
ATOM      3  N   UNL     1      33.838 -22.839 -16.575  0.00  0.00    -0.271 N 
ATOM      4  N   UNL     1      35.322 -21.646 -18.046  0.00  0.00    -0.356 NA
ATOM      5  C   UNL     1      34.148 -22.031 -17.655  0.00  0.00    +0.345 C 
ATOM      6  C   UNL     1      33.651 -20.854 -19.342  0.00  0.00    +0.175 C 
ATOM      7  C   UNL     1      35.024 -20.877 -19.145  0.00  0.00    +0.152 C 
ATOM      8  C   UNL     1      33.010 -20.169 -20.366  0.00  0.00    +0.040 C 
ATOM      9  C   UNL     1      35.847 -20.166 -20.030  0.00  0.00    +0.088 C 
ATOM     10  C   UNL     1      33.844 -19.465 -21.240  0.00  0.00    -0.001 C 
ATOM     11  C   UNL     1      35.236 -19.462 -21.077  0.00  0.00    -0.018 C 
ATOM     12  H   UNL     1      32.891 -23.044 -16.404  0.00  0.00    +0.153 HD
ENDBRANCH   1   3
BRANCH   1  15
ATOM     13  O   UNL     1      34.582 -25.493 -14.494  0.00  0.00    -0.273 OA
ATOM     14  N   UNL     1      32.973 -23.849 -14.203  0.00  0.00    -0.301 N 
ATOM     15  C   UNL     1      34.142 -24.371 -14.736  0.00  0.00    +0.240 C 
ATOM     16  H   UNL     1      32.699 -22.938 -14.455  0.00  0.00    +0.150 HD
BRANCH  14  17
ATOM     17  C   UNL     1      32.146 -24.600 -13.289  0.00  0.00    +0.111 C 
BRANCH  17  18
ATOM     18  C   UNL     1      30.692 -24.646 -13.734  0.00  0.00    +0.109 C 
BRANCH  18  19
ATOM     19  N   UNL     1      30.500 -23.836 -14.914  0.00  0.00    -0.331 N 
ATOM     20  H   UNL     1      31.280 -23.663 -15.491  0.00  0.00    +0.147 HD
BRANCH  19  21
ATOM     21  C   UNL     1      29.282 -23.288 -15.281  0.00  0.00    +0.045 C 
ATOM     22  C   UNL     1      28.568 -23.790 -16.386  0.00  0.00    +0.017 C 
ATOM     23  C   UNL     1      28.726 -22.215 -14.561  0.00  0.00    +0.017 C 
ATOM     24  C   UNL     1      27.342 -23.237 -16.756  0.00  0.00    +0.038 C 
ATOM     25  C   UNL     1      27.500 -21.662 -14.932  0.00  0.00    +0.038 C 
ATOM     26  C   UNL     1      26.808 -22.173 -16.029  0.00  0.00    +0.139 C 
BRANCH  26  27
ATOM     27  O   UNL     1      25.612 -21.634 -16.390  0.00  0.00    -0.471 OA
ATOM     28  C   UNL     1      25.573 -20.891 -17.607  0.00  0.00    +0.252 C 
ENDBRANCH  26  27
ENDBRANCH  19  21
ENDBRANCH  18  19
ENDBRANCH  17  18
ENDBRANCH  14  17
ENDBRANCH   1  15
BRANCH   1  29
ATOM     29  C   UNL     1      35.517 -22.287 -14.885  0.00  0.00    +0.029 C 
BRANCH  29  30
ATOM     30  C   UNL     1      36.792 -22.765 -14.193  0.00  0.00    +0.002 C 
ATOM     31  C   UNL     1      37.455 -23.890 -14.997  0.00  0.00    +0.000 C 
ATOM     32  C   UNL     1      36.492 -23.221 -12.759  0.00  0.00    +0.000 C 
ATOM     33  C   UNL     1      38.705 -24.421 -14.298  0.00  0.00    +0.000 C 
ATOM     34  C   UNL     1      37.742 -23.754 -12.064  0.00  0.00    +0.000 C 
ATOM     35  C   UNL     1      38.404 -24.867 -12.870  0.00  0.00    +0.000 C 
ENDBRANCH  29  30
ENDBRANCH   1  29
TORSDOF 9
ENDMDL
MODEL 6
REMARK VINA RESULT:     -10.3      2.558      7.551
REMARK  Name = 6420159
REMARK  9 active torsions:
REMARK  status: ('A' for Active; 'I' for Inactive)
REMARK    1  A    between atoms: C_1  and  N_3
REMARK    2  A    between atoms: C_1  and  C_15
REMARK    3  A    between atoms: C_1  and  C_29
REMARK    4  A    between atoms: N_14  and  C_17
REMARK    5  A    between atoms: C_17  and  C_18
REMARK    6  A    between atoms: C_18  and  N_19
REMARK    7  A    between atoms: N_19  and  C_21
REMARK    8  A    between atoms: C_26  and  O_27
REMARK    9  A    between atoms: C_29  and  C_30
REMARK                            x       y       z     vdW  Elec       q    Type
REMARK                         _______ _______ _______ _____ _____    ______ ____
ROOT
ATOM      1  C   UNL     1      35.594 -21.436 -17.803  0.00  0.00    +0.151 C 
ENDROOT
BRANCH   1   3
ATOM      2  O   UNL     1      37.571 -23.223 -15.285  0.00  0.00    -0.414 OA
ATOM      3  N   UNL     1      36.606 -22.193 -17.097  0.00  0.00    -0.271 N 
ATOM      4  N   UNL     1      35.578 -22.206 -14.922  0.00  0.00    -0.356 NA
ATOM      5  C   UNL     1      36.524 -22.511 -15.753  0.00  0.00    +0.345 C 
ATOM      6  C   UNL     1      37.244 -23.396 -13.970  0.00  0.00    +0.175 C 
ATOM      7  C   UNL     1      36.024 -22.772 -13.752  0.00  0.00    +0.152 C 
ATOM      8  C   UNL     1      37.974 -24.067 -12.998  0.00  0.00    +0.040 C 
ATOM      9  C   UNL     1      35.465 -22.808 -12.467  0.00  0.00    +0.088 C 
ATOM     10  C   UNL     1      37.404 -24.094 -11.721  0.00  0.00    -0.001 C 
ATOM     11  C   UNL     1      36.174 -23.477 -11.458  0.00  0.00    -0.018 C 
ATOM     12  H   UNL     1      37.395 -22.498 -17.600  0.00  0.00    +0.153 HD
ENDBRANCH   1   3
BRANCH   1  15
ATOM     13  O   UNL     1      33.981 -22.914 -18.843  0.00  0.00    -0.273 OA
ATOM     14  N   UNL     1      33.588 -22.183 -16.678  0.00  0.00    -0.301 N 
ATOM     15  C   UNL     1      34.317 -22.263 -17.856  0.00  0.00    +0.240 C 
ATOM     16  H   UNL     1      33.937 -21.636 -15.938  0.00  0.00    +0.150 HD
BRANCH  14  17
ATOM     17  C   UNL     1      32.335 -22.876 -16.504  0.00  0.00    +0.111 C 
BRANCH  17  18
ATOM     18  C   UNL     1      32.064 -23.218 -15.047  0.00  0.00    +0.109 C 
BRANCH  18  19
ATOM     19  N   UNL     1      30.819 -23.939 -14.921  0.00  0.00    -0.331 N 
ATOM     20  H   UNL     1      30.851 -24.866 -14.592  0.00  0.00    +0.147 HD
BRANCH  19  21
ATOM     21  C   UNL     1      29.582 -23.400 -15.239  0.00  0.00    +0.045 C 
ATOM     22  C   UNL     1      28.765 -23.995 -16.218  0.00  0.00    +0.017 C 
ATOM     23  C   UNL     1      29.112 -22.242 -14.593  0.00  0.00    +0.017 C 
ATOM     24  C   UNL     1      27.521 -23.452 -16.538  0.00  0.00    +0.038 C 
ATOM     25  C   UNL     1      27.867 -21.699 -14.913  0.00  0.00    +0.038 C 
ATOM     26  C   UNL     1      27.072 -22.304 -15.886  0.00  0.00    +0.139 C 
BRANCH  26  27
ATOM     27  O   UNL     1      25.858 -21.774 -16.198  0.00  0.00    -0.471 OA
ATOM     28  C   UNL     1      25.751 -21.077 -17.438  0.00  0.00    +0.252 C 
ENDBRANCH  26  27
ENDBRANCH  19  21
ENDBRANCH  18  19
ENDBRANCH  17  18
ENDBRANCH  14  17
ENDBRANCH   1  15
BRANCH   1  29
ATOM     29  C   UNL     1      36.067 -21.110 -19.221  0.00  0.00    +0.029 C 
BRANCH  29  30
ATOM     30  C   UNL     1      35.365 -19.885 -19.803  0.00  0.00    +0.002 C 
ATOM     31  C   UNL     1      34.204 -20.307 -20.714  0.00  0.00    +0.000 C 
ATOM     32  C   UNL     1      36.361 -18.999 -20.564  0.00  0.00    +0.000 C 
ATOM     33  C   UNL     1      33.519 -19.099 -21.350  0.00  0.00    +0.000 C 
ATOM     34  C   UNL     1      35.673 -17.795 -21.201  0.00  0.00    +0.000 C 
ATOM     35  C   UNL     1      34.514 -18.218 -22.098  0.00  0.00    +0.000 C 
ENDBRANCH  29  30
ENDBRANCH   1  29
TORSDOF 9
ENDMDL
MODEL 7
REMARK VINA RESULT:     -10.3      2.194      8.756
REMARK  Name = 6420159
REMARK  9 active torsions:
REMARK  status: ('A' for Active; 'I' for Inactive)
REMARK    1  A    between atoms: C_1  and  N_3
REMARK    2  A    between atoms: C_1  and  C_15
REMARK    3  A    between atoms: C_1  and  C_29
REMARK    4  A    between atoms: N_14  and  C_17
REMARK    5  A    between atoms: C_17  and  C_18
REMARK    6  A    between atoms: C_18  and  N_19
REMARK    7  A    between atoms: N_19  and  C_21
REMARK    8  A    between atoms: C_26  and  O_27
REMARK    9  A    between atoms: C_29  and  C_30
REMARK                            x       y       z     vdW  Elec       q    Type
REMARK                         _______ _______ _______ _____ _____    ______ ____
ROOT
ATOM      1  C   UNL     1      32.047 -21.691 -17.461  0.00  0.00    +0.151 C 
ENDROOT
BRANCH   1   3
ATOM      2  O   UNL     1      32.534 -20.181 -20.767  0.00  0.00    -0.414 OA
ATOM      3  N   UNL     1      31.882 -21.194 -18.811  0.00  0.00    -0.271 N 
ATOM      4  N   UNL     1      34.103 -20.329 -19.138  0.00  0.00    -0.356 NA
ATOM      5  C   UNL     1      32.890 -20.571 -19.525  0.00  0.00    +0.345 C 
ATOM      6  C   UNL     1      33.682 -19.611 -21.237  0.00  0.00    +0.175 C 
ATOM      7  C   UNL     1      34.640 -19.703 -20.237  0.00  0.00    +0.152 C 
ATOM      8  C   UNL     1      33.892 -19.033 -22.482  0.00  0.00    +0.040 C 
ATOM      9  C   UNL     1      35.921 -19.184 -20.476  0.00  0.00    +0.088 C 
ATOM     10  C   UNL     1      35.174 -18.521 -22.705  0.00  0.00    -0.001 C 
ATOM     11  C   UNL     1      36.170 -18.593 -21.723  0.00  0.00    -0.018 C 
ATOM     12  H   UNL     1      31.006 -21.306 -19.244  0.00  0.00    +0.153 HD
ENDBRANCH   1   3
BRANCH   1  15
ATOM     13  O   UNL     1      33.282 -23.640 -18.200  0.00  0.00    -0.273 OA
ATOM     14  N   UNL     1      34.155 -22.355 -16.479  0.00  0.00    -0.301 N 
ATOM     15  C   UNL     1      33.211 -22.673 -17.444  0.00  0.00    +0.240 C 
ATOM     16  H   UNL     1      34.013 -21.558 -15.918  0.00  0.00    +0.150 HD
BRANCH  14  17
ATOM     17  C   UNL     1      35.339 -23.153 -16.272  0.00  0.00    +0.111 C 
BRANCH  17  18
ATOM     18  C   UNL     1      36.606 -22.312 -16.267  0.00  0.00    +0.109 C 
BRANCH  18  19
ATOM     19  N   UNL     1      37.582 -22.877 -15.365  0.00  0.00    -0.331 N 
ATOM     20  H   UNL     1      38.483 -23.066 -15.715  0.00  0.00    +0.147 HD
BRANCH  19  21
ATOM     21  C   UNL     1      37.323 -23.170 -14.035  0.00  0.00    +0.045 C 
ATOM     22  C   UNL     1      37.901 -24.294 -13.417  0.00  0.00    +0.017 C 
ATOM     23  C   UNL     1      36.473 -22.352 -13.268  0.00  0.00    +0.017 C 
ATOM     24  C   UNL     1      37.639 -24.590 -12.079  0.00  0.00    +0.038 C 
ATOM     25  C   UNL     1      36.211 -22.647 -11.930  0.00  0.00    +0.038 C 
ATOM     26  C   UNL     1      36.794 -23.766 -11.336  0.00  0.00    +0.139 C 
BRANCH  26  27
ATOM     27  O   UNL     1      36.539 -24.053 -10.030  0.00  0.00    -0.471 OA
ATOM     28  C   UNL     1      35.170 -24.091  -9.628  0.00  0.00    +0.252 C 
ENDBRANCH  26  27
ENDBRANCH  19  21
ENDBRANCH  18  19
ENDBRANCH  17  18
ENDBRANCH  14  17
ENDBRANCH   1  15
BRANCH   1  29
ATOM     29  C   UNL     1      30.768 -22.385 -16.990  0.00  0.00    +0.029 C 
BRANCH  29  30
ATOM     30  C   UNL     1      30.971 -23.169 -15.695  0.00  0.00    +0.002 C 
ATOM     31  C   UNL     1      29.820 -24.159 -15.474  0.00  0.00    +0.000 C 
ATOM     32  C   UNL     1      31.108 -22.216 -14.499  0.00  0.00    +0.000 C 
ATOM     33  C   UNL     1      29.974 -24.918 -14.158  0.00  0.00    +0.000 C 
ATOM     34  C   UNL     1      31.259 -22.978 -13.186  0.00  0.00    +0.000 C 
ATOM     35  C   UNL     1      30.118 -23.968 -12.974  0.00  0.00    +0.000 C 
ENDBRANCH  29  30
ENDBRANCH   1  29
TORSDOF 9
ENDMDL
MODEL 8
REMARK VINA RESULT:     -10.1      1.987      9.641
REMARK  Name = 6420159
REMARK  9 active torsions:
REMARK  status: ('A' for Active; 'I' for Inactive)
REMARK    1  A    between atoms: C_1  and  N_3
REMARK    2  A    between atoms: C_1  and  C_15
REMARK    3  A    between atoms: C_1  and  C_29
REMARK    4  A    between atoms: N_14  and  C_17
REMARK    5  A    between atoms: C_17  and  C_18
REMARK    6  A    between atoms: C_18  and  N_19
REMARK    7  A    between atoms: N_19  and  C_21
REMARK    8  A    between atoms: C_26  and  O_27
REMARK    9  A    between atoms: C_29  and  C_30
REMARK                            x       y       z     vdW  Elec       q    Type
REMARK                         _______ _______ _______ _____ _____    ______ ____
ROOT
ATOM      1  C   UNL     1      33.802 -20.928 -19.171  0.00  0.00    +0.151 C 
ENDROOT
BRANCH   1   3
ATOM      2  O   UNL     1      33.556 -19.406 -22.497  0.00  0.00    -0.414 OA
ATOM      3  N   UNL     1      33.578 -20.666 -20.577  0.00  0.00    -0.271 N 
ATOM      4  N   UNL     1      34.296 -18.370 -20.622  0.00  0.00    -0.356 NA
ATOM      5  C   UNL     1      33.834 -19.445 -21.177  0.00  0.00    +0.345 C 
ATOM      6  C   UNL     1      33.891 -18.125 -22.830  0.00  0.00    +0.175 C 
ATOM      7  C   UNL     1      34.343 -17.493 -21.679  0.00  0.00    +0.152 C 
ATOM      8  C   UNL     1      33.807 -17.525 -24.080  0.00  0.00    +0.040 C 
ATOM      9  C   UNL     1      34.751 -16.155 -21.757  0.00  0.00    +0.088 C 
ATOM     10  C   UNL     1      34.218 -16.189 -24.141  0.00  0.00    -0.001 C 
ATOM     11  C   UNL     1      34.681 -15.515 -23.004  0.00  0.00    -0.018 C 
ATOM     12  H   UNL     1      33.224 -21.394 -21.135  0.00  0.00    +0.153 HD
ENDBRANCH   1   3
BRANCH   1  15
ATOM     13  O   UNL     1      36.031 -21.590 -19.851  0.00  0.00    -0.273 OA
ATOM     14  N   UNL     1      35.684 -20.944 -17.652  0.00  0.00    -0.301 N 
ATOM     15  C   UNL     1      35.287 -21.192 -18.957  0.00  0.00    +0.240 C 
ATOM     16  H   UNL     1      35.016 -20.626 -17.002  0.00  0.00    +0.150 HD
BRANCH  14  17
ATOM     17  C   UNL     1      37.046 -21.137 -17.215  0.00  0.00    +0.111 C 
BRANCH  17  18
ATOM     18  C   UNL     1      37.143 -21.354 -15.713  0.00  0.00    +0.109 C 
BRANCH  18  19
ATOM     19  N   UNL     1      37.275 -22.760 -15.414  0.00  0.00    -0.331 N 
ATOM     20  H   UNL     1      37.690 -23.342 -16.091  0.00  0.00    +0.147 HD
BRANCH  19  21
ATOM     21  C   UNL     1      36.850 -23.339 -14.228  0.00  0.00    +0.045 C 
ATOM     22  C   UNL     1      36.382 -22.545 -13.165  0.00  0.00    +0.017 C 
ATOM     23  C   UNL     1      36.876 -24.735 -14.056  0.00  0.00    +0.017 C 
ATOM     24  C   UNL     1      35.955 -23.127 -11.971  0.00  0.00    +0.038 C 
ATOM     25  C   UNL     1      36.449 -25.317 -12.862  0.00  0.00    +0.038 C 
ATOM     26  C   UNL     1      35.989 -24.513 -11.820  0.00  0.00    +0.139 C 
BRANCH  26  27
ATOM     27  O   UNL     1      35.572 -25.081 -10.655  0.00  0.00    -0.471 OA
ATOM     28  C   UNL     1      35.185 -24.199  -9.603  0.00  0.00    +0.252 C 
ENDBRANCH  26  27
ENDBRANCH  19  21
ENDBRANCH  18  19
ENDBRANCH  17  18
ENDBRANCH  14  17
ENDBRANCH   1  15
BRANCH   1  29
ATOM     29  C   UNL     1      32.984 -22.138 -18.718  0.00  0.00    +0.029 C 
BRANCH  29  30
ATOM     30  C   UNL     1      32.676 -22.109 -17.223  0.00  0.00    +0.002 C 
ATOM     31  C   UNL     1      33.565 -23.105 -16.466  0.00  0.00    +0.000 C 
ATOM     32  C   UNL     1      31.191 -22.402 -16.968  0.00  0.00    +0.000 C 
ATOM     33  C   UNL     1      33.239 -23.132 -14.975  0.00  0.00    +0.000 C 
ATOM     34  C   UNL     1      30.869 -22.431 -15.477  0.00  0.00    +0.000 C 
ATOM     35  C   UNL     1      31.761 -23.415 -14.727  0.00  0.00    +0.000 C 
ENDBRANCH  29  30
ENDBRANCH   1  29
TORSDOF 9
ENDMDL
MODEL 9
REMARK VINA RESULT:      -9.9      3.316      8.375
REMARK  Name = 6420159
REMARK  9 active torsions:
REMARK  status: ('A' for Active; 'I' for Inactive)
REMARK    1  A    between atoms: C_1  and  N_3
REMARK    2  A    between atoms: C_1  and  C_15
REMARK    3  A    between atoms: C_1  and  C_29
REMARK    4  A    between atoms: N_14  and  C_17
REMARK    5  A    between atoms: C_17  and  C_18
REMARK    6  A    between atoms: C_18  and  N_19
REMARK    7  A    between atoms: N_19  and  C_21
REMARK    8  A    between atoms: C_26  and  O_27
REMARK    9  A    between atoms: C_29  and  C_30
REMARK                            x       y       z     vdW  Elec       q    Type
REMARK                         _______ _______ _______ _____ _____    ______ ____
ROOT
ATOM      1  C   UNL     1      31.831 -23.459 -14.754  0.00  0.00    +0.151 C 
ENDROOT
BRANCH   1   3
ATOM      2  O   UNL     1      34.252 -22.588 -17.366  0.00  0.00    -0.414 OA
ATOM      3  N   UNL     1      33.013 -23.328 -15.580  0.00  0.00    -0.271 N 
ATOM      4  N   UNL     1      32.095 -21.894 -17.279  0.00  0.00    -0.356 NA
ATOM      5  C   UNL     1      33.055 -22.580 -16.742  0.00  0.00    +0.345 C 
ATOM      6  C   UNL     1      34.021 -21.794 -18.453  0.00  0.00    +0.175 C 
ATOM      7  C   UNL     1      32.701 -21.371 -18.396  0.00  0.00    +0.152 C 
ATOM      8  C   UNL     1      34.919 -21.449 -19.455  0.00  0.00    +0.040 C 
ATOM      9  C   UNL     1      32.213 -20.535 -19.410  0.00  0.00    +0.088 C 
ATOM     10  C   UNL     1      34.417 -20.615 -20.459  0.00  0.00    -0.001 C 
ATOM     11  C   UNL     1      33.091 -20.165 -20.440  0.00  0.00    -0.018 C 
ATOM     12  H   UNL     1      33.831 -23.798 -15.299  0.00  0.00    +0.153 HD
ENDBRANCH   1   3
BRANCH   1  15
ATOM     13  O   UNL     1      31.465 -24.640 -12.671  0.00  0.00    -0.273 OA
ATOM     14  N   UNL     1      33.573 -23.778 -13.106  0.00  0.00    -0.301 N 
ATOM     15  C   UNL     1      32.242 -24.032 -13.404  0.00  0.00    +0.240 C 
ATOM     16  H   UNL     1      34.121 -23.282 -13.756  0.00  0.00    +0.150 HD
BRANCH  14  17
ATOM     17  C   UNL     1      34.180 -24.217 -11.873  0.00  0.00    +0.111 C 
BRANCH  17  18
ATOM     18  C   UNL     1      35.038 -23.135 -11.237  0.00  0.00    +0.109 C 
BRANCH  18  19
ATOM     19  N   UNL     1      35.906 -22.536 -12.223  0.00  0.00    -0.331 N 
ATOM     20  H   UNL     1      35.814 -21.571 -12.398  0.00  0.00    +0.147 HD
BRANCH  19  21
ATOM     21  C   UNL     1      36.862 -23.241 -12.937  0.00  0.00    +0.045 C 
ATOM     22  C   UNL     1      37.688 -24.186 -12.300  0.00  0.00    +0.017 C 
ATOM     23  C   UNL     1      37.034 -23.029 -14.317  0.00  0.00    +0.017 C 
ATOM     24  C   UNL     1      38.651 -24.894 -13.019  0.00  0.00    +0.038 C 
ATOM     25  C   UNL     1      37.997 -23.738 -15.036  0.00  0.00    +0.038 C 
ATOM     26  C   UNL     1      38.806 -24.670 -14.386  0.00  0.00    +0.139 C 
BRANCH  26  27
ATOM     27  O   UNL     1      39.744 -25.361 -15.088  0.00  0.00    -0.471 OA
ATOM     28  C   UNL     1      40.586 -26.246 -14.351  0.00  0.00    +0.252 C 
ENDBRANCH  26  27
ENDBRANCH  19  21
ENDBRANCH  18  19
ENDBRANCH  17  18
ENDBRANCH  14  17
ENDBRANCH   1  15
BRANCH   1  29
ATOM     29  C   UNL     1      30.811 -24.379 -15.426  0.00  0.00    +0.029 C 
BRANCH  29  30
ATOM     30  C   UNL     1      29.387 -23.831 -15.345  0.00  0.00    +0.002 C 
ATOM     31  C   UNL     1      28.684 -23.945 -16.703  0.00  0.00    +0.000 C 
ATOM     32  C   UNL     1      29.393 -22.377 -14.853  0.00  0.00    +0.000 C 
ATOM     33  C   UNL     1      27.276 -23.355 -16.661  0.00  0.00    +0.000 C 
ATOM     34  C   UNL     1      27.984 -21.790 -14.814  0.00  0.00    +0.000 C 
ATOM     35  C   UNL     1      27.285 -21.913 -16.164  0.00  0.00    +0.000 C 
ENDBRANCH  29  30
ENDBRANCH   1  29
TORSDOF 9
ENDMDL
