MODEL 1
REMARK VINA RESULT:     -12.1      0.000      0.000
REMARK  Name = 21302490
REMARK  5 active torsions:
REMARK  status: ('A' for Active; 'I' for Inactive)
REMARK    1  A    between atoms: N_2  and  C_19
REMARK    2  A    between atoms: C_19  and  C_20
REMARK    3  A    between atoms: C_20  and  C_21
REMARK    4  A    between atoms: C_21  and  C_23
REMARK    5  A    between atoms: C_23  and  C_25
REMARK                            x       y       z     vdW  Elec       q    Type
REMARK                         _______ _______ _______ _____ _____    ______ ____
ROOT
ATOM      1  N   UNL     1      32.107 -10.147 -22.569  0.00  0.00    -0.307 N 
ATOM      2  N   UNL     1      32.876 -13.744 -21.524  0.00  0.00    +0.387 N 
ATOM      3  N   UNL     1      32.412  -7.351 -22.054  0.00  0.00    -0.303 N 
ATOM      4  C   UNL     1      31.383 -11.424 -22.536  0.00  0.00    +0.073 C 
ATOM      5  C   UNL     1      31.346 -11.844 -21.029  0.00  0.00    +0.021 C 
ATOM      6  C   UNL     1      31.996 -12.486 -23.442  0.00  0.00    -0.003 C 
ATOM      7  C   UNL     1      32.563 -12.667 -20.579  0.00  0.00    -0.071 C 
ATOM      8  C   UNL     1      31.375 -10.488 -20.382  0.00  0.00    -0.008 C 
ATOM      9  C   UNL     1      31.837  -9.558 -21.317  0.00  0.00    +0.057 C 
ATOM     10  C   UNL     1      33.214 -13.176 -22.837  0.00  0.00    -0.076 C 
ATOM     11  C   UNL     1      32.103  -9.214 -23.677  0.00  0.00    +0.112 C 
ATOM     12  C   UNL     1      31.994  -8.202 -21.038  0.00  0.00    +0.061 C 
ATOM     13  C   UNL     1      32.913  -7.965 -23.293  0.00  0.00    +0.112 C 
ATOM     14  C   UNL     1      31.063 -10.098 -19.097  0.00  0.00    -0.003 C 
ATOM     15  C   UNL     1      31.666  -7.813 -19.733  0.00  0.00    +0.016 C 
ATOM     16  C   UNL     1      31.211  -8.747 -18.777  0.00  0.00    +0.001 C 
ATOM     17  C   UNL     1      32.719  -5.957 -21.790  0.00  0.00    +0.112 C 
ATOM     18  H   UNL     1      32.056 -14.344 -21.625  0.00  0.00    -0.080 HD
ENDROOT
BRANCH   2  19
ATOM     19  C   UNL     1      33.985 -14.555 -21.021  0.00  0.00    -0.077 C 
BRANCH  19  20
ATOM     20  C   UNL     1      34.315 -15.674 -22.011  0.00  0.00    -0.015 C 
BRANCH  20  21
ATOM     21  C   UNL     1      34.958 -16.884 -21.328  0.00  0.00    +0.067 C 
BRANCH  21  23
ATOM     22  O   UNL     1      34.215 -18.404 -23.049  0.00  0.00    -0.291 OA
ATOM     23  C   UNL     1      34.450 -18.217 -21.858  0.00  0.00    +0.173 C 
BRANCH  23  25
ATOM     24  F   UNL     1      33.707 -22.448 -18.234  0.00  0.00    -0.204 F 
ATOM     25  C   UNL     1      34.252 -19.339 -20.895  0.00  0.00    +0.035 C 
ATOM     26  C   UNL     1      32.963 -19.753 -20.561  0.00  0.00    +0.005 C 
ATOM     27  C   UNL     1      35.357 -19.976 -20.330  0.00  0.00    +0.005 C 
ATOM     28  C   UNL     1      32.778 -20.804 -19.662  0.00  0.00    +0.030 C 
ATOM     29  C   UNL     1      35.173 -21.026 -19.431  0.00  0.00    +0.030 C 
ATOM     30  C   UNL     1      33.884 -21.440 -19.097  0.00  0.00    +0.140 C 
ENDBRANCH  23  25
ENDBRANCH  21  23
ENDBRANCH  20  21
ENDBRANCH  19  20
ENDBRANCH   2  19
TORSDOF 5
ENDMDL
MODEL 2
REMARK VINA RESULT:     -11.7      2.882      5.588
REMARK  Name = 21302490
REMARK  5 active torsions:
REMARK  status: ('A' for Active; 'I' for Inactive)
REMARK    1  A    between atoms: N_2  and  C_19
REMARK    2  A    between atoms: C_19  and  C_20
REMARK    3  A    between atoms: C_20  and  C_21
REMARK    4  A    between atoms: C_21  and  C_23
REMARK    5  A    between atoms: C_23  and  C_25
REMARK                            x       y       z     vdW  Elec       q    Type
REMARK                         _______ _______ _______ _____ _____    ______ ____
ROOT
ATOM      1  N   UNL     1      31.660  -5.457 -21.869  0.00  0.00    -0.307 N 
ATOM      2  N   UNL     1      32.468  -9.177 -22.224  0.00  0.00    +0.387 N 
ATOM      3  N   UNL     1      30.906  -3.004 -23.131  0.00  0.00    -0.303 N 
ATOM      4  C   UNL     1      32.623  -6.398 -21.282  0.00  0.00    +0.073 C 
ATOM      5  C   UNL     1      33.481  -6.918 -22.482  0.00  0.00    +0.021 C 
ATOM      6  C   UNL     1      31.960  -7.517 -20.486  0.00  0.00    -0.003 C 
ATOM      7  C   UNL     1      32.893  -8.153 -23.183  0.00  0.00    -0.071 C 
ATOM      8  C   UNL     1      33.405  -5.725 -23.392  0.00  0.00    -0.008 C 
ATOM      9  C   UNL     1      32.326  -4.931 -22.994  0.00  0.00    +0.057 C 
ATOM     10  C   UNL     1      31.409  -8.643 -21.357  0.00  0.00    -0.076 C 
ATOM     11  C   UNL     1      30.889  -4.481 -21.126  0.00  0.00    +0.112 C 
ATOM     12  C   UNL     1      31.966  -3.748 -23.636  0.00  0.00    +0.061 C 
ATOM     13  C   UNL     1      30.060  -3.635 -22.106  0.00  0.00    +0.112 C 
ATOM     14  C   UNL     1      34.174  -5.373 -24.481  0.00  0.00    -0.003 C 
ATOM     15  C   UNL     1      32.759  -3.393 -24.736  0.00  0.00    +0.016 C 
ATOM     16  C   UNL     1      33.843  -4.195 -25.153  0.00  0.00    +0.001 C 
ATOM     17  C   UNL     1      30.404  -1.836 -23.831  0.00  0.00    +0.112 C 
ATOM     18  H   UNL     1      33.267  -9.441 -21.646  0.00  0.00    -0.080 HD
ENDROOT
BRANCH   2  19
ATOM     19  C   UNL     1      31.992 -10.367 -22.930  0.00  0.00    -0.077 C 
BRANCH  19  20
ATOM     20  C   UNL     1      33.171 -11.124 -23.546  0.00  0.00    -0.015 C 
BRANCH  20  21
ATOM     21  C   UNL     1      32.949 -12.639 -23.555  0.00  0.00    +0.067 C 
BRANCH  21  23
ATOM     22  O   UNL     1      33.894 -12.796 -21.341  0.00  0.00    -0.291 OA
ATOM     23  C   UNL     1      33.635 -13.357 -22.402  0.00  0.00    +0.173 C 
BRANCH  23  25
ATOM     24  F   UNL     1      34.943 -18.788 -23.016  0.00  0.00    -0.204 F 
ATOM     25  C   UNL     1      33.984 -14.798 -22.565  0.00  0.00    +0.035 C 
ATOM     26  C   UNL     1      34.403 -15.543 -21.463  0.00  0.00    +0.005 C 
ATOM     27  C   UNL     1      33.887 -15.402 -23.819  0.00  0.00    +0.005 C 
ATOM     28  C   UNL     1      34.728 -16.891 -21.615  0.00  0.00    +0.030 C 
ATOM     29  C   UNL     1      34.212 -16.749 -23.972  0.00  0.00    +0.030 C 
ATOM     30  C   UNL     1      34.631 -17.494 -22.870  0.00  0.00    +0.140 C 
ENDBRANCH  23  25
ENDBRANCH  21  23
ENDBRANCH  20  21
ENDBRANCH  19  20
ENDBRANCH   2  19
TORSDOF 5
ENDMDL
MODEL 3
REMARK VINA RESULT:     -11.6      2.769      5.472
REMARK  Name = 21302490
REMARK  5 active torsions:
REMARK  status: ('A' for Active; 'I' for Inactive)
REMARK    1  A    between atoms: N_2  and  C_19
REMARK    2  A    between atoms: C_19  and  C_20
REMARK    3  A    between atoms: C_20  and  C_21
REMARK    4  A    between atoms: C_21  and  C_23
REMARK    5  A    between atoms: C_23  and  C_25
REMARK                            x       y       z     vdW  Elec       q    Type
REMARK                         _______ _______ _______ _____ _____    ______ ____
ROOT
ATOM      1  N   UNL     1      31.617  -5.511 -21.822  0.00  0.00    -0.307 N 
ATOM      2  N   UNL     1      32.425  -9.231 -22.181  0.00  0.00    +0.387 N 
ATOM      3  N   UNL     1      30.870  -3.056 -23.082  0.00  0.00    -0.303 N 
ATOM      4  C   UNL     1      32.576  -6.455 -21.233  0.00  0.00    +0.073 C 
ATOM      5  C   UNL     1      33.440  -6.972 -22.430  0.00  0.00    +0.021 C 
ATOM      6  C   UNL     1      31.909  -7.575 -20.442  0.00  0.00    -0.003 C 
ATOM      7  C   UNL     1      32.855  -8.205 -23.136  0.00  0.00    -0.071 C 
ATOM      8  C   UNL     1      33.368  -5.777 -23.338  0.00  0.00    -0.008 C 
ATOM      9  C   UNL     1      32.287  -4.983 -22.943  0.00  0.00    +0.057 C 
ATOM     10  C   UNL     1      31.362  -8.698 -21.318  0.00  0.00    -0.076 C 
ATOM     11  C   UNL     1      30.843  -4.537 -21.081  0.00  0.00    +0.112 C 
ATOM     12  C   UNL     1      31.931  -3.798 -23.584  0.00  0.00    +0.061 C 
ATOM     13  C   UNL     1      30.018  -3.688 -22.062  0.00  0.00    +0.112 C 
ATOM     14  C   UNL     1      34.142  -5.423 -24.422  0.00  0.00    -0.003 C 
ATOM     15  C   UNL     1      32.729  -3.442 -24.679  0.00  0.00    +0.016 C 
ATOM     16  C   UNL     1      33.815  -4.243 -25.093  0.00  0.00    +0.001 C 
ATOM     17  C   UNL     1      30.372  -1.886 -23.782  0.00  0.00    +0.112 C 
ATOM     18  H   UNL     1      33.220  -9.497 -21.601  0.00  0.00    -0.080 HD
ENDROOT
BRANCH   2  19
ATOM     19  C   UNL     1      31.951 -10.420 -22.892  0.00  0.00    -0.077 C 
BRANCH  19  20
ATOM     20  C   UNL     1      33.128 -11.152 -23.541  0.00  0.00    -0.015 C 
BRANCH  20  21
ATOM     21  C   UNL     1      33.437 -12.483 -22.851  0.00  0.00    +0.067 C 
BRANCH  21  23
ATOM     22  O   UNL     1      32.857 -13.597 -24.911  0.00  0.00    -0.291 OA
ATOM     23  C   UNL     1      33.317 -13.686 -23.776  0.00  0.00    +0.173 C 
BRANCH  23  25
ATOM     24  F   UNL     1      35.135 -18.678 -21.944  0.00  0.00    -0.204 F 
ATOM     25  C   UNL     1      33.799 -15.011 -23.289  0.00  0.00    +0.035 C 
ATOM     26  C   UNL     1      33.840 -16.100 -24.160  0.00  0.00    +0.005 C 
ATOM     27  C   UNL     1      34.209 -15.161 -21.965  0.00  0.00    +0.005 C 
ATOM     28  C   UNL     1      34.292 -17.339 -23.706  0.00  0.00    +0.030 C 
ATOM     29  C   UNL     1      34.660 -16.399 -21.510  0.00  0.00    +0.030 C 
ATOM     30  C   UNL     1      34.702 -17.488 -22.380  0.00  0.00    +0.140 C 
ENDBRANCH  23  25
ENDBRANCH  21  23
ENDBRANCH  20  21
ENDBRANCH  19  20
ENDBRANCH   2  19
TORSDOF 5
ENDMDL
MODEL 4
REMARK VINA RESULT:     -11.1      4.547     11.146
REMARK  Name = 21302490
REMARK  5 active torsions:
REMARK  status: ('A' for Active; 'I' for Inactive)
REMARK    1  A    between atoms: N_2  and  C_19
REMARK    2  A    between atoms: C_19  and  C_20
REMARK    3  A    between atoms: C_20  and  C_21
REMARK    4  A    between atoms: C_21  and  C_23
REMARK    5  A    between atoms: C_23  and  C_25
REMARK                            x       y       z     vdW  Elec       q    Type
REMARK                         _______ _______ _______ _____ _____    ______ ____
ROOT
ATOM      1  N   UNL     1      33.893 -21.880 -18.190  0.00  0.00    -0.307 N 
ATOM      2  N   UNL     1      35.621 -19.326 -20.450  0.00  0.00    +0.387 N 
ATOM      3  N   UNL     1      33.177 -22.686 -15.541  0.00  0.00    -0.303 N 
ATOM      4  C   UNL     1      34.718 -21.918 -19.404  0.00  0.00    +0.073 C 
ATOM      5  C   UNL     1      36.091 -21.290 -18.995  0.00  0.00    +0.021 C 
ATOM      6  C   UNL     1      34.068 -21.224 -20.595  0.00  0.00    -0.003 C 
ATOM      7  C   UNL     1      36.152 -19.763 -19.155  0.00  0.00    -0.071 C 
ATOM      8  C   UNL     1      36.120 -21.655 -17.538  0.00  0.00    -0.008 C 
ATOM      9  C   UNL     1      34.820 -21.970 -17.132  0.00  0.00    +0.057 C 
ATOM     10  C   UNL     1      34.206 -19.705 -20.566  0.00  0.00    -0.076 C 
ATOM     11  C   UNL     1      32.680 -22.642 -17.981  0.00  0.00    +0.112 C 
ATOM     12  C   UNL     1      34.492 -22.344 -15.831  0.00  0.00    +0.061 C 
ATOM     13  C   UNL     1      32.156 -22.387 -16.558  0.00  0.00    +0.112 C 
ATOM     14  C   UNL     1      37.164 -21.682 -16.638  0.00  0.00    -0.003 C 
ATOM     15  C   UNL     1      35.561 -22.378 -14.925  0.00  0.00    +0.016 C 
ATOM     16  C   UNL     1      36.875 -22.049 -15.322  0.00  0.00    +0.001 C 
ATOM     17  C   UNL     1      32.751 -22.956 -14.180  0.00  0.00    +0.112 C 
ATOM     18  H   UNL     1      36.147 -19.784 -21.195  0.00  0.00    -0.080 HD
ENDROOT
BRANCH   2  19
ATOM     19  C   UNL     1      35.772 -17.878 -20.599  0.00  0.00    -0.077 C 
BRANCH  19  20
ATOM     20  C   UNL     1      34.611 -17.305 -21.415  0.00  0.00    -0.015 C 
BRANCH  20  21
ATOM     21  C   UNL     1      34.235 -15.887 -20.976  0.00  0.00    +0.067 C 
BRANCH  21  23
ATOM     22  O   UNL     1      34.832 -15.057 -23.162  0.00  0.00    -0.291 OA
ATOM     23  C   UNL     1      34.195 -14.890 -22.125  0.00  0.00    +0.173 C 
BRANCH  23  25
ATOM     24  F   UNL     1      30.937 -10.339 -21.622  0.00  0.00    -0.204 F 
ATOM     25  C   UNL     1      33.331 -13.682 -21.991  0.00  0.00    +0.035 C 
ATOM     26  C   UNL     1      33.315 -12.720 -23.002  0.00  0.00    +0.005 C 
ATOM     27  C   UNL     1      32.537 -13.514 -20.857  0.00  0.00    +0.005 C 
ATOM     28  C   UNL     1      32.507 -11.590 -22.877  0.00  0.00    +0.030 C 
ATOM     29  C   UNL     1      31.729 -12.384 -20.731  0.00  0.00    +0.030 C 
ATOM     30  C   UNL     1      31.713 -11.423 -21.742  0.00  0.00    +0.140 C 
ENDBRANCH  23  25
ENDBRANCH  21  23
ENDBRANCH  20  21
ENDBRANCH  19  20
ENDBRANCH   2  19
TORSDOF 5
ENDMDL
MODEL 5
REMARK VINA RESULT:     -11.0      3.307      6.509
REMARK  Name = 21302490
REMARK  5 active torsions:
REMARK  status: ('A' for Active; 'I' for Inactive)
REMARK    1  A    between atoms: N_2  and  C_19
REMARK    2  A    between atoms: C_19  and  C_20
REMARK    3  A    between atoms: C_20  and  C_21
REMARK    4  A    between atoms: C_21  and  C_23
REMARK    5  A    between atoms: C_23  and  C_25
REMARK                            x       y       z     vdW  Elec       q    Type
REMARK                         _______ _______ _______ _____ _____    ______ ____
ROOT
ATOM      1  N   UNL     1      31.722  -4.358 -23.071  0.00  0.00    -0.307 N 
ATOM      2  N   UNL     1      31.927  -7.735 -21.290  0.00  0.00    +0.387 N 
ATOM      3  N   UNL     1      31.363  -2.920 -25.517  0.00  0.00    -0.303 N 
ATOM      4  C   UNL     1      32.524  -4.945 -21.990  0.00  0.00    +0.073 C 
ATOM      5  C   UNL     1      33.286  -6.146 -22.641  0.00  0.00    +0.021 C 
ATOM      6  C   UNL     1      31.694  -5.344 -20.775  0.00  0.00    -0.003 C 
ATOM      7  C   UNL     1      32.507  -7.470 -22.611  0.00  0.00    -0.071 C 
ATOM      8  C   UNL     1      33.397  -5.647 -24.054  0.00  0.00    -0.008 C 
ATOM      9  C   UNL     1      32.459  -4.628 -24.241  0.00  0.00    +0.057 C 
ATOM     10  C   UNL     1      30.969  -6.677 -20.942  0.00  0.00    -0.076 C 
ATOM     11  C   UNL     1      31.117  -3.042 -23.042  0.00  0.00    +0.112 C 
ATOM     12  C   UNL     1      32.290  -3.953 -25.448  0.00  0.00    +0.061 C 
ATOM     13  C   UNL     1      30.430  -2.767 -24.389  0.00  0.00    +0.112 C 
ATOM     14  C   UNL     1      34.209  -6.055 -25.090  0.00  0.00    -0.003 C 
ATOM     15  C   UNL     1      33.126  -4.368 -26.494  0.00  0.00    +0.016 C 
ATOM     16  C   UNL     1      34.067  -5.405 -26.318  0.00  0.00    +0.001 C 
ATOM     17  C   UNL     1      31.051  -2.270 -26.777  0.00  0.00    +0.112 C 
ATOM     18  H   UNL     1      32.675  -7.745 -20.596  0.00  0.00    -0.080 HD
ENDROOT
BRANCH   2  19
ATOM     19  C   UNL     1      31.267  -9.041 -21.278  0.00  0.00    -0.077 C 
BRANCH  19  20
ATOM     20  C   UNL     1      31.809  -9.919 -22.408  0.00  0.00    -0.015 C 
BRANCH  20  21
ATOM     21  C   UNL     1      31.792 -11.407 -22.047  0.00  0.00    +0.067 C 
BRANCH  21  23
ATOM     22  O   UNL     1      32.872 -11.958 -24.133  0.00  0.00    -0.291 OA
ATOM     23  C   UNL     1      32.658 -12.260 -22.962  0.00  0.00    +0.173 C 
BRANCH  23  25
ATOM     24  F   UNL     1      35.027 -16.904 -20.863  0.00  0.00    -0.204 F 
ATOM     25  C   UNL     1      33.286 -13.494 -22.405  0.00  0.00    +0.035 C 
ATOM     26  C   UNL     1      33.871 -14.426 -23.262  0.00  0.00    +0.005 C 
ATOM     27  C   UNL     1      33.290 -13.713 -21.028  0.00  0.00    +0.005 C 
ATOM     28  C   UNL     1      34.459 -15.579 -22.741  0.00  0.00    +0.030 C 
ATOM     29  C   UNL     1      33.878 -14.865 -20.506  0.00  0.00    +0.030 C 
ATOM     30  C   UNL     1      34.462 -15.797 -21.363  0.00  0.00    +0.140 C 
ENDBRANCH  23  25
ENDBRANCH  21  23
ENDBRANCH  20  21
ENDBRANCH  19  20
ENDBRANCH   2  19
TORSDOF 5
ENDMDL
MODEL 6
REMARK VINA RESULT:     -11.0      8.076     13.251
REMARK  Name = 21302490
REMARK  5 active torsions:
REMARK  status: ('A' for Active; 'I' for Inactive)
REMARK    1  A    between atoms: N_2  and  C_19
REMARK    2  A    between atoms: C_19  and  C_20
REMARK    3  A    between atoms: C_20  and  C_21
REMARK    4  A    between atoms: C_21  and  C_23
REMARK    5  A    between atoms: C_23  and  C_25
REMARK                            x       y       z     vdW  Elec       q    Type
REMARK                         _______ _______ _______ _____ _____    ______ ____
ROOT
ATOM      1  N   UNL     1      37.467 -23.285 -15.020  0.00  0.00    -0.307 N 
ATOM      2  N   UNL     1      33.904 -22.427 -16.108  0.00  0.00    +0.387 N 
ATOM      3  N   UNL     1      39.290 -25.234 -13.993  0.00  0.00    -0.303 N 
ATOM      4  C   UNL     1      36.568 -22.129 -14.907  0.00  0.00    +0.073 C 
ATOM      5  C   UNL     1      35.338 -22.637 -14.085  0.00  0.00    +0.021 C 
ATOM      6  C   UNL     1      36.187 -21.531 -16.256  0.00  0.00    -0.003 C 
ATOM      7  C   UNL     1      34.226 -23.258 -14.944  0.00  0.00    -0.071 C 
ATOM      8  C   UNL     1      36.001 -23.700 -13.256  0.00  0.00    -0.008 C 
ATOM      9  C   UNL     1      37.217 -24.040 -13.857  0.00  0.00    +0.057 C 
ATOM     10  C   UNL     1      35.084 -22.301 -16.975  0.00  0.00    -0.076 C 
ATOM     11  C   UNL     1      38.865 -23.221 -15.395  0.00  0.00    +0.112 C 
ATOM     12  C   UNL     1      38.081 -25.006 -13.347  0.00  0.00    +0.061 C 
ATOM     13  C   UNL     1      39.477 -24.630 -15.321  0.00  0.00    +0.112 C 
ATOM     14  C   UNL     1      35.582 -24.338 -12.108  0.00  0.00    -0.003 C 
ATOM     15  C   UNL     1      37.651 -25.643 -12.175  0.00  0.00    +0.016 C 
ATOM     16  C   UNL     1      36.420 -25.316 -11.568  0.00  0.00    +0.001 C 
ATOM     17  C   UNL     1      40.169 -26.315 -13.586  0.00  0.00    +0.112 C 
ATOM     18  H   UNL     1      33.630 -21.498 -15.786  0.00  0.00    -0.080 HD
ENDROOT
BRANCH   2  19
ATOM     19  C   UNL     1      32.787 -23.008 -16.853  0.00  0.00    -0.077 C 
BRANCH  19  20
ATOM     20  C   UNL     1      32.245 -21.999 -17.868  0.00  0.00    -0.015 C 
BRANCH  20  21
ATOM     21  C   UNL     1      33.133 -21.890 -19.111  0.00  0.00    +0.067 C 
BRANCH  21  23
ATOM     22  O   UNL     1      31.750 -20.191 -20.122  0.00  0.00    -0.291 OA
ATOM     23  C   UNL     1      32.880 -20.630 -19.925  0.00  0.00    +0.173 C 
BRANCH  23  25
ATOM     24  F   UNL     1      37.292 -17.851 -22.022  0.00  0.00    -0.204 F 
ATOM     25  C   UNL     1      34.051 -19.893 -20.483  0.00  0.00    +0.035 C 
ATOM     26  C   UNL     1      33.894 -19.079 -21.604  0.00  0.00    +0.005 C 
ATOM     27  C   UNL     1      35.303 -20.016 -19.881  0.00  0.00    +0.005 C 
ATOM     28  C   UNL     1      34.988 -18.389 -22.125  0.00  0.00    +0.030 C 
ATOM     29  C   UNL     1      36.399 -19.327 -20.401  0.00  0.00    +0.030 C 
ATOM     30  C   UNL     1      36.241 -18.513 -21.522  0.00  0.00    +0.140 C 
ENDBRANCH  23  25
ENDBRANCH  21  23
ENDBRANCH  20  21
ENDBRANCH  19  20
ENDBRANCH   2  19
TORSDOF 5
ENDMDL
MODEL 7
REMARK VINA RESULT:     -11.0      5.771     12.453
REMARK  Name = 21302490
REMARK  5 active torsions:
REMARK  status: ('A' for Active; 'I' for Inactive)
REMARK    1  A    between atoms: N_2  and  C_19
REMARK    2  A    between atoms: C_19  and  C_20
REMARK    3  A    between atoms: C_20  and  C_21
REMARK    4  A    between atoms: C_21  and  C_23
REMARK    5  A    between atoms: C_23  and  C_25
REMARK                            x       y       z     vdW  Elec       q    Type
REMARK                         _______ _______ _______ _____ _____    ______ ____
ROOT
ATOM      1  N   UNL     1      36.592 -22.829 -15.464  0.00  0.00    -0.307 N 
ATOM      2  N   UNL     1      35.017 -20.959 -18.402  0.00  0.00    +0.387 N 
ATOM      3  N   UNL     1      36.709 -25.207 -13.881  0.00  0.00    -0.303 N 
ATOM      4  C   UNL     1      36.172 -21.451 -15.747  0.00  0.00    +0.073 C 
ATOM      5  C   UNL     1      34.632 -21.530 -16.011  0.00  0.00    +0.021 C 
ATOM      6  C   UNL     1      36.948 -20.809 -16.891  0.00  0.00    -0.003 C 
ATOM      7  C   UNL     1      34.263 -21.809 -17.476  0.00  0.00    -0.071 C 
ATOM      8  C   UNL     1      34.284 -22.717 -15.158  0.00  0.00    -0.008 C 
ATOM      9  C   UNL     1      35.455 -23.432 -14.891  0.00  0.00    +0.057 C 
ATOM     10  C   UNL     1      36.455 -21.228 -18.273  0.00  0.00    -0.076 C 
ATOM     11  C   UNL     1      37.843 -23.208 -14.839  0.00  0.00    +0.112 C 
ATOM     12  C   UNL     1      35.485 -24.599 -14.131  0.00  0.00    +0.061 C 
ATOM     13  C   UNL     1      37.873 -24.733 -14.645  0.00  0.00    +0.112 C 
ATOM     14  C   UNL     1      33.067 -23.158 -14.684  0.00  0.00    -0.003 C 
ATOM     15  C   UNL     1      34.245 -25.035 -13.645  0.00  0.00    +0.016 C 
ATOM     16  C   UNL     1      33.055 -24.327 -13.920  0.00  0.00    +0.001 C 
ATOM     17  C   UNL     1      36.789 -26.491 -13.209  0.00  0.00    +0.112 C 
ATOM     18  H   UNL     1      34.842 -19.980 -18.170  0.00  0.00    -0.080 HD
ENDROOT
BRANCH   2  19
ATOM     19  C   UNL     1      34.578 -21.194 -19.779  0.00  0.00    -0.077 C 
BRANCH  19  20
ATOM     20  C   UNL     1      33.673 -20.054 -20.249  0.00  0.00    -0.015 C 
BRANCH  20  21
ATOM     21  C   UNL     1      34.233 -19.336 -21.481  0.00  0.00    +0.067 C 
BRANCH  21  23
ATOM     22  O   UNL     1      36.042 -18.152 -20.409  0.00  0.00    -0.291 OA
ATOM     23  C   UNL     1      35.055 -18.102 -21.139  0.00  0.00    +0.173 C 
BRANCH  23  25
ATOM     24  F   UNL     1      33.557 -13.167 -23.371  0.00  0.00    -0.204 F 
ATOM     25  C   UNL     1      34.656 -16.792 -21.731  0.00  0.00    +0.035 C 
ATOM     26  C   UNL     1      34.286 -15.735 -20.900  0.00  0.00    +0.005 C 
ATOM     27  C   UNL     1      34.656 -16.624 -23.115  0.00  0.00    +0.005 C 
ATOM     28  C   UNL     1      33.914 -14.510 -21.454  0.00  0.00    +0.030 C 
ATOM     29  C   UNL     1      34.285 -15.400 -23.670  0.00  0.00    +0.030 C 
ATOM     30  C   UNL     1      33.914 -14.343 -22.839  0.00  0.00    +0.140 C 
ENDBRANCH  23  25
ENDBRANCH  21  23
ENDBRANCH  20  21
ENDBRANCH  19  20
ENDBRANCH   2  19
TORSDOF 5
ENDMDL
MODEL 8
REMARK VINA RESULT:     -10.8      4.222      6.977
REMARK  Name = 21302490
REMARK  5 active torsions:
REMARK  status: ('A' for Active; 'I' for Inactive)
REMARK    1  A    between atoms: N_2  and  C_19
REMARK    2  A    between atoms: C_19  and  C_20
REMARK    3  A    between atoms: C_20  and  C_21
REMARK    4  A    between atoms: C_21  and  C_23
REMARK    5  A    between atoms: C_23  and  C_25
REMARK                            x       y       z     vdW  Elec       q    Type
REMARK                         _______ _______ _______ _____ _____    ______ ____
ROOT
ATOM      1  N   UNL     1      31.804  -5.449 -24.502  0.00  0.00    -0.307 N 
ATOM      2  N   UNL     1      31.190  -7.553 -21.370  0.00  0.00    +0.387 N 
ATOM      3  N   UNL     1      32.893  -3.069 -25.653  0.00  0.00    -0.303 N 
ATOM      4  C   UNL     1      30.716  -6.282 -23.975  0.00  0.00    +0.073 C 
ATOM      5  C   UNL     1      30.287  -5.607 -22.632  0.00  0.00    +0.021 C 
ATOM      6  C   UNL     1      31.104  -7.748 -23.817  0.00  0.00    -0.003 C 
ATOM      7  C   UNL     1      31.079  -6.091 -21.407  0.00  0.00    -0.071 C 
ATOM      8  C   UNL     1      30.635  -4.178 -22.936  0.00  0.00    -0.008 C 
ATOM      9  C   UNL     1      31.524  -4.156 -24.014  0.00  0.00    +0.057 C 
ATOM     10  C   UNL     1      31.914  -8.031 -22.555  0.00  0.00    -0.076 C 
ATOM     11  C   UNL     1      32.290  -5.475 -25.866  0.00  0.00    +0.112 C 
ATOM     12  C   UNL     1      32.056  -2.984 -24.548  0.00  0.00    +0.061 C 
ATOM     13  C   UNL     1      33.378  -4.403 -26.040  0.00  0.00    +0.112 C 
ATOM     14  C   UNL     1      30.247  -3.006 -22.322  0.00  0.00    -0.003 C 
ATOM     15  C   UNL     1      31.648  -1.798 -23.923  0.00  0.00    +0.016 C 
ATOM     16  C   UNL     1      30.761  -1.810 -22.826  0.00  0.00    +0.001 C 
ATOM     17  C   UNL     1      33.579  -1.898 -26.170  0.00  0.00    +0.112 C 
ATOM     18  H   UNL     1      30.253  -7.956 -21.370  0.00  0.00    -0.080 HD
ENDROOT
BRANCH   2  19
ATOM     19  C   UNL     1      31.877  -7.979 -20.150  0.00  0.00    -0.077 C 
BRANCH  19  20
ATOM     20  C   UNL     1      31.001  -8.954 -19.361  0.00  0.00    -0.015 C 
BRANCH  20  21
ATOM     21  C   UNL     1      31.492 -10.400 -19.475  0.00  0.00    +0.067 C 
BRANCH  21  23
ATOM     22  O   UNL     1      30.183 -10.733 -21.475  0.00  0.00    -0.291 OA
ATOM     23  C   UNL     1      31.174 -11.041 -20.818  0.00  0.00    +0.173 C 
BRANCH  23  25
ATOM     24  F   UNL     1      34.715 -14.895 -22.865  0.00  0.00    -0.204 F 
ATOM     25  C   UNL     1      32.115 -12.064 -21.361  0.00  0.00    +0.035 C 
ATOM     26  C   UNL     1      32.486 -13.156 -20.577  0.00  0.00    +0.005 C 
ATOM     27  C   UNL     1      32.622 -11.928 -22.653  0.00  0.00    +0.005 C 
ATOM     28  C   UNL     1      33.364 -14.113 -21.085  0.00  0.00    +0.030 C 
ATOM     29  C   UNL     1      33.501 -12.884 -23.162  0.00  0.00    +0.030 C 
ATOM     30  C   UNL     1      33.871 -13.977 -22.378  0.00  0.00    +0.140 C 
ENDBRANCH  23  25
ENDBRANCH  21  23
ENDBRANCH  20  21
ENDBRANCH  19  20
ENDBRANCH   2  19
TORSDOF 5
ENDMDL
MODEL 9
REMARK VINA RESULT:     -10.6      2.251      4.395
REMARK  Name = 21302490
REMARK  5 active torsions:
REMARK  status: ('A' for Active; 'I' for Inactive)
REMARK    1  A    between atoms: N_2  and  C_19
REMARK    2  A    between atoms: C_19  and  C_20
REMARK    3  A    between atoms: C_20  and  C_21
REMARK    4  A    between atoms: C_21  and  C_23
REMARK    5  A    between atoms: C_23  and  C_25
REMARK                            x       y       z     vdW  Elec       q    Type
REMARK                         _______ _______ _______ _____ _____    ______ ____
ROOT
ATOM      1  N   UNL     1      31.392  -7.117 -22.294  0.00  0.00    -0.307 N 
ATOM      2  N   UNL     1      31.984 -10.893 -22.381  0.00  0.00    +0.387 N 
ATOM      3  N   UNL     1      31.055  -4.678 -23.748  0.00  0.00    -0.303 N 
ATOM      4  C   UNL     1      32.162  -8.092 -21.512  0.00  0.00    +0.073 C 
ATOM      5  C   UNL     1      33.185  -8.717 -22.517  0.00  0.00    +0.021 C 
ATOM      6  C   UNL     1      31.288  -9.130 -20.817  0.00  0.00    -0.003 C 
ATOM      7  C   UNL     1      32.648  -9.941 -23.276  0.00  0.00    -0.071 C 
ATOM      8  C   UNL     1      33.360  -7.562 -23.461  0.00  0.00    -0.008 C 
ATOM      9  C   UNL     1      32.286  -6.684 -23.294  0.00  0.00    +0.057 C 
ATOM     10  C   UNL     1      30.826 -10.255 -21.740  0.00  0.00    -0.076 C 
ATOM     11  C   UNL     1      30.570  -6.063 -21.736  0.00  0.00    +0.112 C 
ATOM     12  C   UNL     1      32.134  -5.509 -24.026  0.00  0.00    +0.061 C 
ATOM     13  C   UNL     1      29.994  -5.208 -22.878  0.00  0.00    +0.112 C 
ATOM     14  C   UNL     1      34.336  -7.308 -24.400  0.00  0.00    -0.003 C 
ATOM     15  C   UNL     1      33.136  -5.253 -24.972  0.00  0.00    +0.016 C 
ATOM     16  C   UNL     1      34.218  -6.141 -25.158  0.00  0.00    +0.001 C 
ATOM     17  C   UNL     1      30.773  -3.511 -24.564  0.00  0.00    +0.112 C 
ATOM     18  H   UNL     1      32.643 -11.183 -21.658  0.00  0.00    -0.080 HD
ENDROOT
BRANCH   2  19
ATOM     19  C   UNL     1      31.561 -12.080 -23.125  0.00  0.00    -0.077 C 
BRANCH  19  20
ATOM     20  C   UNL     1      32.696 -12.573 -24.026  0.00  0.00    -0.015 C 
BRANCH  20  21
ATOM     21  C   UNL     1      33.545 -13.655 -23.352  0.00  0.00    +0.067 C 
BRANCH  21  23
ATOM     22  O   UNL     1      33.398 -14.988 -25.358  0.00  0.00    -0.291 OA
ATOM     23  C   UNL     1      33.618 -14.949 -24.150  0.00  0.00    +0.173 C 
BRANCH  23  25
ATOM     24  F   UNL     1      35.034 -19.683 -21.472  0.00  0.00    -0.204 F 
ATOM     25  C   UNL     1      33.992 -16.205 -23.438  0.00  0.00    +0.035 C 
ATOM     26  C   UNL     1      33.680 -17.443 -23.999  0.00  0.00    +0.005 C 
ATOM     27  C   UNL     1      34.657 -16.142 -22.214  0.00  0.00    +0.005 C 
ATOM     28  C   UNL     1      34.032 -18.619 -23.335  0.00  0.00    +0.030 C 
ATOM     29  C   UNL     1      35.009 -17.316 -21.549  0.00  0.00    +0.030 C 
ATOM     30  C   UNL     1      34.696 -18.554 -22.110  0.00  0.00    +0.140 C 
ENDBRANCH  23  25
ENDBRANCH  21  23
ENDBRANCH  20  21
ENDBRANCH  19  20
ENDBRANCH   2  19
TORSDOF 5
ENDMDL
