MODEL 1
REMARK VINA RESULT:     -12.8      0.000      0.000
REMARK  Name = 447018
REMARK  6 active torsions:
REMARK  status: ('A' for Active; 'I' for Inactive)
REMARK    1  A    between atoms: N_2  and  C_20
REMARK    2  A    between atoms: C_3  and  C_5
REMARK    3  A    between atoms: C_6  and  C_14
REMARK    4  A    between atoms: C_8  and  N_11
REMARK    5  A    between atoms: C_14  and  N_16
REMARK    6  A    between atoms: C_20  and  C_22
REMARK                            x       y       z     vdW  Elec       q    Type
REMARK                         _______ _______ _______ _____ _____    ______ ____
ROOT
ATOM      1  O   UNL     1      31.900 -20.628 -19.881  0.00  0.00    -0.270 OA
ATOM      2  N   UNL     1      33.338 -21.681 -18.378  0.00  0.00    -0.269 N 
ATOM      3  C   UNL     1      33.032 -20.836 -19.445  0.00  0.00    +0.249 C 
ATOM      4  C   UNL     1      32.276 -22.396 -17.692  0.00  0.00    +0.116 C 
ENDROOT
BRANCH   3   5
ATOM      5  C   UNL     1      34.128 -20.113 -20.107  0.00  0.00    +0.053 C 
ATOM      6  C   UNL     1      34.897 -18.660 -21.857  0.00  0.00    +0.011 C 
ATOM      7  C   UNL     1      33.857 -19.346 -21.230  0.00  0.00    +0.003 C 
ATOM      8  C   UNL     1      36.195 -18.750 -21.355  0.00  0.00    +0.039 C 
ATOM      9  C   UNL     1      35.413 -20.210 -19.596  0.00  0.00    +0.006 C 
ATOM     10  C   UNL     1      36.453 -19.525 -20.224  0.00  0.00    +0.014 C 
BRANCH   8  11
ATOM     11  N   UNL     1      37.260 -18.062 -21.977  0.00  0.00    -0.357 N 
ATOM     12  H   UNL     1      37.079 -17.256 -22.512  0.00  0.00    +0.142 HD
ATOM     13  H   UNL     1      38.183 -18.390 -21.877  0.00  0.00    +0.142 HD
ENDBRANCH   8  11
BRANCH   6  14
ATOM     14  C   UNL     1      34.591 -17.837 -23.067  0.00  0.00    +0.121 C 
BRANCH  14  16
ATOM     15  O   UNL     1      34.139 -15.691 -24.927  0.00  0.00    -0.275 OA
ATOM     16  N   UNL     1      34.365 -16.431 -22.737  0.00  0.00    -0.274 N 
ATOM     17  C   UNL     1      34.377 -16.116 -21.315  0.00  0.00    +0.115 C 
ATOM     18  C   UNL     1      34.155 -15.460 -23.715  0.00  0.00    +0.226 C 
ATOM     19  C   UNL     1      33.935 -14.047 -23.232  0.00  0.00    +0.095 C 
ENDBRANCH  14  16
ENDBRANCH   6  14
ENDBRANCH   3   5
BRANCH   2  20
ATOM     20  C   UNL     1      34.693 -21.924 -17.866  0.00  0.00    +0.135 C 
BRANCH  20  22
ATOM     21  N   UNL     1      35.799 -22.182 -15.646  0.00  0.00    -0.287 N 
ATOM     22  C   UNL     1      34.706 -22.351 -16.452  0.00  0.00    +0.049 C 
ATOM     23  C   UNL     1      35.539 -22.669 -14.384  0.00  0.00    +0.051 C 
ATOM     24  C   UNL     1      34.234 -23.162 -14.395  0.00  0.00    +0.015 C 
ATOM     25  C   UNL     1      33.720 -22.956 -15.706  0.00  0.00    +0.013 C 
ATOM     26  C   UNL     1      37.048 -21.575 -16.058  0.00  0.00    +0.117 C 
ATOM     27  C   UNL     1      36.352 -22.708 -13.245  0.00  0.00    +0.015 C 
ATOM     28  C   UNL     1      33.711 -23.725 -13.214  0.00  0.00    +0.001 C 
ATOM     29  C   UNL     1      35.813 -23.271 -12.085  0.00  0.00    +0.001 C 
ATOM     30  C   UNL     1      34.513 -23.771 -12.067  0.00  0.00    +0.000 C 
ENDBRANCH  20  22
ENDBRANCH   2  20
TORSDOF 6
ENDMDL
MODEL 2
REMARK VINA RESULT:     -12.3      3.077      9.422
REMARK  Name = 447018
REMARK  6 active torsions:
REMARK  status: ('A' for Active; 'I' for Inactive)
REMARK    1  A    between atoms: N_2  and  C_20
REMARK    2  A    between atoms: C_3  and  C_5
REMARK    3  A    between atoms: C_6  and  C_14
REMARK    4  A    between atoms: C_8  and  N_11
REMARK    5  A    between atoms: C_14  and  N_16
REMARK    6  A    between atoms: C_20  and  C_22
REMARK                            x       y       z     vdW  Elec       q    Type
REMARK                         _______ _______ _______ _____ _____    ______ ____
ROOT
ATOM      1  O   UNL     1      33.790 -18.723 -24.150  0.00  0.00    -0.270 OA
ATOM      2  N   UNL     1      34.106 -16.570 -23.317  0.00  0.00    -0.269 N 
ATOM      3  C   UNL     1      34.163 -17.962 -23.259  0.00  0.00    +0.249 C 
ATOM      4  C   UNL     1      33.572 -15.914 -24.498  0.00  0.00    +0.116 C 
ENDROOT
BRANCH   3   5
ATOM      5  C   UNL     1      34.726 -18.594 -22.056  0.00  0.00    +0.053 C 
ATOM      6  C   UNL     1      34.743 -20.402 -20.476  0.00  0.00    +0.011 C 
ATOM      7  C   UNL     1      34.209 -19.803 -21.617  0.00  0.00    +0.003 C 
ATOM      8  C   UNL     1      35.787 -19.785 -19.788  0.00  0.00    +0.039 C 
ATOM      9  C   UNL     1      35.765 -17.970 -21.382  0.00  0.00    +0.006 C 
ATOM     10  C   UNL     1      36.298 -18.569 -20.242  0.00  0.00    +0.014 C 
BRANCH   8  11
ATOM     11  N   UNL     1      36.340 -20.377 -18.631  0.00  0.00    -0.357 N 
ATOM     12  H   UNL     1      35.941 -20.197 -17.749  0.00  0.00    +0.142 HD
ATOM     13  H   UNL     1      37.123 -20.968 -18.707  0.00  0.00    +0.142 HD
ENDBRANCH   8  11
BRANCH   6  14
ATOM     14  C   UNL     1      34.176 -21.705 -20.014  0.00  0.00    +0.121 C 
BRANCH  14  16
ATOM     15  O   UNL     1      33.647 -23.242 -17.641  0.00  0.00    -0.275 OA
ATOM     16  N   UNL     1      33.056 -21.526 -19.089  0.00  0.00    -0.274 N 
ATOM     17  C   UNL     1      32.133 -20.453 -19.432  0.00  0.00    +0.115 C 
ATOM     18  C   UNL     1      32.885 -22.326 -17.961  0.00  0.00    +0.226 C 
ATOM     19  C   UNL     1      31.685 -22.029 -17.095  0.00  0.00    +0.095 C 
ENDBRANCH  14  16
ENDBRANCH   6  14
ENDBRANCH   3   5
BRANCH   2  20
ATOM     20  C   UNL     1      34.554 -15.669 -22.245  0.00  0.00    +0.135 C 
BRANCH  20  22
ATOM     21  N   UNL     1      33.044 -13.960 -21.237  0.00  0.00    -0.287 N 
ATOM     22  C   UNL     1      33.857 -14.366 -22.261  0.00  0.00    +0.049 C 
ATOM     23  C   UNL     1      32.525 -12.713 -21.510  0.00  0.00    +0.051 C 
ATOM     24  C   UNL     1      33.030 -12.320 -22.750  0.00  0.00    +0.015 C 
ATOM     25  C   UNL     1      33.870 -13.373 -23.212  0.00  0.00    +0.013 C 
ATOM     26  C   UNL     1      32.770 -14.727 -20.040  0.00  0.00    +0.117 C 
ATOM     27  C   UNL     1      31.656 -11.913 -20.760  0.00  0.00    +0.015 C 
ATOM     28  C   UNL     1      32.651 -11.067 -23.271  0.00  0.00    +0.001 C 
ATOM     29  C   UNL     1      31.293 -10.675 -21.296  0.00  0.00    +0.001 C 
ATOM     30  C   UNL     1      31.782 -10.255 -22.531  0.00  0.00    +0.000 C 
ENDBRANCH  20  22
ENDBRANCH   2  20
TORSDOF 6
ENDMDL
MODEL 3
REMARK VINA RESULT:     -12.0      7.978     12.575
REMARK  Name = 447018
REMARK  6 active torsions:
REMARK  status: ('A' for Active; 'I' for Inactive)
REMARK    1  A    between atoms: N_2  and  C_20
REMARK    2  A    between atoms: C_3  and  C_5
REMARK    3  A    between atoms: C_6  and  C_14
REMARK    4  A    between atoms: C_8  and  N_11
REMARK    5  A    between atoms: C_14  and  N_16
REMARK    6  A    between atoms: C_20  and  C_22
REMARK                            x       y       z     vdW  Elec       q    Type
REMARK                         _______ _______ _______ _____ _____    ______ ____
ROOT
ATOM      1  O   UNL     1      30.808  -9.168 -20.886  0.00  0.00    -0.270 OA
ATOM      2  N   UNL     1      31.881 -10.798 -22.161  0.00  0.00    -0.269 N 
ATOM      3  C   UNL     1      31.530  -9.490 -21.829  0.00  0.00    +0.249 C 
ATOM      4  C   UNL     1      31.384 -11.907 -21.364  0.00  0.00    +0.116 C 
ENDROOT
BRANCH   3   5
ATOM      5  C   UNL     1      32.064  -8.389 -22.646  0.00  0.00    +0.053 C 
ATOM      6  C   UNL     1      31.715  -6.348 -23.861  0.00  0.00    +0.011 C 
ATOM      7  C   UNL     1      31.209  -7.391 -23.086  0.00  0.00    +0.003 C 
ATOM      8  C   UNL     1      33.071  -6.315 -24.185  0.00  0.00    +0.039 C 
ATOM      9  C   UNL     1      33.414  -8.369 -22.960  0.00  0.00    +0.006 C 
ATOM     10  C   UNL     1      33.921  -7.326 -23.735  0.00  0.00    +0.014 C 
BRANCH   8  11
ATOM     11  N   UNL     1      33.602  -5.266 -24.969  0.00  0.00    -0.357 N 
ATOM     12  H   UNL     1      34.229  -5.469 -25.700  0.00  0.00    +0.142 HD
ATOM     13  H   UNL     1      33.345  -4.334 -24.783  0.00  0.00    +0.142 HD
ENDBRANCH   8  11
BRANCH   6  14
ATOM     14  C   UNL     1      30.783  -5.278 -24.329  0.00  0.00    +0.121 C 
BRANCH  14  16
ATOM     15  O   UNL     1      31.899  -2.686 -24.883  0.00  0.00    -0.275 OA
ATOM     16  N   UNL     1      30.778  -4.118 -23.439  0.00  0.00    -0.274 N 
ATOM     17  C   UNL     1      30.137  -4.328 -22.148  0.00  0.00    +0.115 C 
ATOM     18  C   UNL     1      31.348  -2.899 -23.799  0.00  0.00    +0.226 C 
ATOM     19  C   UNL     1      31.272  -1.787 -22.782  0.00  0.00    +0.095 C 
ENDBRANCH  14  16
ENDBRANCH   6  14
ENDBRANCH   3   5
BRANCH   2  20
ATOM     20  C   UNL     1      32.743 -11.172 -23.291  0.00  0.00    +0.135 C 
BRANCH  20  22
ATOM     21  N   UNL     1      33.004 -13.436 -24.303  0.00  0.00    -0.287 N 
ATOM     22  C   UNL     1      33.172 -12.585 -23.244  0.00  0.00    +0.049 C 
ATOM     23  C   UNL     1      33.489 -14.687 -23.989  0.00  0.00    +0.051 C 
ATOM     24  C   UNL     1      33.981 -14.621 -22.685  0.00  0.00    +0.015 C 
ATOM     25  C   UNL     1      33.774 -13.289 -22.227  0.00  0.00    +0.013 C 
ATOM     26  C   UNL     1      32.406 -13.075 -25.572  0.00  0.00    +0.117 C 
ATOM     27  C   UNL     1      33.529 -15.858 -24.754  0.00  0.00    +0.015 C 
ATOM     28  C   UNL     1      34.541 -15.779 -22.111  0.00  0.00    +0.001 C 
ATOM     29  C   UNL     1      34.088 -16.995 -24.165  0.00  0.00    +0.001 C 
ATOM     30  C   UNL     1      34.588 -16.959 -22.864  0.00  0.00    +0.000 C 
ENDBRANCH  20  22
ENDBRANCH   2  20
TORSDOF 6
ENDMDL
MODEL 4
REMARK VINA RESULT:     -11.7      3.458      8.541
REMARK  Name = 447018
REMARK  6 active torsions:
REMARK  status: ('A' for Active; 'I' for Inactive)
REMARK    1  A    between atoms: N_2  and  C_20
REMARK    2  A    between atoms: C_3  and  C_5
REMARK    3  A    between atoms: C_6  and  C_14
REMARK    4  A    between atoms: C_8  and  N_11
REMARK    5  A    between atoms: C_14  and  N_16
REMARK    6  A    between atoms: C_20  and  C_22
REMARK                            x       y       z     vdW  Elec       q    Type
REMARK                         _______ _______ _______ _____ _____    ______ ____
ROOT
ATOM      1  O   UNL     1      35.071 -22.400 -13.730  0.00  0.00    -0.270 OA
ATOM      2  N   UNL     1      35.003 -22.316 -16.057  0.00  0.00    -0.269 N 
ATOM      3  C   UNL     1      34.493 -22.613 -14.794  0.00  0.00    +0.249 C 
ATOM      4  C   UNL     1      36.317 -21.709 -16.184  0.00  0.00    +0.116 C 
ENDROOT
BRANCH   3   5
ATOM      5  C   UNL     1      33.152 -23.211 -14.700  0.00  0.00    +0.053 C 
ATOM      6  C   UNL     1      30.907 -23.416 -15.526  0.00  0.00    +0.011 C 
ATOM      7  C   UNL     1      32.178 -22.848 -15.617  0.00  0.00    +0.003 C 
ATOM      8  C   UNL     1      30.626 -24.339 -14.519  0.00  0.00    +0.039 C 
ATOM      9  C   UNL     1      32.887 -24.128 -13.694  0.00  0.00    +0.006 C 
ATOM     10  C   UNL     1      31.616 -24.696 -13.603  0.00  0.00    +0.014 C 
BRANCH   8  11
ATOM     11  N   UNL     1      29.345 -24.924 -14.412  0.00  0.00    -0.357 N 
ATOM     12  H   UNL     1      28.668 -24.755 -15.106  0.00  0.00    +0.142 HD
ATOM     13  H   UNL     1      29.129 -25.500 -13.643  0.00  0.00    +0.142 HD
ENDBRANCH   8  11
BRANCH   6  14
ATOM     14  C   UNL     1      29.866 -23.016 -16.521  0.00  0.00    +0.121 C 
BRANCH  14  16
ATOM     15  O   UNL     1      27.150 -23.089 -17.464  0.00  0.00    -0.275 OA
ATOM     16  N   UNL     1      28.706 -22.391 -15.887  0.00  0.00    -0.274 N 
ATOM     17  C   UNL     1      28.985 -21.665 -14.656  0.00  0.00    +0.115 C 
ATOM     18  C   UNL     1      27.423 -22.483 -16.424  0.00  0.00    +0.226 C 
ATOM     19  C   UNL     1      26.318 -21.789 -15.666  0.00  0.00    +0.095 C 
ENDBRANCH  14  16
ENDBRANCH   6  14
ENDBRANCH   3   5
BRANCH   2  20
ATOM     20  C   UNL     1      34.305 -22.576 -17.324  0.00  0.00    +0.135 C 
BRANCH  20  22
ATOM     21  N   UNL     1      33.656 -20.997 -19.143  0.00  0.00    -0.287 N 
ATOM     22  C   UNL     1      34.624 -21.582 -18.371  0.00  0.00    +0.049 C 
ATOM     23  C   UNL     1      34.228 -20.116 -20.034  0.00  0.00    +0.051 C 
ATOM     24  C   UNL     1      35.607 -20.147 -19.815  0.00  0.00    +0.015 C 
ATOM     25  C   UNL     1      35.842 -21.077 -18.763  0.00  0.00    +0.013 C 
ATOM     26  C   UNL     1      32.237 -21.262 -19.036  0.00  0.00    +0.117 C 
ATOM     27  C   UNL     1      33.636 -19.303 -21.006  0.00  0.00    +0.015 C 
ATOM     28  C   UNL     1      36.438 -19.328 -20.604  0.00  0.00    +0.001 C 
ATOM     29  C   UNL     1      34.479 -18.499 -21.778  0.00  0.00    +0.001 C 
ATOM     30  C   UNL     1      35.859 -18.509 -21.582  0.00  0.00    +0.000 C 
ENDBRANCH  20  22
ENDBRANCH   2  20
TORSDOF 6
ENDMDL
MODEL 5
REMARK VINA RESULT:     -11.6      3.793      8.934
REMARK  Name = 447018
REMARK  6 active torsions:
REMARK  status: ('A' for Active; 'I' for Inactive)
REMARK    1  A    between atoms: N_2  and  C_20
REMARK    2  A    between atoms: C_3  and  C_5
REMARK    3  A    between atoms: C_6  and  C_14
REMARK    4  A    between atoms: C_8  and  N_11
REMARK    5  A    between atoms: C_14  and  N_16
REMARK    6  A    between atoms: C_20  and  C_22
REMARK                            x       y       z     vdW  Elec       q    Type
REMARK                         _______ _______ _______ _____ _____    ______ ____
ROOT
ATOM      1  O   UNL     1      31.656 -22.906 -13.666  0.00  0.00    -0.270 OA
ATOM      2  N   UNL     1      32.689 -22.986 -15.753  0.00  0.00    -0.269 N 
ATOM      3  C   UNL     1      32.663 -23.036 -14.360  0.00  0.00    +0.249 C 
ATOM      4  C   UNL     1      31.459 -22.765 -16.494  0.00  0.00    +0.116 C 
ENDROOT
BRANCH   3   5
ATOM      5  C   UNL     1      33.923 -23.279 -13.640  0.00  0.00    +0.053 C 
ATOM      6  C   UNL     1      36.315 -23.489 -13.655  0.00  0.00    +0.011 C 
ATOM      7  C   UNL     1      35.121 -23.258 -14.338  0.00  0.00    +0.003 C 
ATOM      8  C   UNL     1      36.296 -23.738 -12.283  0.00  0.00    +0.039 C 
ATOM      9  C   UNL     1      33.890 -23.525 -12.276  0.00  0.00    +0.006 C 
ATOM     10  C   UNL     1      35.084 -23.755 -11.593  0.00  0.00    +0.014 C 
BRANCH   8  11
ATOM     11  N   UNL     1      37.496 -23.973 -11.575  0.00  0.00    -0.357 N 
ATOM     12  H   UNL     1      38.215 -23.301 -11.588  0.00  0.00    +0.142 HD
ATOM     13  H   UNL     1      37.612 -24.810 -11.069  0.00  0.00    +0.142 HD
ENDBRANCH   8  11
BRANCH   6  14
ATOM     14  C   UNL     1      37.599 -23.463 -14.419  0.00  0.00    +0.121 C 
BRANCH  14  16
ATOM     15  O   UNL     1      40.412 -23.940 -14.059  0.00  0.00    -0.275 OA
ATOM     16  N   UNL     1      38.270 -24.762 -14.418  0.00  0.00    -0.274 N 
ATOM     17  C   UNL     1      37.400 -25.912 -14.623  0.00  0.00    +0.115 C 
ATOM     18  C   UNL     1      39.646 -24.891 -14.235  0.00  0.00    +0.226 C 
ATOM     19  C   UNL     1      40.205 -26.292 -14.257  0.00  0.00    +0.095 C 
ENDBRANCH  14  16
ENDBRANCH   6  14
ENDBRANCH   3   5
BRANCH   2  20
ATOM     20  C   UNL     1      33.899 -23.141 -16.573  0.00  0.00    +0.135 C 
BRANCH  20  22
ATOM     21  N   UNL     1      35.101 -21.567 -18.089  0.00  0.00    -0.287 N 
ATOM     22  C   UNL     1      33.947 -22.199 -17.711  0.00  0.00    +0.049 C 
ATOM     23  C   UNL     1      34.862 -20.749 -19.170  0.00  0.00    +0.051 C 
ATOM     24  C   UNL     1      33.508 -20.870 -19.486  0.00  0.00    +0.015 C 
ATOM     25  C   UNL     1      32.943 -21.789 -18.557  0.00  0.00    +0.013 C 
ATOM     26  C   UNL     1      36.388 -21.736 -17.446  0.00  0.00    +0.117 C 
ATOM     27  C   UNL     1      35.733 -19.920 -19.886  0.00  0.00    +0.015 C 
ATOM     28  C   UNL     1      32.994 -20.129 -20.568  0.00  0.00    +0.001 C 
ATOM     29  C   UNL     1      35.202 -19.193 -20.955  0.00  0.00    +0.001 C 
ATOM     30  C   UNL     1      33.854 -19.295 -21.293  0.00  0.00    +0.000 C 
ENDBRANCH  20  22
ENDBRANCH   2  20
TORSDOF 6
ENDMDL
MODEL 6
REMARK VINA RESULT:     -11.3      4.429      7.537
REMARK  Name = 447018
REMARK  6 active torsions:
REMARK  status: ('A' for Active; 'I' for Inactive)
REMARK    1  A    between atoms: N_2  and  C_20
REMARK    2  A    between atoms: C_3  and  C_5
REMARK    3  A    between atoms: C_6  and  C_14
REMARK    4  A    between atoms: C_8  and  N_11
REMARK    5  A    between atoms: C_14  and  N_16
REMARK    6  A    between atoms: C_20  and  C_22
REMARK                            x       y       z     vdW  Elec       q    Type
REMARK                         _______ _______ _______ _____ _____    ______ ____
ROOT
ATOM      1  O   UNL     1      33.703 -22.692 -18.301  0.00  0.00    -0.270 OA
ATOM      2  N   UNL     1      35.315 -21.722 -16.924  0.00  0.00    -0.269 N 
ATOM      3  C   UNL     1      34.168 -22.471 -17.183  0.00  0.00    +0.249 C 
ATOM      4  C   UNL     1      36.059 -21.132 -18.024  0.00  0.00    +0.116 C 
ENDROOT
BRANCH   3   5
ATOM      5  C   UNL     1      33.447 -23.070 -16.049  0.00  0.00    +0.053 C 
ATOM      6  C   UNL     1      31.503 -23.167 -14.643  0.00  0.00    +0.011 C 
ATOM      7  C   UNL     1      32.186 -22.599 -15.719  0.00  0.00    +0.003 C 
ATOM      8  C   UNL     1      32.090 -24.198 -13.911  0.00  0.00    +0.039 C 
ATOM      9  C   UNL     1      34.042 -24.096 -15.331  0.00  0.00    +0.006 C 
ATOM     10  C   UNL     1      33.360 -24.663 -14.255  0.00  0.00    +0.014 C 
BRANCH   8  11
ATOM     11  N   UNL     1      31.413 -24.786 -12.819  0.00  0.00    -0.357 N 
ATOM     12  H   UNL     1      30.720 -24.277 -12.340  0.00  0.00    +0.142 HD
ATOM     13  H   UNL     1      31.636 -25.702 -12.537  0.00  0.00    +0.142 HD
ENDBRANCH   8  11
BRANCH   6  14
ATOM     14  C   UNL     1      30.144 -22.649 -14.298  0.00  0.00    +0.121 C 
BRANCH  14  16
ATOM     15  O   UNL     1      28.885 -21.582 -16.653  0.00  0.00    -0.275 OA
ATOM     16  N   UNL     1      29.091 -23.286 -15.088  0.00  0.00    -0.274 N 
ATOM     17  C   UNL     1      28.658 -24.591 -14.609  0.00  0.00    +0.115 C 
ATOM     18  C   UNL     1      28.542 -22.686 -16.220  0.00  0.00    +0.226 C 
ATOM     19  C   UNL     1      27.462 -23.455 -16.939  0.00  0.00    +0.095 C 
ENDBRANCH  14  16
ENDBRANCH   6  14
ENDBRANCH   3   5
BRANCH   2  20
ATOM     20  C   UNL     1      35.861 -21.464 -15.585  0.00  0.00    +0.135 C 
BRANCH  20  22
ATOM     21  N   UNL     1      36.838 -23.041 -13.919  0.00  0.00    -0.287 N 
ATOM     22  C   UNL     1      36.855 -22.472 -15.164  0.00  0.00    +0.049 C 
ATOM     23  C   UNL     1      37.873 -23.941 -13.794  0.00  0.00    +0.051 C 
ATOM     24  C   UNL     1      38.567 -23.940 -15.005  0.00  0.00    +0.015 C 
ATOM     25  C   UNL     1      37.914 -23.008 -15.861  0.00  0.00    +0.013 C 
ATOM     26  C   UNL     1      35.871 -22.743 -12.883  0.00  0.00    +0.117 C 
ATOM     27  C   UNL     1      38.243 -24.749 -12.713  0.00  0.00    +0.015 C 
ATOM     28  C   UNL     1      39.686 -24.784 -15.147  0.00  0.00    +0.001 C 
ATOM     29  C   UNL     1      39.356 -25.577 -12.875  0.00  0.00    +0.001 C 
ATOM     30  C   UNL     1      40.068 -25.597 -14.073  0.00  0.00    +0.000 C 
ENDBRANCH  20  22
ENDBRANCH   2  20
TORSDOF 6
ENDMDL
MODEL 7
REMARK VINA RESULT:     -11.2      9.321     13.569
REMARK  Name = 447018
REMARK  6 active torsions:
REMARK  status: ('A' for Active; 'I' for Inactive)
REMARK    1  A    between atoms: N_2  and  C_20
REMARK    2  A    between atoms: C_3  and  C_5
REMARK    3  A    between atoms: C_6  and  C_14
REMARK    4  A    between atoms: C_8  and  N_11
REMARK    5  A    between atoms: C_14  and  N_16
REMARK    6  A    between atoms: C_20  and  C_22
REMARK                            x       y       z     vdW  Elec       q    Type
REMARK                         _______ _______ _______ _____ _____    ______ ____
ROOT
ATOM      1  O   UNL     1      32.255  -6.269 -18.984  0.00  0.00    -0.270 OA
ATOM      2  N   UNL     1      31.479  -8.280 -19.870  0.00  0.00    -0.269 N 
ATOM      3  C   UNL     1      31.712  -6.905 -19.886  0.00  0.00    +0.249 C 
ATOM      4  C   UNL     1      31.890  -9.072 -18.724  0.00  0.00    +0.116 C 
ENDROOT
BRANCH   3   5
ATOM      5  C   UNL     1      31.300  -6.135 -21.069  0.00  0.00    +0.053 C 
ATOM      6  C   UNL     1      31.354  -5.792 -23.445  0.00  0.00    +0.011 C 
ATOM      7  C   UNL     1      31.744  -6.523 -22.324  0.00  0.00    +0.003 C 
ATOM      8  C   UNL     1      30.523  -4.681 -23.299  0.00  0.00    +0.039 C 
ATOM      9  C   UNL     1      30.473  -5.033 -20.909  0.00  0.00    +0.006 C 
ATOM     10  C   UNL     1      30.082  -4.302 -22.031  0.00  0.00    +0.014 C 
BRANCH   8  11
ATOM     11  N   UNL     1      30.117  -3.929 -24.424  0.00  0.00    -0.357 N 
ATOM     12  H   UNL     1      29.349  -3.318 -24.355  0.00  0.00    +0.142 HD
ATOM     13  H   UNL     1      30.604  -4.016 -25.276  0.00  0.00    +0.142 HD
ENDBRANCH   8  11
BRANCH   6  14
ATOM     14  C   UNL     1      31.841  -6.221 -24.791  0.00  0.00    +0.121 C 
BRANCH  14  16
ATOM     15  O   UNL     1      32.633  -3.736 -26.003  0.00  0.00    -0.275 OA
ATOM     16  N   UNL     1      33.209  -5.776 -25.054  0.00  0.00    -0.274 N 
ATOM     17  C   UNL     1      34.254  -6.707 -24.651  0.00  0.00    +0.115 C 
ATOM     18  C   UNL     1      33.492  -4.548 -25.649  0.00  0.00    +0.226 C 
ATOM     19  C   UNL     1      34.949  -4.217 -25.861  0.00  0.00    +0.095 C 
ENDBRANCH  14  16
ENDBRANCH   6  14
ENDBRANCH   3   5
BRANCH   2  20
ATOM     20  C   UNL     1      30.827  -9.031 -20.953  0.00  0.00    +0.135 C 
BRANCH  20  22
ATOM     21  N   UNL     1      32.096 -10.595 -22.423  0.00  0.00    -0.287 N 
ATOM     22  C   UNL     1      31.482 -10.326 -21.230  0.00  0.00    +0.049 C 
ATOM     23  C   UNL     1      32.618 -11.869 -22.412  0.00  0.00    +0.051 C 
ATOM     24  C   UNL     1      32.323 -12.423 -21.166  0.00  0.00    +0.015 C 
ATOM     25  C   UNL     1      31.606 -11.438 -20.429  0.00  0.00    +0.013 C 
ATOM     26  C   UNL     1      32.186  -9.673 -23.537  0.00  0.00    +0.117 C 
ATOM     27  C   UNL     1      33.322 -12.566 -23.401  0.00  0.00    +0.015 C 
ATOM     28  C   UNL     1      32.750 -13.737 -20.888  0.00  0.00    +0.001 C 
ATOM     29  C   UNL     1      33.736 -13.867 -23.105  0.00  0.00    +0.001 C 
ATOM     30  C   UNL     1      33.456 -14.446 -21.868  0.00  0.00    +0.000 C 
ENDBRANCH  20  22
ENDBRANCH   2  20
TORSDOF 6
ENDMDL
MODEL 8
REMARK VINA RESULT:     -11.2      2.314      9.225
REMARK  Name = 447018
REMARK  6 active torsions:
REMARK  status: ('A' for Active; 'I' for Inactive)
REMARK    1  A    between atoms: N_2  and  C_20
REMARK    2  A    between atoms: C_3  and  C_5
REMARK    3  A    between atoms: C_6  and  C_14
REMARK    4  A    between atoms: C_8  and  N_11
REMARK    5  A    between atoms: C_14  and  N_16
REMARK    6  A    between atoms: C_20  and  C_22
REMARK                            x       y       z     vdW  Elec       q    Type
REMARK                         _______ _______ _______ _____ _____    ______ ____
ROOT
ATOM      1  O   UNL     1      32.079 -21.645 -18.436  0.00  0.00    -0.270 OA
ATOM      2  N   UNL     1      33.340 -20.454 -19.993  0.00  0.00    -0.269 N 
ATOM      3  C   UNL     1      33.157 -21.201 -18.830  0.00  0.00    +0.249 C 
ATOM      4  C   UNL     1      32.204 -20.145 -20.843  0.00  0.00    +0.116 C 
ENDROOT
BRANCH   3   5
ATOM      5  C   UNL     1      34.331 -21.511 -18.000  0.00  0.00    +0.053 C 
ATOM      6  C   UNL     1      35.261 -22.342 -15.948  0.00  0.00    +0.011 C 
ATOM      7  C   UNL     1      34.148 -22.048 -16.735  0.00  0.00    +0.003 C 
ATOM      8  C   UNL     1      36.544 -22.095 -16.435  0.00  0.00    +0.039 C 
ATOM      9  C   UNL     1      35.601 -21.261 -18.497  0.00  0.00    +0.006 C 
ATOM     10  C   UNL     1      36.714 -21.554 -17.710  0.00  0.00    +0.014 C 
BRANCH   8  11
ATOM     11  N   UNL     1      37.684 -22.386 -15.653  0.00  0.00    -0.357 N 
ATOM     12  H   UNL     1      37.615 -23.019 -14.902  0.00  0.00    +0.142 HD
ATOM     13  H   UNL     1      38.545 -21.956 -15.858  0.00  0.00    +0.142 HD
ENDBRANCH   8  11
BRANCH   6  14
ATOM     14  C   UNL     1      35.050 -22.921 -14.586  0.00  0.00    +0.121 C 
BRANCH  14  16
ATOM     15  O   UNL     1      37.215 -23.688 -12.855  0.00  0.00    -0.275 OA
ATOM     16  N   UNL     1      35.631 -24.256 -14.456  0.00  0.00    -0.274 N 
ATOM     17  C   UNL     1      35.032 -25.280 -15.301  0.00  0.00    +0.115 C 
ATOM     18  C   UNL     1      36.684 -24.530 -13.585  0.00  0.00    +0.226 C 
ATOM     19  C   UNL     1      37.185 -25.953 -13.552  0.00  0.00    +0.095 C 
ENDBRANCH  14  16
ENDBRANCH   6  14
ENDBRANCH   3   5
BRANCH   2  20
ATOM     20  C   UNL     1      34.633 -19.927 -20.454  0.00  0.00    +0.135 C 
BRANCH  20  22
ATOM     21  N   UNL     1      34.418 -18.518 -22.499  0.00  0.00    -0.287 N 
ATOM     22  C   UNL     1      34.511 -18.623 -21.138  0.00  0.00    +0.049 C 
ATOM     23  C   UNL     1      34.317 -17.194 -22.867  0.00  0.00    +0.051 C 
ATOM     24  C   UNL     1      34.347 -16.438 -21.694  0.00  0.00    +0.015 C 
ATOM     25  C   UNL     1      34.470 -17.353 -20.610  0.00  0.00    +0.013 C 
ATOM     26  C   UNL     1      34.421 -19.635 -23.421  0.00  0.00    +0.117 C 
ATOM     27  C   UNL     1      34.202 -16.615 -24.136  0.00  0.00    +0.015 C 
ATOM     28  C   UNL     1      34.260 -15.035 -21.788  0.00  0.00    +0.001 C 
ATOM     29  C   UNL     1      34.117 -15.222 -24.206  0.00  0.00    +0.001 C 
ATOM     30  C   UNL     1      34.144 -14.442 -23.051  0.00  0.00    +0.000 C 
ENDBRANCH  20  22
ENDBRANCH   2  20
TORSDOF 6
ENDMDL
MODEL 9
REMARK VINA RESULT:     -11.1      4.872      7.806
REMARK  Name = 447018
REMARK  6 active torsions:
REMARK  status: ('A' for Active; 'I' for Inactive)
REMARK    1  A    between atoms: N_2  and  C_20
REMARK    2  A    between atoms: C_3  and  C_5
REMARK    3  A    between atoms: C_6  and  C_14
REMARK    4  A    between atoms: C_8  and  N_11
REMARK    5  A    between atoms: C_14  and  N_16
REMARK    6  A    between atoms: C_20  and  C_22
REMARK                            x       y       z     vdW  Elec       q    Type
REMARK                         _______ _______ _______ _____ _____    ______ ____
ROOT
ATOM      1  O   UNL     1      32.762 -22.823 -17.843  0.00  0.00    -0.270 OA
ATOM      2  N   UNL     1      34.435 -22.231 -16.333  0.00  0.00    -0.269 N 
ATOM      3  C   UNL     1      33.190 -22.746 -16.692  0.00  0.00    +0.249 C 
ATOM      4  C   UNL     1      35.337 -21.731 -17.357  0.00  0.00    +0.116 C 
ENDROOT
BRANCH   3   5
ATOM      5  C   UNL     1      32.309 -23.260 -15.633  0.00  0.00    +0.053 C 
ATOM      6  C   UNL     1      30.128 -23.947 -14.899  0.00  0.00    +0.011 C 
ATOM      7  C   UNL     1      30.964 -23.460 -15.904  0.00  0.00    +0.003 C 
ATOM      8  C   UNL     1      30.647 -24.228 -13.636  0.00  0.00    +0.039 C 
ATOM      9  C   UNL     1      32.838 -23.536 -14.382  0.00  0.00    +0.006 C 
ATOM     10  C   UNL     1      32.003 -24.023 -13.377  0.00  0.00    +0.014 C 
BRANCH   8  11
ATOM     11  N   UNL     1      29.816 -24.722 -12.606  0.00  0.00    -0.357 N 
ATOM     12  H   UNL     1      30.216 -25.118 -11.798  0.00  0.00    +0.142 HD
ATOM     13  H   UNL     1      28.837 -24.670 -12.696  0.00  0.00    +0.142 HD
ENDBRANCH   8  11
BRANCH   6  14
ATOM     14  C   UNL     1      28.681 -24.158 -15.204  0.00  0.00    +0.121 C 
BRANCH  14  16
ATOM     15  O   UNL     1      26.942 -23.699 -17.450  0.00  0.00    -0.275 OA
ATOM     16  N   UNL     1      27.997 -22.908 -15.538  0.00  0.00    -0.274 N 
ATOM     17  C   UNL     1      28.241 -21.803 -14.622  0.00  0.00    +0.115 C 
ATOM     18  C   UNL     1      27.171 -22.784 -16.653  0.00  0.00    +0.226 C 
ATOM     19  C   UNL     1      26.529 -21.437 -16.876  0.00  0.00    +0.095 C 
ENDBRANCH  14  16
ENDBRANCH   6  14
ENDBRANCH   3   5
BRANCH   2  20
ATOM     20  C   UNL     1      34.938 -22.142 -14.955  0.00  0.00    +0.135 C 
BRANCH  20  22
ATOM     21  N   UNL     1      36.366 -23.697 -13.627  0.00  0.00    -0.287 N 
ATOM     22  C   UNL     1      36.172 -22.925 -14.741  0.00  0.00    +0.049 C 
ATOM     23  C   UNL     1      37.596 -24.313 -13.683  0.00  0.00    +0.051 C 
ATOM     24  C   UNL     1      38.200 -23.917 -14.877  0.00  0.00    +0.015 C 
ATOM     25  C   UNL     1      37.290 -23.041 -15.535  0.00  0.00    +0.013 C 
ATOM     26  C   UNL     1      35.414 -23.846 -12.545  0.00  0.00    +0.117 C 
ATOM     27  C   UNL     1      38.213 -25.183 -12.778  0.00  0.00    +0.015 C 
ATOM     28  C   UNL     1      39.483 -24.410 -15.186  0.00  0.00    +0.001 C 
ATOM     29  C   UNL     1      39.486 -25.660 -13.103  0.00  0.00    +0.001 C 
ATOM     30  C   UNL     1      40.113 -25.281 -14.289  0.00  0.00    +0.000 C 
ENDBRANCH  20  22
ENDBRANCH   2  20
TORSDOF 6
ENDMDL
