MODEL 1
REMARK VINA RESULT:     -11.1      0.000      0.000
REMARK  Name = 2750
REMARK  5 active torsions:
REMARK  status: ('A' for Active; 'I' for Inactive)
REMARK    1  A    between atoms: C_1  and  O_7
REMARK    2  A    between atoms: C_4  and  C_16
REMARK    3  A    between atoms: O_7  and  C_8
REMARK    4  A    between atoms: C_8  and  C_9
REMARK    5  A    between atoms: C_16  and  C_21
REMARK                            x       y       z     vdW  Elec       q    Type
REMARK                         _______ _______ _______ _____ _____    ______ ____
ROOT
ATOM      1  C   UNL     1      33.591 -21.824 -18.339  0.00  0.00    +0.139 C 
ATOM      2  C   UNL     1      34.973 -21.657 -18.496  0.00  0.00    +0.037 C 
ATOM      3  C   UNL     1      32.718 -21.120 -19.178  0.00  0.00    +0.037 C 
ATOM      4  C   UNL     1      34.596 -20.104 -20.307  0.00  0.00    -0.021 C 
ATOM      5  C   UNL     1      35.473 -20.801 -19.476  0.00  0.00    -0.001 C 
ATOM      6  C   UNL     1      33.218 -20.264 -20.158  0.00  0.00    -0.001 C 
ENDROOT
BRANCH   1   7
ATOM      7  O   UNL     1      33.108 -22.653 -17.389  0.00  0.00    -0.475 OA
BRANCH   7   8
ATOM      8  C   UNL     1      31.846 -22.377 -16.820  0.00  0.00    +0.205 C 
BRANCH   8   9
ATOM      9  C   UNL     1      31.782 -23.075 -15.448  0.00  0.00    +0.040 C 
ATOM     10  C   UNL     1      31.422 -22.030 -14.369  0.00  0.00    +0.004 C 
ATOM     11  C   UNL     1      30.697 -24.176 -15.496  0.00  0.00    +0.004 C 
ATOM     12  C   UNL     1      31.116 -22.646 -13.004  0.00  0.00    +0.000 C 
ATOM     13  C   UNL     1      30.392 -24.789 -14.129  0.00  0.00    +0.000 C 
ATOM     14  C   UNL     1      30.039 -23.721 -13.099  0.00  0.00    +0.000 C 
ATOM     15  C   UNL     1      33.166 -23.692 -15.165  0.00  0.00    +0.004 C 
ENDBRANCH   8   9
ENDBRANCH   7   8
ENDBRANCH   1   7
BRANCH   4  16
ATOM     16  C   UNL     1      35.131 -19.188 -21.356  0.00  0.00    +0.047 C 
BRANCH  16  21
ATOM     17  S   UNL     1      33.864 -18.256 -23.625  0.00  0.00    -0.048 S 
ATOM     18  O   UNL     1      34.831 -16.350 -20.411  0.00  0.00    -0.274 OA
ATOM     19  O   UNL     1      34.235 -16.034 -24.980  0.00  0.00    -0.263 OA
ATOM     20  N   UNL     1      34.572 -15.991 -22.681  0.00  0.00    -0.246 N 
ATOM     21  C   UNL     1      34.094 -18.169 -21.822  0.00  0.00    +0.137 C 
ATOM     22  C   UNL     1      34.541 -16.754 -21.532  0.00  0.00    +0.239 C 
ATOM     23  C   UNL     1      34.252 -16.569 -23.882  0.00  0.00    +0.279 C 
ATOM     24  H   UNL     1      34.822 -15.040 -22.638  0.00  0.00    +0.158 HD
ENDBRANCH  16  21
ENDBRANCH   4  16
TORSDOF 5
ENDMDL
MODEL 2
REMARK VINA RESULT:     -11.1      3.798      9.146
REMARK  Name = 2750
REMARK  5 active torsions:
REMARK  status: ('A' for Active; 'I' for Inactive)
REMARK    1  A    between atoms: C_1  and  O_7
REMARK    2  A    between atoms: C_4  and  C_16
REMARK    3  A    between atoms: O_7  and  C_8
REMARK    4  A    between atoms: C_8  and  C_9
REMARK    5  A    between atoms: C_16  and  C_21
REMARK                            x       y       z     vdW  Elec       q    Type
REMARK                         _______ _______ _______ _____ _____    ______ ____
ROOT
ATOM      1  C   UNL     1      34.331 -20.490 -19.669  0.00  0.00    +0.139 C 
ATOM      2  C   UNL     1      32.934 -20.590 -19.644  0.00  0.00    +0.037 C 
ATOM      3  C   UNL     1      35.087 -21.264 -18.779  0.00  0.00    +0.037 C 
ATOM      4  C   UNL     1      33.066 -22.217 -17.863  0.00  0.00    -0.021 C 
ATOM      5  C   UNL     1      32.305 -21.450 -18.745  0.00  0.00    -0.001 C 
ATOM      6  C   UNL     1      34.458 -22.124 -17.880  0.00  0.00    -0.001 C 
ENDROOT
BRANCH   1   7
ATOM      7  O   UNL     1      34.940 -19.657 -20.538  0.00  0.00    -0.475 OA
BRANCH   7   8
ATOM      8  C   UNL     1      34.254 -19.270 -21.709  0.00  0.00    +0.205 C 
BRANCH   8   9
ATOM      9  C   UNL     1      34.739 -17.861 -22.101  0.00  0.00    +0.040 C 
ATOM     10  C   UNL     1      34.197 -17.516 -23.506  0.00  0.00    +0.004 C 
ATOM     11  C   UNL     1      34.208 -16.842 -21.068  0.00  0.00    +0.004 C 
ATOM     12  C   UNL     1      34.432 -16.060 -23.907  0.00  0.00    +0.000 C 
ATOM     13  C   UNL     1      34.443 -15.386 -21.473  0.00  0.00    +0.000 C 
ATOM     14  C   UNL     1      33.888 -15.093 -22.862  0.00  0.00    +0.000 C 
ATOM     15  C   UNL     1      36.281 -17.875 -22.103  0.00  0.00    +0.004 C 
ENDBRANCH   8   9
ENDBRANCH   7   8
ENDBRANCH   1   7
BRANCH   4  16
ATOM     16  C   UNL     1      32.392 -23.138 -16.902  0.00  0.00    +0.047 C 
BRANCH  16  21
ATOM     17  S   UNL     1      32.236 -23.084 -14.146  0.00  0.00    -0.048 S 
ATOM     18  O   UNL     1      29.542 -22.191 -16.762  0.00  0.00    -0.274 OA
ATOM     19  O   UNL     1      30.319 -23.900 -12.542  0.00  0.00    -0.263 OA
ATOM     20  N   UNL     1      29.727 -23.057 -14.625  0.00  0.00    -0.246 N 
ATOM     21  C   UNL     1      31.727 -22.389 -15.749  0.00  0.00    +0.137 C 
ATOM     22  C   UNL     1      30.222 -22.523 -15.798  0.00  0.00    +0.239 C 
ATOM     23  C   UNL     1      30.597 -23.416 -13.630  0.00  0.00    +0.279 C 
ATOM     24  H   UNL     1      28.757 -23.178 -14.506  0.00  0.00    +0.158 HD
ENDBRANCH  16  21
ENDBRANCH   4  16
TORSDOF 5
ENDMDL
MODEL 3
REMARK VINA RESULT:     -11.0      5.004      9.434
REMARK  Name = 2750
REMARK  5 active torsions:
REMARK  status: ('A' for Active; 'I' for Inactive)
REMARK    1  A    between atoms: C_1  and  O_7
REMARK    2  A    between atoms: C_4  and  C_16
REMARK    3  A    between atoms: O_7  and  C_8
REMARK    4  A    between atoms: C_8  and  C_9
REMARK    5  A    between atoms: C_16  and  C_21
REMARK                            x       y       z     vdW  Elec       q    Type
REMARK                         _______ _______ _______ _____ _____    ______ ____
ROOT
ATOM      1  C   UNL     1      34.978 -21.387 -18.580  0.00  0.00    +0.139 C 
ATOM      2  C   UNL     1      36.242 -21.011 -18.108  0.00  0.00    +0.037 C 
ATOM      3  C   UNL     1      34.130 -22.126 -17.745  0.00  0.00    +0.037 C 
ATOM      4  C   UNL     1      35.799 -22.103 -15.999  0.00  0.00    -0.021 C 
ATOM      5  C   UNL     1      36.650 -21.367 -16.823  0.00  0.00    -0.001 C 
ATOM      6  C   UNL     1      34.538 -22.483 -16.461  0.00  0.00    -0.001 C 
ENDROOT
BRANCH   1   7
ATOM      7  O   UNL     1      34.583 -21.043 -19.823  0.00  0.00    -0.475 OA
BRANCH   7   8
ATOM      8  C   UNL     1      35.436 -20.243 -20.614  0.00  0.00    +0.205 C 
BRANCH   8   9
ATOM      9  C   UNL     1      34.587 -19.120 -21.241  0.00  0.00    +0.040 C 
ATOM     10  C   UNL     1      35.199 -17.754 -20.856  0.00  0.00    +0.004 C 
ATOM     11  C   UNL     1      34.592 -19.285 -22.778  0.00  0.00    +0.004 C 
ATOM     12  C   UNL     1      34.570 -16.576 -21.600  0.00  0.00    +0.000 C 
ATOM     13  C   UNL     1      33.964 -18.104 -23.518  0.00  0.00    +0.000 C 
ATOM     14  C   UNL     1      34.602 -16.781 -23.110  0.00  0.00    +0.000 C 
ATOM     15  C   UNL     1      33.153 -19.246 -20.688  0.00  0.00    +0.004 C 
ENDBRANCH   8   9
ENDBRANCH   7   8
ENDBRANCH   1   7
BRANCH   4  16
ATOM     16  C   UNL     1      36.236 -22.483 -14.625  0.00  0.00    +0.047 C 
BRANCH  16  21
ATOM     17  S   UNL     1      35.528 -24.710 -13.155  0.00  0.00    -0.048 S 
ATOM     18  O   UNL     1      38.909 -23.846 -14.804  0.00  0.00    -0.274 OA
ATOM     19  O   UNL     1      36.844 -25.983 -11.267  0.00  0.00    -0.263 OA
ATOM     20  N   UNL     1      38.061 -24.980 -12.975  0.00  0.00    -0.246 N 
ATOM     21  C   UNL     1      36.515 -23.979 -14.497  0.00  0.00    +0.137 C 
ATOM     22  C   UNL     1      37.960 -24.242 -14.136  0.00  0.00    +0.239 C 
ATOM     23  C   UNL     1      36.921 -25.337 -12.302  0.00  0.00    +0.279 C 
ATOM     24  H   UNL     1      38.945 -25.248 -12.632  0.00  0.00    +0.158 HD
ENDBRANCH  16  21
ENDBRANCH   4  16
TORSDOF 5
ENDMDL
MODEL 4
REMARK VINA RESULT:     -11.0      4.710      9.388
REMARK  Name = 2750
REMARK  5 active torsions:
REMARK  status: ('A' for Active; 'I' for Inactive)
REMARK    1  A    between atoms: C_1  and  O_7
REMARK    2  A    between atoms: C_4  and  C_16
REMARK    3  A    between atoms: O_7  and  C_8
REMARK    4  A    between atoms: C_8  and  C_9
REMARK    5  A    between atoms: C_16  and  C_21
REMARK                            x       y       z     vdW  Elec       q    Type
REMARK                         _______ _______ _______ _____ _____    ______ ____
ROOT
ATOM      1  C   UNL     1      35.009 -20.995 -19.141  0.00  0.00    +0.139 C 
ATOM      2  C   UNL     1      36.126 -20.976 -18.297  0.00  0.00    +0.037 C 
ATOM      3  C   UNL     1      33.853 -21.671 -18.730  0.00  0.00    +0.037 C 
ATOM      4  C   UNL     1      34.933 -22.293 -16.661  0.00  0.00    -0.021 C 
ATOM      5  C   UNL     1      36.088 -21.623 -17.062  0.00  0.00    -0.001 C 
ATOM      6  C   UNL     1      33.815 -22.317 -17.495  0.00  0.00    -0.001 C 
ENDROOT
BRANCH   1   7
ATOM      7  O   UNL     1      35.046 -20.370 -20.337  0.00  0.00    -0.475 OA
BRANCH   7   8
ATOM      8  C   UNL     1      34.039 -19.432 -20.649  0.00  0.00    +0.205 C 
BRANCH   8   9
ATOM      9  C   UNL     1      34.629 -18.416 -21.646  0.00  0.00    +0.040 C 
ATOM     10  C   UNL     1      33.956 -18.614 -23.023  0.00  0.00    +0.004 C 
ATOM     11  C   UNL     1      34.355 -16.986 -21.127  0.00  0.00    +0.004 C 
ATOM     12  C   UNL     1      34.303 -17.520 -24.032  0.00  0.00    +0.000 C 
ATOM     13  C   UNL     1      34.702 -15.894 -22.140  0.00  0.00    +0.000 C 
ATOM     14  C   UNL     1      34.012 -16.130 -23.479  0.00  0.00    +0.000 C 
ATOM     15  C   UNL     1      36.146 -18.674 -21.743  0.00  0.00    +0.004 C 
ENDBRANCH   8   9
ENDBRANCH   7   8
ENDBRANCH   1   7
BRANCH   4  16
ATOM     16  C   UNL     1      34.892 -22.984 -15.339  0.00  0.00    +0.047 C 
BRANCH  16  21
ATOM     17  S   UNL     1      35.862 -25.487 -14.695  0.00  0.00    -0.048 S 
ATOM     18  O   UNL     1      37.181 -22.013 -13.649  0.00  0.00    -0.274 OA
ATOM     19  O   UNL     1      36.712 -26.433 -12.394  0.00  0.00    -0.263 OA
ATOM     20  N   UNL     1      37.053 -24.180 -12.851  0.00  0.00    -0.246 N 
ATOM     21  C   UNL     1      36.189 -23.729 -15.033  0.00  0.00    +0.137 C 
ATOM     22  C   UNL     1      36.857 -23.187 -13.789  0.00  0.00    +0.239 C 
ATOM     23  C   UNL     1      36.617 -25.452 -13.116  0.00  0.00    +0.279 C 
ATOM     24  H   UNL     1      37.501 -23.976 -11.999  0.00  0.00    +0.158 HD
ENDBRANCH  16  21
ENDBRANCH   4  16
TORSDOF 5
ENDMDL
MODEL 5
REMARK VINA RESULT:     -10.9      1.422      2.820
REMARK  Name = 2750
REMARK  5 active torsions:
REMARK  status: ('A' for Active; 'I' for Inactive)
REMARK    1  A    between atoms: C_1  and  O_7
REMARK    2  A    between atoms: C_4  and  C_16
REMARK    3  A    between atoms: O_7  and  C_8
REMARK    4  A    between atoms: C_8  and  C_9
REMARK    5  A    between atoms: C_16  and  C_21
REMARK                            x       y       z     vdW  Elec       q    Type
REMARK                         _______ _______ _______ _____ _____    ______ ____
ROOT
ATOM      1  C   UNL     1      34.139 -21.903 -18.484  0.00  0.00    +0.139 C 
ATOM      2  C   UNL     1      33.204 -21.254 -19.299  0.00  0.00    +0.037 C 
ATOM      3  C   UNL     1      35.490 -21.540 -18.571  0.00  0.00    +0.037 C 
ATOM      4  C   UNL     1      34.958 -19.902 -20.265  0.00  0.00    -0.021 C 
ATOM      5  C   UNL     1      33.612 -20.258 -20.186  0.00  0.00    -0.001 C 
ATOM      6  C   UNL     1      35.897 -20.544 -19.457  0.00  0.00    -0.001 C 
ENDROOT
BRANCH   1   7
ATOM      7  O   UNL     1      33.745 -22.868 -17.626  0.00  0.00    -0.475 OA
BRANCH   7   8
ATOM      8  C   UNL     1      33.094 -22.495 -16.431  0.00  0.00    +0.205 C 
BRANCH   8   9
ATOM      9  C   UNL     1      33.907 -23.060 -15.251  0.00  0.00    +0.040 C 
ATOM     10  C   UNL     1      34.471 -24.443 -15.647  0.00  0.00    +0.004 C 
ATOM     11  C   UNL     1      35.068 -22.090 -14.932  0.00  0.00    +0.004 C 
ATOM     12  C   UNL     1      35.474 -25.001 -14.638  0.00  0.00    +0.000 C 
ATOM     13  C   UNL     1      36.070 -22.653 -13.923  0.00  0.00    +0.000 C 
ATOM     14  C   UNL     1      36.602 -24.014 -14.357  0.00  0.00    +0.000 C 
ATOM     15  C   UNL     1      32.960 -23.187 -14.042  0.00  0.00    +0.004 C 
ENDBRANCH   8   9
ENDBRANCH   7   8
ENDBRANCH   1   7
BRANCH   4  16
ATOM     16  C   UNL     1      35.393 -18.837 -21.213  0.00  0.00    +0.047 C 
BRANCH  16  21
ATOM     17  S   UNL     1      34.065 -18.236 -23.558  0.00  0.00    -0.048 S 
ATOM     18  O   UNL     1      34.600 -16.047 -20.424  0.00  0.00    -0.274 OA
ATOM     19  O   UNL     1      34.109 -16.049 -25.017  0.00  0.00    -0.263 OA
ATOM     20  N   UNL     1      34.359 -15.842 -22.715  0.00  0.00    -0.246 N 
ATOM     21  C   UNL     1      34.218 -18.027 -21.757  0.00  0.00    +0.137 C 
ATOM     22  C   UNL     1      34.417 -16.545 -21.529  0.00  0.00    +0.239 C 
ATOM     23  C   UNL     1      34.179 -16.522 -23.892  0.00  0.00    +0.279 C 
ATOM     24  H   UNL     1      34.448 -14.862 -22.716  0.00  0.00    +0.158 HD
ENDBRANCH  16  21
ENDBRANCH   4  16
TORSDOF 5
ENDMDL
MODEL 6
REMARK VINA RESULT:     -10.9      2.761      3.581
REMARK  Name = 2750
REMARK  5 active torsions:
REMARK  status: ('A' for Active; 'I' for Inactive)
REMARK    1  A    between atoms: C_1  and  O_7
REMARK    2  A    between atoms: C_4  and  C_16
REMARK    3  A    between atoms: O_7  and  C_8
REMARK    4  A    between atoms: C_8  and  C_9
REMARK    5  A    between atoms: C_16  and  C_21
REMARK                            x       y       z     vdW  Elec       q    Type
REMARK                         _______ _______ _______ _____ _____    ______ ____
ROOT
ATOM      1  C   UNL     1      34.528 -22.010 -17.834  0.00  0.00    +0.139 C 
ATOM      2  C   UNL     1      35.488 -21.311 -18.576  0.00  0.00    +0.037 C 
ATOM      3  C   UNL     1      33.174 -21.869 -18.165  0.00  0.00    +0.037 C 
ATOM      4  C   UNL     1      33.751 -20.353 -19.955  0.00  0.00    -0.021 C 
ATOM      5  C   UNL     1      35.101 -20.486 -19.632  0.00  0.00    -0.001 C 
ATOM      6  C   UNL     1      32.787 -21.044 -19.221  0.00  0.00    -0.001 C 
ENDROOT
BRANCH   1   7
ATOM      7  O   UNL     1      34.902 -22.808 -16.812  0.00  0.00    -0.475 OA
BRANCH   7   8
ATOM      8  C   UNL     1      35.100 -22.237 -15.537  0.00  0.00    +0.205 C 
BRANCH   8   9
ATOM      9  C   UNL     1      36.216 -23.029 -14.830  0.00  0.00    +0.040 C 
ATOM     10  C   UNL     1      36.271 -22.602 -13.345  0.00  0.00    +0.004 C 
ATOM     11  C   UNL     1      35.902 -24.539 -14.931  0.00  0.00    +0.004 C 
ATOM     12  C   UNL     1      37.193 -23.476 -12.496  0.00  0.00    +0.000 C 
ATOM     13  C   UNL     1      36.824 -25.411 -14.078  0.00  0.00    +0.000 C 
ATOM     14  C   UNL     1      36.843 -24.955 -12.624  0.00  0.00    +0.000 C 
ATOM     15  C   UNL     1      37.547 -22.705 -15.536  0.00  0.00    +0.004 C 
ENDBRANCH   8   9
ENDBRANCH   7   8
ENDBRANCH   1   7
BRANCH   4  16
ATOM     16  C   UNL     1      33.338 -19.471 -21.084  0.00  0.00    +0.047 C 
BRANCH  16  21
ATOM     17  S   UNL     1      34.738 -17.092 -21.049  0.00  0.00    -0.048 S 
ATOM     18  O   UNL     1      34.090 -19.500 -23.994  0.00  0.00    -0.274 OA
ATOM     19  O   UNL     1      34.729 -15.095 -22.760  0.00  0.00    -0.263 OA
ATOM     20  N   UNL     1      34.404 -17.247 -23.576  0.00  0.00    -0.246 N 
ATOM     21  C   UNL     1      34.525 -18.764 -21.734  0.00  0.00    +0.137 C 
ATOM     22  C   UNL     1      34.312 -18.576 -23.219  0.00  0.00    +0.239 C 
ATOM     23  C   UNL     1      34.626 -16.304 -22.607  0.00  0.00    +0.279 C 
ATOM     24  H   UNL     1      34.310 -16.979 -24.519  0.00  0.00    +0.158 HD
ENDBRANCH  16  21
ENDBRANCH   4  16
TORSDOF 5
ENDMDL
MODEL 7
REMARK VINA RESULT:     -10.8      3.982      9.206
REMARK  Name = 2750
REMARK  5 active torsions:
REMARK  status: ('A' for Active; 'I' for Inactive)
REMARK    1  A    between atoms: C_1  and  O_7
REMARK    2  A    between atoms: C_4  and  C_16
REMARK    3  A    between atoms: O_7  and  C_8
REMARK    4  A    between atoms: C_8  and  C_9
REMARK    5  A    between atoms: C_16  and  C_21
REMARK                            x       y       z     vdW  Elec       q    Type
REMARK                         _______ _______ _______ _____ _____    ______ ____
ROOT
ATOM      1  C   UNL     1      34.763 -20.589 -19.606  0.00  0.00    +0.139 C 
ATOM      2  C   UNL     1      35.683 -21.042 -18.653  0.00  0.00    +0.037 C 
ATOM      3  C   UNL     1      33.425 -20.992 -19.508  0.00  0.00    +0.037 C 
ATOM      4  C   UNL     1      33.938 -22.279 -17.530  0.00  0.00    -0.021 C 
ATOM      5  C   UNL     1      35.273 -21.883 -17.620  0.00  0.00    -0.001 C 
ATOM      6  C   UNL     1      33.014 -21.833 -18.475  0.00  0.00    -0.001 C 
ENDROOT
BRANCH   1   7
ATOM      7  O   UNL     1      35.160 -19.776 -20.607  0.00  0.00    -0.475 OA
BRANCH   7   8
ATOM      8  C   UNL     1      34.196 -19.286 -21.513  0.00  0.00    +0.205 C 
BRANCH   8   9
ATOM      9  C   UNL     1      34.689 -17.925 -22.042  0.00  0.00    +0.040 C 
ATOM     10  C   UNL     1      34.092 -17.686 -23.447  0.00  0.00    +0.004 C 
ATOM     11  C   UNL     1      34.223 -16.812 -21.076  0.00  0.00    +0.004 C 
ATOM     12  C   UNL     1      34.335 -16.274 -23.978  0.00  0.00    +0.000 C 
ATOM     13  C   UNL     1      34.467 -15.401 -21.611  0.00  0.00    +0.000 C 
ATOM     14  C   UNL     1      33.856 -15.211 -22.995  0.00  0.00    +0.000 C 
ATOM     15  C   UNL     1      36.228 -17.974 -22.109  0.00  0.00    +0.004 C 
ENDBRANCH   8   9
ENDBRANCH   7   8
ENDBRANCH   1   7
BRANCH   4  16
ATOM     16  C   UNL     1      33.499 -23.178 -16.424  0.00  0.00    +0.047 C 
BRANCH  16  21
ATOM     17  S   UNL     1      34.917 -23.287 -14.057  0.00  0.00    -0.048 S 
ATOM     18  O   UNL     1      31.234 -22.300 -14.655  0.00  0.00    -0.274 OA
ATOM     19  O   UNL     1      34.217 -24.233 -11.706  0.00  0.00    -0.263 OA
ATOM     20  N   UNL     1      32.572 -23.283 -13.044  0.00  0.00    -0.246 N 
ATOM     21  C   UNL     1      33.608 -22.511 -15.055  0.00  0.00    +0.137 C 
ATOM     22  C   UNL     1      32.333 -22.673 -14.259  0.00  0.00    +0.239 C 
ATOM     23  C   UNL     1      33.845 -23.682 -12.731  0.00  0.00    +0.279 C 
ATOM     24  H   UNL     1      31.834 -23.431 -12.410  0.00  0.00    +0.158 HD
ENDBRANCH  16  21
ENDBRANCH   4  16
TORSDOF 5
ENDMDL
MODEL 8
REMARK VINA RESULT:     -10.8      2.329      3.268
REMARK  Name = 2750
REMARK  5 active torsions:
REMARK  status: ('A' for Active; 'I' for Inactive)
REMARK    1  A    between atoms: C_1  and  O_7
REMARK    2  A    between atoms: C_4  and  C_16
REMARK    3  A    between atoms: O_7  and  C_8
REMARK    4  A    between atoms: C_8  and  C_9
REMARK    5  A    between atoms: C_16  and  C_21
REMARK                            x       y       z     vdW  Elec       q    Type
REMARK                         _______ _______ _______ _____ _____    ______ ____
ROOT
ATOM      1  C   UNL     1      34.562 -21.954 -17.657  0.00  0.00    +0.139 C 
ATOM      2  C   UNL     1      35.863 -21.482 -17.868  0.00  0.00    +0.037 C 
ATOM      3  C   UNL     1      33.559 -21.627 -18.578  0.00  0.00    +0.037 C 
ATOM      4  C   UNL     1      35.152 -20.375 -19.894  0.00  0.00    -0.021 C 
ATOM      5  C   UNL     1      36.157 -20.696 -18.982  0.00  0.00    -0.001 C 
ATOM      6  C   UNL     1      33.852 -20.841 -19.692  0.00  0.00    -0.001 C 
ENDROOT
BRANCH   1   7
ATOM      7  O   UNL     1      34.278 -22.714 -16.579  0.00  0.00    -0.475 OA
BRANCH   7   8
ATOM      8  C   UNL     1      34.652 -22.252 -15.299  0.00  0.00    +0.205 C 
BRANCH   8   9
ATOM      9  C   UNL     1      35.446 -23.373 -14.602  0.00  0.00    +0.040 C 
ATOM     10  C   UNL     1      36.934 -23.259 -15.005  0.00  0.00    +0.004 C 
ATOM     11  C   UNL     1      35.302 -23.214 -13.072  0.00  0.00    +0.004 C 
ATOM     12  C   UNL     1      37.852 -24.183 -14.205  0.00  0.00    +0.000 C 
ATOM     13  C   UNL     1      36.223 -24.138 -12.274  0.00  0.00    +0.000 C 
ATOM     14  C   UNL     1      37.679 -23.988 -12.703  0.00  0.00    +0.000 C 
ATOM     15  C   UNL     1      34.862 -24.723 -15.063  0.00  0.00    +0.004 C 
ENDBRANCH   8   9
ENDBRANCH   7   8
ENDBRANCH   1   7
BRANCH   4  16
ATOM     16  C   UNL     1      35.466 -19.535 -21.086  0.00  0.00    +0.047 C 
BRANCH  16  21
ATOM     17  S   UNL     1      33.887 -18.902 -23.260  0.00  0.00    -0.048 S 
ATOM     18  O   UNL     1      34.981 -16.673 -20.305  0.00  0.00    -0.274 OA
ATOM     19  O   UNL     1      33.894 -16.765 -24.793  0.00  0.00    -0.263 OA
ATOM     20  N   UNL     1      34.457 -16.514 -22.552  0.00  0.00    -0.246 N 
ATOM     21  C   UNL     1      34.290 -18.655 -21.503  0.00  0.00    +0.137 C 
ATOM     22  C   UNL     1      34.620 -17.187 -21.358  0.00  0.00    +0.239 C 
ATOM     23  C   UNL     1      34.077 -17.211 -23.670  0.00  0.00    +0.279 C 
ATOM     24  H   UNL     1      34.614 -15.544 -22.600  0.00  0.00    +0.158 HD
ENDBRANCH  16  21
ENDBRANCH   4  16
TORSDOF 5
ENDMDL
MODEL 9
REMARK VINA RESULT:     -10.8      6.842     12.308
REMARK  Name = 2750
REMARK  5 active torsions:
REMARK  status: ('A' for Active; 'I' for Inactive)
REMARK    1  A    between atoms: C_1  and  O_7
REMARK    2  A    between atoms: C_4  and  C_16
REMARK    3  A    between atoms: O_7  and  C_8
REMARK    4  A    between atoms: C_8  and  C_9
REMARK    5  A    between atoms: C_16  and  C_21
REMARK                            x       y       z     vdW  Elec       q    Type
REMARK                         _______ _______ _______ _____ _____    ______ ____
ROOT
ATOM      1  C   UNL     1      32.184 -10.935 -22.673  0.00  0.00    +0.139 C 
ATOM      2  C   UNL     1      33.286 -11.564 -23.264  0.00  0.00    +0.037 C 
ATOM      3  C   UNL     1      31.545 -11.552 -21.590  0.00  0.00    +0.037 C 
ATOM      4  C   UNL     1      33.100 -13.397 -21.701  0.00  0.00    -0.021 C 
ATOM      5  C   UNL     1      33.742 -12.790 -22.780  0.00  0.00    -0.001 C 
ATOM      6  C   UNL     1      32.000 -12.777 -21.106  0.00  0.00    -0.001 C 
ENDROOT
BRANCH   1   7
ATOM      7  O   UNL     1      31.742  -9.749 -23.141  0.00  0.00    -0.475 OA
BRANCH   7   8
ATOM      8  C   UNL     1      30.892  -8.967 -22.330  0.00  0.00    +0.205 C 
BRANCH   8   9
ATOM      9  C   UNL     1      31.648  -7.679 -21.952  0.00  0.00    +0.040 C 
ATOM     10  C   UNL     1      33.002  -7.655 -22.697  0.00  0.00    +0.004 C 
ATOM     11  C   UNL     1      30.798  -6.457 -22.368  0.00  0.00    +0.004 C 
ATOM     12  C   UNL     1      33.741  -6.324 -22.570  0.00  0.00    +0.000 C 
ATOM     13  C   UNL     1      31.541  -5.127 -22.241  0.00  0.00    +0.000 C 
ATOM     14  C   UNL     1      32.867  -5.150 -22.994  0.00  0.00    +0.000 C 
ATOM     15  C   UNL     1      31.869  -7.691 -20.427  0.00  0.00    +0.004 C 
ENDBRANCH   8   9
ENDBRANCH   7   8
ENDBRANCH   1   7
BRANCH   4  16
ATOM     16  C   UNL     1      33.588 -14.708 -21.184  0.00  0.00    +0.047 C 
BRANCH  16  21
ATOM     17  S   UNL     1      33.693 -15.561 -23.807  0.00  0.00    -0.048 S 
ATOM     18  O   UNL     1      35.291 -17.129 -20.663  0.00  0.00    -0.274 OA
ATOM     19  O   UNL     1      33.450 -17.978 -24.813  0.00  0.00    -0.263 OA
ATOM     20  N   UNL     1      34.417 -17.752 -22.712  0.00  0.00    -0.246 N 
ATOM     21  C   UNL     1      34.497 -15.424 -22.180  0.00  0.00    +0.137 C 
ATOM     22  C   UNL     1      34.787 -16.842 -21.743  0.00  0.00    +0.239 C 
ATOM     23  C   UNL     1      33.833 -17.304 -23.868  0.00  0.00    +0.279 C 
ATOM     24  H   UNL     1      34.571 -18.714 -22.573  0.00  0.00    +0.158 HD
ENDBRANCH  16  21
ENDBRANCH   4  16
TORSDOF 5
ENDMDL
