MODEL 1
REMARK VINA RESULT:     -13.1      0.000      0.000
REMARK  Name = 6918388
REMARK  5 active torsions:
REMARK  status: ('A' for Active; 'I' for Inactive)
REMARK    1  A    between atoms: N_1  and  C_4
REMARK    2  A    between atoms: N_1  and  C_15
REMARK    3  A    between atoms: C_4  and  C_6
REMARK    4  A    between atoms: C_15  and  C_17
REMARK    5  A    between atoms: C_19  and  C_23
REMARK                            x       y       z     vdW  Elec       q    Type
REMARK                         _______ _______ _______ _____ _____    ______ ____
ROOT
ATOM      1  N   UNL     1      34.852 -16.862 -23.530  0.00  0.00    +0.389 N 
ATOM      2  H   UNL     1      35.551 -17.111 -24.228  0.00  0.00    -0.084 HD
ATOM      3  H   UNL     1      35.296 -16.671 -22.632  0.00  0.00    -0.084 HD
ENDROOT
BRANCH   1   4
ATOM      4  C   UNL     1      33.927 -17.975 -23.363  0.00  0.00    -0.037 C 
BRANCH   4   6
ATOM      5  O   UNL     1      33.410 -19.420 -21.540  0.00  0.00    -0.482 OA
ATOM      6  C   UNL     1      34.487 -19.009 -22.394  0.00  0.00    +0.145 C 
ATOM      7  C   UNL     1      35.645 -18.425 -21.586  0.00  0.00    +0.046 C 
ATOM      8  C   UNL     1      36.209 -19.505 -20.670  0.00  0.00    +0.033 C 
ATOM      9  C   UNL     1      35.097 -20.241 -19.979  0.00  0.00    +0.012 C 
ATOM     10  C   UNL     1      33.781 -20.167 -20.453  0.00  0.00    +0.134 C 
ATOM     11  C   UNL     1      35.377 -21.036 -18.859  0.00  0.00    -0.001 C 
ATOM     12  C   UNL     1      32.755 -20.846 -19.791  0.00  0.00    +0.037 C 
ATOM     13  C   UNL     1      34.353 -21.724 -18.208  0.00  0.00    -0.000 C 
ATOM     14  C   UNL     1      33.043 -21.625 -18.671  0.00  0.00    +0.003 C 
ENDBRANCH   4   6
ENDBRANCH   1   4
BRANCH   1  15
ATOM     15  C   UNL     1      34.150 -15.662 -23.964  0.00  0.00    -0.053 C 
BRANCH  15  17
ATOM     16  N   UNL     1      33.897 -14.342 -20.444  0.00  0.00    -0.243 NA
ATOM     17  C   UNL     1      33.815 -14.757 -22.808  0.00  0.00    -0.025 C 
ATOM     18  C   UNL     1      33.150 -13.566 -23.024  0.00  0.00    -0.003 C 
ATOM     19  C   UNL     1      32.855 -12.751 -21.937  0.00  0.00    +0.019 C 
ATOM     20  C   UNL     1      34.167 -15.108 -21.525  0.00  0.00    +0.092 C 
ATOM     21  C   UNL     1      33.246 -13.181 -20.679  0.00  0.00    +0.099 C 
BRANCH  19  23
ATOM     22  F   UNL     1      30.173  -7.909 -22.615  0.00  0.00    -0.204 F 
ATOM     23  C   UNL     1      32.162 -11.497 -22.113  0.00  0.00    +0.002 C 
ATOM     24  C   UNL     1      31.093 -11.165 -21.277  0.00  0.00    +0.002 C 
ATOM     25  C   UNL     1      32.555 -10.613 -23.119  0.00  0.00    +0.002 C 
ATOM     26  C   UNL     1      30.422  -9.954 -21.447  0.00  0.00    +0.030 C 
ATOM     27  C   UNL     1      31.884  -9.401 -23.288  0.00  0.00    +0.030 C 
ATOM     28  C   UNL     1      30.818  -9.073 -22.452  0.00  0.00    +0.140 C 
ENDBRANCH  19  23
ENDBRANCH  15  17
ENDBRANCH   1  15
TORSDOF 5
ENDMDL
MODEL 2
REMARK VINA RESULT:     -13.0      4.490      9.933
REMARK  Name = 6918388
REMARK  5 active torsions:
REMARK  status: ('A' for Active; 'I' for Inactive)
REMARK    1  A    between atoms: N_1  and  C_4
REMARK    2  A    between atoms: N_1  and  C_15
REMARK    3  A    between atoms: C_4  and  C_6
REMARK    4  A    between atoms: C_15  and  C_17
REMARK    5  A    between atoms: C_19  and  C_23
REMARK                            x       y       z     vdW  Elec       q    Type
REMARK                         _______ _______ _______ _____ _____    ______ ____
ROOT
ATOM      1  N   UNL     1      34.790 -18.407 -20.729  0.00  0.00    +0.389 N 
ATOM      2  H   UNL     1      34.043 -17.723 -20.617  0.00  0.00    -0.084 HD
ATOM      3  H   UNL     1      35.282 -18.547 -19.846  0.00  0.00    -0.084 HD
ENDROOT
BRANCH   1   4
ATOM      4  C   UNL     1      35.741 -17.917 -21.716  0.00  0.00    -0.037 C 
BRANCH   4   6
ATOM      5  O   UNL     1      34.576 -15.883 -21.288  0.00  0.00    -0.482 OA
ATOM      6  C   UNL     1      35.272 -16.599 -22.319  0.00  0.00    +0.145 C 
ATOM      7  C   UNL     1      34.371 -16.844 -23.529  0.00  0.00    +0.046 C 
ATOM      8  C   UNL     1      33.969 -15.505 -24.133  0.00  0.00    +0.033 C 
ATOM      9  C   UNL     1      33.544 -14.549 -23.054  0.00  0.00    +0.012 C 
ATOM     10  C   UNL     1      33.876 -14.783 -21.714  0.00  0.00    +0.134 C 
ATOM     11  C   UNL     1      32.828 -13.392 -23.389  0.00  0.00    -0.001 C 
ATOM     12  C   UNL     1      33.462 -13.893 -20.720  0.00  0.00    +0.037 C 
ATOM     13  C   UNL     1      32.427 -12.497 -22.396  0.00  0.00    -0.000 C 
ATOM     14  C   UNL     1      32.741 -12.750 -21.063  0.00  0.00    +0.003 C 
ENDBRANCH   4   6
ENDBRANCH   1   4
BRANCH   1  15
ATOM     15  C   UNL     1      34.214 -19.678 -21.145  0.00  0.00    -0.053 C 
BRANCH  15  17
ATOM     16  N   UNL     1      31.985 -21.600 -18.793  0.00  0.00    -0.243 NA
ATOM     17  C   UNL     1      33.771 -20.506 -19.969  0.00  0.00    -0.025 C 
ATOM     18  C   UNL     1      34.686 -20.921 -19.022  0.00  0.00    -0.003 C 
ATOM     19  C   UNL     1      34.248 -21.685 -17.947  0.00  0.00    +0.019 C 
ATOM     20  C   UNL     1      32.448 -20.859 -19.824  0.00  0.00    +0.092 C 
ATOM     21  C   UNL     1      32.899 -21.995 -17.879  0.00  0.00    +0.099 C 
BRANCH  19  23
ATOM     22  F   UNL     1      37.798 -23.447 -14.024  0.00  0.00    -0.204 F 
ATOM     23  C   UNL     1      35.168 -22.142 -16.932  0.00  0.00    +0.002 C 
ATOM     24  C   UNL     1      34.739 -23.036 -15.950  0.00  0.00    +0.002 C 
ATOM     25  C   UNL     1      36.489 -21.690 -16.928  0.00  0.00    +0.002 C 
ATOM     26  C   UNL     1      35.626 -23.477 -14.968  0.00  0.00    +0.030 C 
ATOM     27  C   UNL     1      37.377 -22.130 -15.946  0.00  0.00    +0.030 C 
ATOM     28  C   UNL     1      36.945 -23.024 -14.967  0.00  0.00    +0.140 C 
ENDBRANCH  19  23
ENDBRANCH  15  17
ENDBRANCH   1  15
TORSDOF 5
ENDMDL
MODEL 3
REMARK VINA RESULT:     -13.0      3.826      9.760
REMARK  Name = 6918388
REMARK  5 active torsions:
REMARK  status: ('A' for Active; 'I' for Inactive)
REMARK    1  A    between atoms: N_1  and  C_4
REMARK    2  A    between atoms: N_1  and  C_15
REMARK    3  A    between atoms: C_4  and  C_6
REMARK    4  A    between atoms: C_15  and  C_17
REMARK    5  A    between atoms: C_19  and  C_23
REMARK                            x       y       z     vdW  Elec       q    Type
REMARK                         _______ _______ _______ _____ _____    ______ ____
ROOT
ATOM      1  N   UNL     1      32.781 -12.771 -21.781  0.00  0.00    +0.389 N 
ATOM      2  H   UNL     1      32.615 -13.673 -21.338  0.00  0.00    -0.084 HD
ATOM      3  H   UNL     1      33.179 -12.112 -21.111  0.00  0.00    -0.084 HD
ENDROOT
BRANCH   1   4
ATOM      4  C   UNL     1      31.515 -12.236 -22.262  0.00  0.00    -0.037 C 
BRANCH   4   6
ATOM      5  O   UNL     1      31.761  -9.866 -22.228  0.00  0.00    -0.482 OA
ATOM      6  C   UNL     1      31.148 -10.955 -21.523  0.00  0.00    +0.145 C 
ATOM      7  C   UNL     1      31.619 -11.011 -20.070  0.00  0.00    +0.046 C 
ATOM      8  C   UNL     1      31.186  -9.738 -19.355  0.00  0.00    +0.033 C 
ATOM      9  C   UNL     1      31.484  -8.533 -20.201  0.00  0.00    +0.012 C 
ATOM     10  C   UNL     1      31.739  -8.662 -21.572  0.00  0.00    +0.134 C 
ATOM     11  C   UNL     1      31.481  -7.256 -19.624  0.00  0.00    -0.001 C 
ATOM     12  C   UNL     1      32.028  -7.534 -22.344  0.00  0.00    +0.037 C 
ATOM     13  C   UNL     1      31.755  -6.129 -20.400  0.00  0.00    -0.000 C 
ATOM     14  C   UNL     1      32.033  -6.269 -21.758  0.00  0.00    +0.003 C 
ENDBRANCH   4   6
ENDBRANCH   1   4
BRANCH   1  15
ATOM     15  C   UNL     1      33.724 -12.944 -22.877  0.00  0.00    -0.053 C 
BRANCH  15  17
ATOM     16  N   UNL     1      33.449 -15.977 -25.095  0.00  0.00    -0.243 NA
ATOM     17  C   UNL     1      33.792 -14.375 -23.339  0.00  0.00    -0.025 C 
ATOM     18  C   UNL     1      34.234 -15.365 -22.484  0.00  0.00    -0.003 C 
ATOM     19  C   UNL     1      34.287 -16.677 -22.938  0.00  0.00    +0.019 C 
ATOM     20  C   UNL     1      33.412 -14.713 -24.618  0.00  0.00    +0.092 C 
ATOM     21  C   UNL     1      33.886 -16.929 -24.241  0.00  0.00    +0.099 C 
BRANCH  19  23
ATOM     22  F   UNL     1      36.054 -20.805 -19.632  0.00  0.00    -0.204 F 
ATOM     23  C   UNL     1      34.743 -17.746 -22.081  0.00  0.00    +0.002 C 
ATOM     24  C   UNL     1      36.059 -17.754 -21.613  0.00  0.00    +0.002 C 
ATOM     25  C   UNL     1      33.873 -18.776 -21.720  0.00  0.00    +0.002 C 
ATOM     26  C   UNL     1      36.501 -18.787 -20.786  0.00  0.00    +0.030 C 
ATOM     27  C   UNL     1      34.315 -19.809 -20.893  0.00  0.00    +0.030 C 
ATOM     28  C   UNL     1      35.629 -19.814 -20.427  0.00  0.00    +0.140 C 
ENDBRANCH  19  23
ENDBRANCH  15  17
ENDBRANCH   1  15
TORSDOF 5
ENDMDL
MODEL 4
REMARK VINA RESULT:     -13.0      1.396      2.166
REMARK  Name = 6918388
REMARK  5 active torsions:
REMARK  status: ('A' for Active; 'I' for Inactive)
REMARK    1  A    between atoms: N_1  and  C_4
REMARK    2  A    between atoms: N_1  and  C_15
REMARK    3  A    between atoms: C_4  and  C_6
REMARK    4  A    between atoms: C_15  and  C_17
REMARK    5  A    between atoms: C_19  and  C_23
REMARK                            x       y       z     vdW  Elec       q    Type
REMARK                         _______ _______ _______ _____ _____    ______ ____
ROOT
ATOM      1  N   UNL     1      35.280 -17.322 -22.863  0.00  0.00    +0.389 N 
ATOM      2  H   UNL     1      34.455 -17.767 -23.263  0.00  0.00    -0.084 HD
ATOM      3  H   UNL     1      35.930 -17.048 -23.599  0.00  0.00    -0.084 HD
ENDROOT
BRANCH   1   4
ATOM      4  C   UNL     1      35.950 -18.266 -21.980  0.00  0.00    -0.037 C 
BRANCH   4   6
ATOM      5  O   UNL     1      35.699 -19.813 -20.185  0.00  0.00    -0.482 OA
ATOM      6  C   UNL     1      34.979 -18.840 -20.957  0.00  0.00    +0.145 C 
ATOM      7  C   UNL     1      33.768 -19.465 -21.647  0.00  0.00    +0.046 C 
ATOM      8  C   UNL     1      32.798 -19.978 -20.589  0.00  0.00    +0.033 C 
ATOM      9  C   UNL     1      33.537 -20.736 -19.524  0.00  0.00    +0.012 C 
ATOM     10  C   UNL     1      34.924 -20.604 -19.377  0.00  0.00    +0.134 C 
ATOM     11  C   UNL     1      32.833 -21.569 -18.643  0.00  0.00    -0.001 C 
ATOM     12  C   UNL     1      35.599 -21.327 -18.390  0.00  0.00    +0.037 C 
ATOM     13  C   UNL     1      33.508 -22.278 -17.650  0.00  0.00    -0.000 C 
ATOM     14  C   UNL     1      34.890 -22.160 -17.526  0.00  0.00    +0.003 C 
ENDBRANCH   4   6
ENDBRANCH   1   4
BRANCH   1  15
ATOM     15  C   UNL     1      34.872 -16.127 -22.136  0.00  0.00    -0.053 C 
BRANCH  15  17
ATOM     16  N   UNL     1      33.251 -14.628 -25.189  0.00  0.00    -0.243 NA
ATOM     17  C   UNL     1      34.113 -15.168 -23.013  0.00  0.00    -0.025 C 
ATOM     18  C   UNL     1      33.601 -13.998 -22.488  0.00  0.00    -0.003 C 
ATOM     19  C   UNL     1      32.904 -13.131 -23.322  0.00  0.00    +0.019 C 
ATOM     20  C   UNL     1      33.922 -15.446 -24.347  0.00  0.00    +0.092 C 
ATOM     21  C   UNL     1      32.758 -13.489 -24.653  0.00  0.00    +0.099 C 
BRANCH  19  23
ATOM     22  F   UNL     1      30.757  -8.366 -21.379  0.00  0.00    -0.204 F 
ATOM     23  C   UNL     1      32.350 -11.896 -22.819  0.00  0.00    +0.002 C 
ATOM     24  C   UNL     1      31.496 -11.912 -21.714  0.00  0.00    +0.002 C 
ATOM     25  C   UNL     1      32.662 -10.684 -23.435  0.00  0.00    +0.002 C 
ATOM     26  C   UNL     1      30.958 -10.720 -21.228  0.00  0.00    +0.030 C 
ATOM     27  C   UNL     1      32.125  -9.492 -22.950  0.00  0.00    +0.030 C 
ATOM     28  C   UNL     1      31.273  -9.510 -21.846  0.00  0.00    +0.140 C 
ENDBRANCH  19  23
ENDBRANCH  15  17
ENDBRANCH   1  15
TORSDOF 5
ENDMDL
MODEL 5
REMARK VINA RESULT:     -12.9      4.726     10.129
REMARK  Name = 6918388
REMARK  5 active torsions:
REMARK  status: ('A' for Active; 'I' for Inactive)
REMARK    1  A    between atoms: N_1  and  C_4
REMARK    2  A    between atoms: N_1  and  C_15
REMARK    3  A    between atoms: C_4  and  C_6
REMARK    4  A    between atoms: C_15  and  C_17
REMARK    5  A    between atoms: C_19  and  C_23
REMARK                            x       y       z     vdW  Elec       q    Type
REMARK                         _______ _______ _______ _____ _____    ______ ____
ROOT
ATOM      1  N   UNL     1      34.490 -19.477 -20.292  0.00  0.00    +0.389 N 
ATOM      2  H   UNL     1      33.742 -19.231 -20.940  0.00  0.00    -0.084 HD
ATOM      3  H   UNL     1      34.298 -19.098 -19.365  0.00  0.00    -0.084 HD
ENDROOT
BRANCH   1   4
ATOM      4  C   UNL     1      35.742 -18.913 -20.774  0.00  0.00    -0.037 C 
BRANCH   4   6
ATOM      5  O   UNL     1      34.827 -16.713 -20.704  0.00  0.00    -0.482 OA
ATOM      6  C   UNL     1      35.495 -17.640 -21.574  0.00  0.00    +0.145 C 
ATOM      7  C   UNL     1      34.661 -17.933 -22.819  0.00  0.00    +0.046 C 
ATOM      8  C   UNL     1      34.483 -16.647 -23.616  0.00  0.00    +0.033 C 
ATOM      9  C   UNL     1      34.111 -15.512 -22.705  0.00  0.00    +0.012 C 
ATOM     10  C   UNL     1      34.312 -15.604 -21.322  0.00  0.00    +0.134 C 
ATOM     11  C   UNL     1      33.580 -14.331 -23.242  0.00  0.00    -0.001 C 
ATOM     12  C   UNL     1      33.948 -14.545 -20.486  0.00  0.00    +0.037 C 
ATOM     13  C   UNL     1      33.230 -13.270 -22.406  0.00  0.00    -0.000 C 
ATOM     14  C   UNL     1      33.410 -13.379 -21.029  0.00  0.00    +0.003 C 
ENDBRANCH   4   6
ENDBRANCH   1   4
BRANCH   1  15
ATOM     15  C   UNL     1      34.576 -20.928 -20.192  0.00  0.00    -0.053 C 
BRANCH  15  17
ATOM     16  N   UNL     1      36.348 -21.646 -16.946  0.00  0.00    -0.243 NA
ATOM     17  C   UNL     1      34.816 -21.380 -18.776  0.00  0.00    -0.025 C 
ATOM     18  C   UNL     1      33.787 -21.919 -18.031  0.00  0.00    -0.003 C 
ATOM     19  C   UNL     1      34.039 -22.327 -16.726  0.00  0.00    +0.019 C 
ATOM     20  C   UNL     1      36.065 -21.261 -18.210  0.00  0.00    +0.092 C 
ATOM     21  C   UNL     1      35.325 -22.171 -16.234  0.00  0.00    +0.099 C 
BRANCH  19  23
ATOM     22  F   UNL     1      30.008 -24.530 -13.566  0.00  0.00    -0.204 F 
ATOM     23  C   UNL     1      32.994 -22.896 -15.908  0.00  0.00    +0.002 C 
ATOM     24  C   UNL     1      33.310 -23.496 -14.687  0.00  0.00    +0.002 C 
ATOM     25  C   UNL     1      31.666 -22.851 -16.334  0.00  0.00    +0.002 C 
ATOM     26  C   UNL     1      32.302 -24.048 -13.896  0.00  0.00    +0.030 C 
ATOM     27  C   UNL     1      30.657 -23.403 -15.544  0.00  0.00    +0.030 C 
ATOM     28  C   UNL     1      30.976 -24.001 -14.325  0.00  0.00    +0.140 C 
ENDBRANCH  19  23
ENDBRANCH  15  17
ENDBRANCH   1  15
TORSDOF 5
ENDMDL
MODEL 6
REMARK VINA RESULT:     -12.6      3.937     10.080
REMARK  Name = 6918388
REMARK  5 active torsions:
REMARK  status: ('A' for Active; 'I' for Inactive)
REMARK    1  A    between atoms: N_1  and  C_4
REMARK    2  A    between atoms: N_1  and  C_15
REMARK    3  A    between atoms: C_4  and  C_6
REMARK    4  A    between atoms: C_15  and  C_17
REMARK    5  A    between atoms: C_19  and  C_23
REMARK                            x       y       z     vdW  Elec       q    Type
REMARK                         _______ _______ _______ _____ _____    ______ ____
ROOT
ATOM      1  N   UNL     1      32.615 -12.735 -22.793  0.00  0.00    +0.389 N 
ATOM      2  H   UNL     1      32.019 -13.439 -23.225  0.00  0.00    -0.084 HD
ATOM      3  H   UNL     1      32.200 -12.402 -21.922  0.00  0.00    -0.084 HD
ENDROOT
BRANCH   1   4
ATOM      4  C   UNL     1      32.753 -11.605 -23.701  0.00  0.00    -0.037 C 
BRANCH   4   6
ATOM      5  O   UNL     1      33.010  -9.282 -23.237  0.00  0.00    -0.482 OA
ATOM      6  C   UNL     1      32.073 -10.364 -23.137  0.00  0.00    +0.145 C 
ATOM      7  C   UNL     1      31.641 -10.592 -21.689  0.00  0.00    +0.046 C 
ATOM      8  C   UNL     1      30.920  -9.349 -21.182  0.00  0.00    +0.033 C 
ATOM      9  C   UNL     1      31.679  -8.110 -21.559  0.00  0.00    +0.012 C 
ATOM     10  C   UNL     1      32.660  -8.143 -22.559  0.00  0.00    +0.134 C 
ATOM     11  C   UNL     1      31.390  -6.894 -20.926  0.00  0.00    -0.001 C 
ATOM     12  C   UNL     1      33.368  -6.985 -22.890  0.00  0.00    +0.037 C 
ATOM     13  C   UNL     1      32.089  -5.735 -21.268  0.00  0.00    -0.000 C 
ATOM     14  C   UNL     1      33.080  -5.783 -22.246  0.00  0.00    +0.003 C 
ENDBRANCH   4   6
ENDBRANCH   1   4
BRANCH   1  15
ATOM     15  C   UNL     1      33.912 -13.325 -22.493  0.00  0.00    -0.053 C 
BRANCH  15  17
ATOM     16  N   UNL     1      33.762 -16.349 -24.736  0.00  0.00    -0.243 NA
ATOM     17  C   UNL     1      33.998 -14.756 -22.954  0.00  0.00    -0.025 C 
ATOM     18  C   UNL     1      34.371 -15.752 -22.074  0.00  0.00    -0.003 C 
ATOM     19  C   UNL     1      34.443 -17.064 -22.529  0.00  0.00    +0.019 C 
ATOM     20  C   UNL     1      33.705 -15.086 -24.258  0.00  0.00    +0.092 C 
ATOM     21  C   UNL     1      34.131 -17.308 -23.857  0.00  0.00    +0.099 C 
BRANCH  19  23
ATOM     22  F   UNL     1      35.929 -21.215 -19.116  0.00  0.00    -0.204 F 
ATOM     23  C   UNL     1      34.829 -18.139 -21.646  0.00  0.00    +0.002 C 
ATOM     24  C   UNL     1      33.885 -19.086 -21.243  0.00  0.00    +0.002 C 
ATOM     25  C   UNL     1      36.144 -18.235 -21.191  0.00  0.00    +0.002 C 
ATOM     26  C   UNL     1      34.257 -20.125 -20.389  0.00  0.00    +0.030 C 
ATOM     27  C   UNL     1      36.516 -19.273 -20.336  0.00  0.00    +0.030 C 
ATOM     28  C   UNL     1      35.572 -20.218 -19.936  0.00  0.00    +0.140 C 
ENDBRANCH  19  23
ENDBRANCH  15  17
ENDBRANCH   1  15
TORSDOF 5
ENDMDL
MODEL 7
REMARK VINA RESULT:     -12.1      4.404      7.544
REMARK  Name = 6918388
REMARK  5 active torsions:
REMARK  status: ('A' for Active; 'I' for Inactive)
REMARK    1  A    between atoms: N_1  and  C_4
REMARK    2  A    between atoms: N_1  and  C_15
REMARK    3  A    between atoms: C_4  and  C_6
REMARK    4  A    between atoms: C_15  and  C_17
REMARK    5  A    between atoms: C_19  and  C_23
REMARK                            x       y       z     vdW  Elec       q    Type
REMARK                         _______ _______ _______ _____ _____    ______ ____
ROOT
ATOM      1  N   UNL     1      33.195 -22.653 -18.005  0.00  0.00    +0.389 N 
ATOM      2  H   UNL     1      33.290 -23.561 -18.459  0.00  0.00    -0.084 HD
ATOM      3  H   UNL     1      34.096 -22.339 -17.645  0.00  0.00    -0.084 HD
ENDROOT
BRANCH   1   4
ATOM      4  C   UNL     1      32.266 -22.773 -16.890  0.00  0.00    -0.037 C 
BRANCH   4   6
ATOM      5  O   UNL     1      34.269 -23.470 -15.805  0.00  0.00    -0.482 OA
ATOM      6  C   UNL     1      33.011 -22.825 -15.562  0.00  0.00    +0.145 C 
ATOM      7  C   UNL     1      32.195 -23.575 -14.511  0.00  0.00    +0.046 C 
ATOM      8  C   UNL     1      32.949 -23.558 -13.187  0.00  0.00    +0.033 C 
ATOM      9  C   UNL     1      34.398 -23.893 -13.403  0.00  0.00    +0.012 C 
ATOM     10  C   UNL     1      34.970 -23.820 -14.680  0.00  0.00    +0.134 C 
ATOM     11  C   UNL     1      35.200 -24.258 -12.314  0.00  0.00    -0.001 C 
ATOM     12  C   UNL     1      36.315 -24.149 -14.868  0.00  0.00    +0.037 C 
ATOM     13  C   UNL     1      36.546 -24.572 -12.503  0.00  0.00    -0.000 C 
ATOM     14  C   UNL     1      37.102 -24.521 -13.779  0.00  0.00    +0.003 C 
ENDBRANCH   4   6
ENDBRANCH   1   4
BRANCH   1  15
ATOM     15  C   UNL     1      32.719 -21.680 -18.979  0.00  0.00    -0.053 C 
BRANCH  15  17
ATOM     16  N   UNL     1      36.171 -20.257 -19.485  0.00  0.00    -0.243 NA
ATOM     17  C   UNL     1      33.841 -20.838 -19.526  0.00  0.00    -0.025 C 
ATOM     18  C   UNL     1      33.598 -19.913 -20.522  0.00  0.00    -0.003 C 
ATOM     19  C   UNL     1      34.654 -19.150 -21.008  0.00  0.00    +0.019 C 
ATOM     20  C   UNL     1      35.120 -20.980 -19.038  0.00  0.00    +0.092 C 
ATOM     21  C   UNL     1      35.910 -19.359 -20.461  0.00  0.00    +0.099 C 
BRANCH  19  23
ATOM     22  F   UNL     1      33.867 -15.373 -25.034  0.00  0.00    -0.204 F 
ATOM     23  C   UNL     1      34.449 -18.171 -22.049  0.00  0.00    +0.002 C 
ATOM     24  C   UNL     1      33.906 -18.558 -23.276  0.00  0.00    +0.002 C 
ATOM     25  C   UNL     1      34.796 -16.837 -21.835  0.00  0.00    +0.002 C 
ATOM     26  C   UNL     1      33.710 -17.613 -24.284  0.00  0.00    +0.030 C 
ATOM     27  C   UNL     1      34.599 -15.892 -22.843  0.00  0.00    +0.030 C 
ATOM     28  C   UNL     1      34.056 -16.281 -24.066  0.00  0.00    +0.140 C 
ENDBRANCH  19  23
ENDBRANCH  15  17
ENDBRANCH   1  15
TORSDOF 5
ENDMDL
MODEL 8
REMARK VINA RESULT:     -12.1      4.129     10.425
REMARK  Name = 6918388
REMARK  5 active torsions:
REMARK  status: ('A' for Active; 'I' for Inactive)
REMARK    1  A    between atoms: N_1  and  C_4
REMARK    2  A    between atoms: N_1  and  C_15
REMARK    3  A    between atoms: C_4  and  C_6
REMARK    4  A    between atoms: C_15  and  C_17
REMARK    5  A    between atoms: C_19  and  C_23
REMARK                            x       y       z     vdW  Elec       q    Type
REMARK                         _______ _______ _______ _____ _____    ______ ____
ROOT
ATOM      1  N   UNL     1      33.505 -11.927 -23.538  0.00  0.00    +0.389 N 
ATOM      2  H   UNL     1      34.319 -11.317 -23.607  0.00  0.00    -0.084 HD
ATOM      3  H   UNL     1      33.354 -12.422 -24.417  0.00  0.00    -0.084 HD
ENDROOT
BRANCH   1   4
ATOM      4  C   UNL     1      32.328 -11.119 -23.253  0.00  0.00    -0.037 C 
BRANCH   4   6
ATOM      5  O   UNL     1      31.550  -8.871 -23.098  0.00  0.00    -0.482 OA
ATOM      6  C   UNL     1      32.718  -9.685 -22.916  0.00  0.00    +0.145 C 
ATOM      7  C   UNL     1      33.868  -9.212 -23.803  0.00  0.00    +0.046 C 
ATOM      8  C   UNL     1      34.262  -7.797 -23.398  0.00  0.00    +0.033 C 
ATOM      9  C   UNL     1      33.040  -6.942 -23.222  0.00  0.00    +0.012 C 
ATOM     10  C   UNL     1      31.773  -7.519 -23.073  0.00  0.00    +0.134 C 
ATOM     11  C   UNL     1      33.164  -5.547 -23.178  0.00  0.00    -0.001 C 
ATOM     12  C   UNL     1      30.643  -6.710 -22.924  0.00  0.00    +0.037 C 
ATOM     13  C   UNL     1      32.037  -4.741 -23.016  0.00  0.00    -0.000 C 
ATOM     14  C   UNL     1      30.777  -5.323 -22.893  0.00  0.00    +0.003 C 
ENDBRANCH   4   6
ENDBRANCH   1   4
BRANCH   1  15
ATOM     15  C   UNL     1      33.732 -12.908 -22.486  0.00  0.00    -0.053 C 
BRANCH  15  17
ATOM     16  N   UNL     1      33.678 -15.786 -24.917  0.00  0.00    -0.243 NA
ATOM     17  C   UNL     1      33.863 -14.303 -23.037  0.00  0.00    -0.025 C 
ATOM     18  C   UNL     1      34.269 -15.340 -22.222  0.00  0.00    -0.003 C 
ATOM     19  C   UNL     1      34.382 -16.617 -22.759  0.00  0.00    +0.019 C 
ATOM     20  C   UNL     1      33.580 -14.558 -24.359  0.00  0.00    +0.092 C 
ATOM     21  C   UNL     1      34.077 -16.786 -24.100  0.00  0.00    +0.099 C 
BRANCH  19  23
ATOM     22  F   UNL     1      36.003 -20.928 -19.614  0.00  0.00    -0.204 F 
ATOM     23  C   UNL     1      34.803 -17.734 -21.945  0.00  0.00    +0.002 C 
ATOM     24  C   UNL     1      33.878 -18.707 -21.561  0.00  0.00    +0.002 C 
ATOM     25  C   UNL     1      36.133 -17.843 -21.539  0.00  0.00    +0.002 C 
ATOM     26  C   UNL     1      34.284 -19.786 -20.774  0.00  0.00    +0.030 C 
ATOM     27  C   UNL     1      36.539 -18.921 -20.752  0.00  0.00    +0.030 C 
ATOM     28  C   UNL     1      35.614 -19.892 -20.370  0.00  0.00    +0.140 C 
ENDBRANCH  19  23
ENDBRANCH  15  17
ENDBRANCH   1  15
TORSDOF 5
ENDMDL
MODEL 9
REMARK VINA RESULT:     -12.1      4.759      7.819
REMARK  Name = 6918388
REMARK  5 active torsions:
REMARK  status: ('A' for Active; 'I' for Inactive)
REMARK    1  A    between atoms: N_1  and  C_4
REMARK    2  A    between atoms: N_1  and  C_15
REMARK    3  A    between atoms: C_4  and  C_6
REMARK    4  A    between atoms: C_15  and  C_17
REMARK    5  A    between atoms: C_19  and  C_23
REMARK                            x       y       z     vdW  Elec       q    Type
REMARK                         _______ _______ _______ _____ _____    ______ ____
ROOT
ATOM      1  N   UNL     1      36.433 -20.674 -17.398  0.00  0.00    +0.389 N 
ATOM      2  H   UNL     1      37.027 -19.909 -17.715  0.00  0.00    -0.084 HD
ATOM      3  H   UNL     1      35.583 -20.310 -16.967  0.00  0.00    -0.084 HD
ENDROOT
BRANCH   1   4
ATOM      4  C   UNL     1      37.155 -21.462 -16.409  0.00  0.00    -0.037 C 
BRANCH   4   6
ATOM      5  O   UNL     1      37.104 -22.346 -14.197  0.00  0.00    -0.482 OA
ATOM      6  C   UNL     1      36.262 -21.797 -15.221  0.00  0.00    +0.145 C 
ATOM      7  C   UNL     1      35.166 -22.782 -15.626  0.00  0.00    +0.046 C 
ATOM      8  C   UNL     1      34.266 -23.049 -14.426  0.00  0.00    +0.033 C 
ATOM      9  C   UNL     1      35.091 -23.297 -13.196  0.00  0.00    +0.012 C 
ATOM     10  C   UNL     1      36.440 -22.927 -13.147  0.00  0.00    +0.134 C 
ATOM     11  C   UNL     1      34.502 -23.883 -12.067  0.00  0.00    -0.001 C 
ATOM     12  C   UNL     1      37.199 -23.177 -12.001  0.00  0.00    +0.037 C 
ATOM     13  C   UNL     1      35.258 -24.119 -10.918  0.00  0.00    -0.000 C 
ATOM     14  C   UNL     1      36.606 -23.770 -10.887  0.00  0.00    +0.003 C 
ENDBRANCH   4   6
ENDBRANCH   1   4
BRANCH   1  15
ATOM     15  C   UNL     1      36.057 -21.491 -18.544  0.00  0.00    -0.053 C 
BRANCH  15  17
ATOM     16  N   UNL     1      32.484 -20.894 -19.579  0.00  0.00    -0.243 NA
ATOM     17  C   UNL     1      34.866 -20.927 -19.270  0.00  0.00    -0.025 C 
ATOM     18  C   UNL     1      35.035 -19.970 -20.252  0.00  0.00    -0.003 C 
ATOM     19  C   UNL     1      33.916 -19.467 -20.905  0.00  0.00    +0.019 C 
ATOM     20  C   UNL     1      33.595 -21.359 -18.965  0.00  0.00    +0.092 C 
ATOM     21  C   UNL     1      32.673 -19.958 -20.535  0.00  0.00    +0.099 C 
BRANCH  19  23
ATOM     22  F   UNL     1      34.408 -15.603 -24.894  0.00  0.00    -0.204 F 
ATOM     23  C   UNL     1      34.043 -18.465 -21.937  0.00  0.00    +0.002 C 
ATOM     24  C   UNL     1      33.614 -18.742 -23.237  0.00  0.00    +0.002 C 
ATOM     25  C   UNL     1      34.596 -17.219 -21.641  0.00  0.00    +0.002 C 
ATOM     26  C   UNL     1      33.738 -17.775 -24.235  0.00  0.00    +0.030 C 
ATOM     27  C   UNL     1      34.719 -16.252 -22.639  0.00  0.00    +0.030 C 
ATOM     28  C   UNL     1      34.290 -16.531 -23.936  0.00  0.00    +0.140 C 
ENDBRANCH  19  23
ENDBRANCH  15  17
ENDBRANCH   1  15
TORSDOF 5
ENDMDL
