MODEL 1
REMARK VINA RESULT:     -13.4      0.000      0.000
REMARK  Name = 6918554
REMARK  8 active torsions:
REMARK  status: ('A' for Active; 'I' for Inactive)
REMARK    1  A    between atoms: C_1  and  N_2
REMARK    2  A    between atoms: C_1  and  C_18
REMARK    3  A    between atoms: N_2  and  C_5
REMARK    4  A    between atoms: C_12  and  C_14
REMARK    5  A    between atoms: C_13  and  C_16
REMARK    6  A    between atoms: C_18  and  C_21
REMARK    7  A    between atoms: C_18  and  O_33
REMARK    8  A    between atoms: C_27  and  O_31
REMARK                            x       y       z     vdW  Elec       q    Type
REMARK                         _______ _______ _______ _____ _____    ______ ____
ROOT
ATOM      1  C   UNL     1      35.453 -18.055 -22.174  0.00  0.00    -0.047 C 
ENDROOT
BRANCH   1   2
ATOM      2  N   UNL     1      34.210 -18.813 -22.143  0.00  0.00    +0.387 N 
ATOM      3  H   UNL     1      33.461 -18.213 -21.797  0.00  0.00    -0.084 HD
ATOM      4  H   UNL     1      34.002 -19.136 -23.088  0.00  0.00    -0.084 HD
BRANCH   2   5
ATOM      5  C   UNL     1      34.328 -19.973 -21.272  0.00  0.00    -0.053 C 
ATOM      6  C   UNL     1      35.501 -19.860 -20.276  0.00  0.00    +0.005 C 
ATOM      7  C   UNL     1      33.061 -20.203 -20.423  0.00  0.00    +0.005 C 
ATOM      8  C   UNL     1      35.018 -20.745 -19.169  0.00  0.00    -0.029 C 
ATOM      9  C   UNL     1      33.634 -20.939 -19.252  0.00  0.00    -0.029 C 
ATOM     10  C   UNL     1      35.756 -21.297 -18.135  0.00  0.00    -0.009 C 
ATOM     11  C   UNL     1      32.960 -21.689 -18.304  0.00  0.00    -0.009 C 
ATOM     12  C   UNL     1      35.087 -22.066 -17.181  0.00  0.00    -0.026 C 
ATOM     13  C   UNL     1      33.698 -22.261 -17.265  0.00  0.00    -0.026 C 
BRANCH  12  14
ATOM     14  C   UNL     1      35.874 -22.672 -16.065  0.00  0.00    +0.026 C 
ATOM     15  C   UNL     1      37.257 -22.044 -15.926  0.00  0.00    +0.005 C 
ENDBRANCH  12  14
BRANCH  13  16
ATOM     16  C   UNL     1      32.982 -23.079 -16.240  0.00  0.00    +0.026 C 
ATOM     17  C   UNL     1      31.488 -22.773 -16.198  0.00  0.00    +0.005 C 
ENDBRANCH  13  16
ENDBRANCH   2   5
ENDBRANCH   1   2
BRANCH   1  18
ATOM     18  C   UNL     1      35.226 -16.613 -21.703  0.00  0.00    +0.112 C 
BRANCH  18  21
ATOM     19  O   UNL     1      31.665 -11.285 -21.397  0.00  0.00    -0.270 OA
ATOM     20  N   UNL     1      32.314 -12.815 -22.991  0.00  0.00    -0.278 N 
ATOM     21  C   UNL     1      34.433 -15.817 -22.715  0.00  0.00    +0.004 C 
ATOM     22  C   UNL     1      33.738 -14.670 -22.356  0.00  0.00    +0.015 C 
ATOM     23  C   UNL     1      34.428 -16.282 -24.024  0.00  0.00    +0.001 C 
ATOM     24  C   UNL     1      33.023 -13.978 -23.341  0.00  0.00    +0.084 C 
ATOM     25  C   UNL     1      33.711 -15.587 -25.000  0.00  0.00    +0.038 C 
ATOM     26  C   UNL     1      33.730 -14.161 -20.987  0.00  0.00    +0.006 C 
ATOM     27  C   UNL     1      33.006 -14.432 -24.661  0.00  0.00    +0.147 C 
ATOM     28  C   UNL     1      33.049 -13.052 -20.677  0.00  0.00    +0.058 C 
ATOM     29  C   UNL     1      32.281 -12.302 -21.709  0.00  0.00    +0.250 C 
ATOM     30  H   UNL     1      31.817 -12.341 -23.697  0.00  0.00    +0.155 HD
BRANCH  27  31
ATOM     31  O   UNL     1      32.313 -13.769 -25.626  0.00  0.00    -0.504 OA
ATOM     32  H   UNL     1      32.569 -13.846 -26.524  0.00  0.00    +0.292 HD
ENDBRANCH  27  31
ENDBRANCH  18  21
BRANCH  18  33
ATOM     33  O   UNL     1      34.510 -16.605 -20.469  0.00  0.00    -0.382 OA
ATOM     34  H   UNL     1      34.210 -15.703 -20.274  0.00  0.00    +0.211 HD
ENDBRANCH  18  33
ENDBRANCH   1  18
TORSDOF 8
ENDMDL
MODEL 2
REMARK VINA RESULT:     -13.1      1.128      3.186
REMARK  Name = 6918554
REMARK  8 active torsions:
REMARK  status: ('A' for Active; 'I' for Inactive)
REMARK    1  A    between atoms: C_1  and  N_2
REMARK    2  A    between atoms: C_1  and  C_18
REMARK    3  A    between atoms: N_2  and  C_5
REMARK    4  A    between atoms: C_12  and  C_14
REMARK    5  A    between atoms: C_13  and  C_16
REMARK    6  A    between atoms: C_18  and  C_21
REMARK    7  A    between atoms: C_18  and  O_33
REMARK    8  A    between atoms: C_27  and  O_31
REMARK                            x       y       z     vdW  Elec       q    Type
REMARK                         _______ _______ _______ _____ _____    ______ ____
ROOT
ATOM      1  C   UNL     1      34.089 -18.660 -22.216  0.00  0.00    -0.047 C 
ENDROOT
BRANCH   1   2
ATOM      2  N   UNL     1      34.896 -19.718 -21.621  0.00  0.00    +0.387 N 
ATOM      3  H   UNL     1      34.773 -20.574 -22.161  0.00  0.00    -0.084 HD
ATOM      4  H   UNL     1      35.872 -19.425 -21.630  0.00  0.00    -0.084 HD
BRANCH   2   5
ATOM      5  C   UNL     1      34.498 -19.964 -20.244  0.00  0.00    -0.053 C 
ATOM      6  C   UNL     1      33.136 -20.680 -20.129  0.00  0.00    +0.005 C 
ATOM      7  C   UNL     1      35.514 -20.844 -19.487  0.00  0.00    +0.005 C 
ATOM      8  C   UNL     1      33.285 -21.363 -18.806  0.00  0.00    -0.029 C 
ATOM      9  C   UNL     1      34.634 -21.457 -18.441  0.00  0.00    -0.029 C 
ATOM     10  C   UNL     1      32.291 -21.903 -18.007  0.00  0.00    -0.009 C 
ATOM     11  C   UNL     1      35.015 -22.092 -17.272  0.00  0.00    -0.009 C 
ATOM     12  C   UNL     1      32.665 -22.535 -16.819  0.00  0.00    -0.026 C 
ATOM     13  C   UNL     1      34.018 -22.629 -16.454  0.00  0.00    -0.026 C 
BRANCH  12  14
ATOM     14  C   UNL     1      31.599 -23.116 -15.948  0.00  0.00    +0.026 C 
ATOM     15  C   UNL     1      30.242 -22.461 -16.179  0.00  0.00    +0.005 C 
ENDBRANCH  12  14
BRANCH  13  16
ATOM     16  C   UNL     1      34.417 -23.311 -15.186  0.00  0.00    +0.026 C 
ATOM     17  C   UNL     1      35.923 -23.252 -14.948  0.00  0.00    +0.005 C 
ENDBRANCH  13  16
ENDBRANCH   2   5
ENDBRANCH   1   2
BRANCH   1  18
ATOM     18  C   UNL     1      34.969 -17.485 -22.658  0.00  0.00    +0.112 C 
BRANCH  18  21
ATOM     19  O   UNL     1      32.335 -12.568 -25.828  0.00  0.00    -0.270 OA
ATOM     20  N   UNL     1      32.808 -13.136 -23.647  0.00  0.00    -0.278 N 
ATOM     21  C   UNL     1      34.376 -16.159 -22.239  0.00  0.00    +0.004 C 
ATOM     22  C   UNL     1      33.864 -15.263 -23.169  0.00  0.00    +0.015 C 
ATOM     23  C   UNL     1      34.363 -15.872 -20.880  0.00  0.00    +0.001 C 
ATOM     24  C   UNL     1      33.328 -14.052 -22.716  0.00  0.00    +0.084 C 
ATOM     25  C   UNL     1      33.828 -14.661 -20.437  0.00  0.00    +0.038 C 
ATOM     26  C   UNL     1      33.865 -15.544 -24.602  0.00  0.00    +0.006 C 
ATOM     27  C   UNL     1      33.309 -13.747 -21.354  0.00  0.00    +0.147 C 
ATOM     28  C   UNL     1      33.363 -14.658 -25.471  0.00  0.00    +0.058 C 
ATOM     29  C   UNL     1      32.790 -13.364 -25.009  0.00  0.00    +0.250 C 
ATOM     30  H   UNL     1      32.434 -12.289 -23.310  0.00  0.00    +0.155 HD
BRANCH  27  31
ATOM     31  O   UNL     1      32.793 -12.571 -20.902  0.00  0.00    -0.504 OA
ATOM     32  H   UNL     1      32.062 -12.575 -20.316  0.00  0.00    +0.292 HD
ENDBRANCH  27  31
ENDBRANCH  18  21
BRANCH  18  33
ATOM     33  O   UNL     1      36.268 -17.596 -22.078  0.00  0.00    -0.382 OA
ATOM     34  H   UNL     1      36.652 -18.457 -22.306  0.00  0.00    +0.211 HD
ENDBRANCH  18  33
ENDBRANCH   1  18
TORSDOF 8
ENDMDL
MODEL 3
REMARK VINA RESULT:     -13.1      0.261      2.053
REMARK  Name = 6918554
REMARK  8 active torsions:
REMARK  status: ('A' for Active; 'I' for Inactive)
REMARK    1  A    between atoms: C_1  and  N_2
REMARK    2  A    between atoms: C_1  and  C_18
REMARK    3  A    between atoms: N_2  and  C_5
REMARK    4  A    between atoms: C_12  and  C_14
REMARK    5  A    between atoms: C_13  and  C_16
REMARK    6  A    between atoms: C_18  and  C_21
REMARK    7  A    between atoms: C_18  and  O_33
REMARK    8  A    between atoms: C_27  and  O_31
REMARK                            x       y       z     vdW  Elec       q    Type
REMARK                         _______ _______ _______ _____ _____    ______ ____
ROOT
ATOM      1  C   UNL     1      35.454 -18.220 -22.323  0.00  0.00    -0.047 C 
ENDROOT
BRANCH   1   2
ATOM      2  N   UNL     1      34.259 -19.016 -22.072  0.00  0.00    +0.387 N 
ATOM      3  H   UNL     1      33.436 -18.473 -22.333  0.00  0.00    -0.084 HD
ATOM      4  H   UNL     1      34.316 -19.869 -22.627  0.00  0.00    -0.084 HD
BRANCH   2   5
ATOM      5  C   UNL     1      34.162 -19.381 -20.667  0.00  0.00    -0.053 C 
ATOM      6  C   UNL     1      33.020 -20.380 -20.383  0.00  0.00    +0.005 C 
ATOM      7  C   UNL     1      35.453 -20.040 -20.140  0.00  0.00    +0.005 C 
ATOM      8  C   UNL     1      33.532 -21.051 -19.147  0.00  0.00    -0.029 C 
ATOM      9  C   UNL     1      34.912 -20.859 -19.009  0.00  0.00    -0.029 C 
ATOM     10  C   UNL     1      32.823 -21.817 -18.236  0.00  0.00    -0.009 C 
ATOM     11  C   UNL     1      35.611 -21.428 -17.958  0.00  0.00    -0.009 C 
ATOM     12  C   UNL     1      33.517 -22.385 -17.166  0.00  0.00    -0.026 C 
ATOM     13  C   UNL     1      34.902 -22.192 -17.028  0.00  0.00    -0.026 C 
BRANCH  12  14
ATOM     14  C   UNL     1      32.761 -23.208 -16.175  0.00  0.00    +0.026 C 
ATOM     15  C   UNL     1      31.323 -22.729 -16.003  0.00  0.00    +0.005 C 
ENDBRANCH  12  14
BRANCH  13  16
ATOM     16  C   UNL     1      35.644 -22.806 -15.886  0.00  0.00    +0.026 C 
ATOM     17  C   UNL     1      37.070 -22.274 -15.772  0.00  0.00    +0.005 C 
ENDBRANCH  13  16
ENDBRANCH   2   5
ENDBRANCH   1   2
BRANCH   1  18
ATOM     18  C   UNL     1      35.268 -16.783 -21.819  0.00  0.00    +0.112 C 
BRANCH  18  21
ATOM     19  O   UNL     1      31.815 -11.401 -21.297  0.00  0.00    -0.270 OA
ATOM     20  N   UNL     1      32.380 -12.914 -22.939  0.00  0.00    -0.278 N 
ATOM     21  C   UNL     1      34.454 -15.956 -22.789  0.00  0.00    +0.004 C 
ATOM     22  C   UNL     1      33.793 -14.803 -22.386  0.00  0.00    +0.015 C 
ATOM     23  C   UNL     1      34.395 -16.398 -24.104  0.00  0.00    +0.001 C 
ATOM     24  C   UNL     1      33.056 -14.083 -23.333  0.00  0.00    +0.084 C 
ATOM     25  C   UNL     1      33.656 -15.674 -25.042  0.00  0.00    +0.038 C 
ATOM     26  C   UNL     1      33.842 -14.318 -21.009  0.00  0.00    +0.006 C 
ATOM     27  C   UNL     1      32.984 -14.514 -24.659  0.00  0.00    +0.147 C 
ATOM     28  C   UNL     1      33.192 -13.203 -20.656  0.00  0.00    +0.058 C 
ATOM     29  C   UNL     1      32.402 -12.423 -21.647  0.00  0.00    +0.250 C 
ATOM     30  H   UNL     1      31.867 -12.419 -23.618  0.00  0.00    +0.155 HD
BRANCH  27  31
ATOM     31  O   UNL     1      32.269 -13.822 -25.588  0.00  0.00    -0.504 OA
ATOM     32  H   UNL     1      31.507 -13.341 -25.329  0.00  0.00    +0.292 HD
ENDBRANCH  27  31
ENDBRANCH  18  21
BRANCH  18  33
ATOM     33  O   UNL     1      34.596 -16.784 -20.561  0.00  0.00    -0.382 OA
ATOM     34  H   UNL     1      34.350 -15.876 -20.324  0.00  0.00    +0.211 HD
ENDBRANCH  18  33
ENDBRANCH   1  18
TORSDOF 8
ENDMDL
MODEL 4
REMARK VINA RESULT:     -13.0      1.235      2.753
REMARK  Name = 6918554
REMARK  8 active torsions:
REMARK  status: ('A' for Active; 'I' for Inactive)
REMARK    1  A    between atoms: C_1  and  N_2
REMARK    2  A    between atoms: C_1  and  C_18
REMARK    3  A    between atoms: N_2  and  C_5
REMARK    4  A    between atoms: C_12  and  C_14
REMARK    5  A    between atoms: C_13  and  C_16
REMARK    6  A    between atoms: C_18  and  C_21
REMARK    7  A    between atoms: C_18  and  O_33
REMARK    8  A    between atoms: C_27  and  O_31
REMARK                            x       y       z     vdW  Elec       q    Type
REMARK                         _______ _______ _______ _____ _____    ______ ____
ROOT
ATOM      1  C   UNL     1      34.603 -18.961 -21.369  0.00  0.00    -0.047 C 
ENDROOT
BRANCH   1   2
ATOM      2  N   UNL     1      35.677 -19.609 -20.628  0.00  0.00    +0.387 N 
ATOM      3  H   UNL     1      36.393 -19.921 -21.283  0.00  0.00    -0.084 HD
ATOM      4  H   UNL     1      36.065 -18.939 -19.965  0.00  0.00    -0.084 HD
BRANCH   2   5
ATOM      5  C   UNL     1      35.179 -20.758 -19.887  0.00  0.00    -0.053 C 
ATOM      6  C   UNL     1      35.853 -20.923 -18.508  0.00  0.00    +0.005 C 
ATOM      7  C   UNL     1      33.662 -20.673 -19.618  0.00  0.00    +0.005 C 
ATOM      8  C   UNL     1      34.787 -21.660 -17.758  0.00  0.00    -0.029 C 
ATOM      9  C   UNL     1      33.544 -21.517 -18.388  0.00  0.00    -0.029 C 
ATOM     10  C   UNL     1      34.911 -22.367 -16.574  0.00  0.00    -0.009 C 
ATOM     11  C   UNL     1      32.401 -22.079 -17.846  0.00  0.00    -0.009 C 
ATOM     12  C   UNL     1      33.765 -22.947 -16.026  0.00  0.00    -0.026 C 
ATOM     13  C   UNL     1      32.518 -22.804 -16.658  0.00  0.00    -0.026 C 
BRANCH  12  14
ATOM     14  C   UNL     1      33.888 -23.718 -14.751  0.00  0.00    +0.026 C 
ATOM     15  C   UNL     1      35.073 -24.678 -14.769  0.00  0.00    +0.005 C 
ENDBRANCH  12  14
BRANCH  13  16
ATOM     16  C   UNL     1      31.292 -23.421 -16.067  0.00  0.00    +0.026 C 
ATOM     17  C   UNL     1      30.110 -22.456 -16.052  0.00  0.00    +0.005 C 
ENDBRANCH  13  16
ENDBRANCH   2   5
ENDBRANCH   1   2
BRANCH   1  18
ATOM     18  C   UNL     1      35.155 -17.855 -22.277  0.00  0.00    +0.112 C 
BRANCH  18  21
ATOM     19  O   UNL     1      32.582 -13.141 -25.786  0.00  0.00    -0.270 OA
ATOM     20  N   UNL     1      33.001 -13.582 -23.565  0.00  0.00    -0.278 N 
ATOM     21  C   UNL     1      34.545 -16.511 -21.948  0.00  0.00    +0.004 C 
ATOM     22  C   UNL     1      34.054 -15.673 -22.940  0.00  0.00    +0.015 C 
ATOM     23  C   UNL     1      34.496 -16.148 -20.609  0.00  0.00    +0.001 C 
ATOM     24  C   UNL     1      33.501 -14.441 -22.570  0.00  0.00    +0.084 C 
ATOM     25  C   UNL     1      33.945 -14.917 -20.249  0.00  0.00    +0.038 C 
ATOM     26  C   UNL     1      34.093 -16.034 -24.355  0.00  0.00    +0.006 C 
ATOM     27  C   UNL     1      33.446 -14.059 -21.229  0.00  0.00    +0.147 C 
ATOM     28  C   UNL     1      33.610 -15.202 -25.285  0.00  0.00    +0.058 C 
ATOM     29  C   UNL     1      33.020 -13.887 -24.912  0.00  0.00    +0.250 C 
ATOM     30  H   UNL     1      32.616 -12.719 -23.287  0.00  0.00    +0.155 HD
BRANCH  27  31
ATOM     31  O   UNL     1      32.913 -12.863 -20.858  0.00  0.00    -0.504 OA
ATOM     32  H   UNL     1      33.423 -12.258 -20.356  0.00  0.00    +0.292 HD
ENDBRANCH  27  31
ENDBRANCH  18  21
BRANCH  18  33
ATOM     33  O   UNL     1      36.570 -17.753 -22.123  0.00  0.00    -0.382 OA
ATOM     34  H   UNL     1      36.983 -18.601 -22.350  0.00  0.00    +0.211 HD
ENDBRANCH  18  33
ENDBRANCH   1  18
TORSDOF 8
ENDMDL
MODEL 5
REMARK VINA RESULT:     -12.8      3.347      9.434
REMARK  Name = 6918554
REMARK  8 active torsions:
REMARK  status: ('A' for Active; 'I' for Inactive)
REMARK    1  A    between atoms: C_1  and  N_2
REMARK    2  A    between atoms: C_1  and  C_18
REMARK    3  A    between atoms: N_2  and  C_5
REMARK    4  A    between atoms: C_12  and  C_14
REMARK    5  A    between atoms: C_13  and  C_16
REMARK    6  A    between atoms: C_18  and  C_21
REMARK    7  A    between atoms: C_18  and  O_33
REMARK    8  A    between atoms: C_27  and  O_31
REMARK                            x       y       z     vdW  Elec       q    Type
REMARK                         _______ _______ _______ _____ _____    ______ ____
ROOT
ATOM      1  C   UNL     1      34.647 -19.554 -20.595  0.00  0.00    -0.047 C 
ENDROOT
BRANCH   1   2
ATOM      2  N   UNL     1      35.357 -19.226 -21.825  0.00  0.00    +0.387 N 
ATOM      3  H   UNL     1      36.318 -19.559 -21.754  0.00  0.00    -0.084 HD
ATOM      4  H   UNL     1      34.878 -19.675 -22.605  0.00  0.00    -0.084 HD
BRANCH   2   5
ATOM      5  C   UNL     1      35.368 -17.789 -22.052  0.00  0.00    -0.053 C 
ATOM      6  C   UNL     1      34.615 -17.377 -23.335  0.00  0.00    +0.005 C 
ATOM      7  C   UNL     1      34.713 -17.005 -20.896  0.00  0.00    +0.005 C 
ATOM      8  C   UNL     1      34.218 -15.974 -22.992  0.00  0.00    -0.029 C 
ATOM      9  C   UNL     1      34.273 -15.764 -21.608  0.00  0.00    -0.029 C 
ATOM     10  C   UNL     1      33.794 -14.974 -23.850  0.00  0.00    -0.009 C 
ATOM     11  C   UNL     1      33.906 -14.549 -21.056  0.00  0.00    -0.009 C 
ATOM     12  C   UNL     1      33.433 -13.741 -23.303  0.00  0.00    -0.026 C 
ATOM     13  C   UNL     1      33.488 -13.530 -21.915  0.00  0.00    -0.026 C 
BRANCH  12  14
ATOM     14  C   UNL     1      32.979 -12.652 -24.220  0.00  0.00    +0.026 C 
ATOM     15  C   UNL     1      32.676 -13.168 -25.623  0.00  0.00    +0.005 C 
ENDBRANCH  12  14
BRANCH  13  16
ATOM     16  C   UNL     1      33.095 -12.212 -21.331  0.00  0.00    +0.026 C 
ATOM     17  C   UNL     1      31.705 -12.250 -20.703  0.00  0.00    +0.005 C 
ENDBRANCH  13  16
ENDBRANCH   2   5
ENDBRANCH   1   2
BRANCH   1  18
ATOM     18  C   UNL     1      35.516 -20.425 -19.679  0.00  0.00    +0.112 C 
BRANCH  18  21
ATOM     19  O   UNL     1      36.689 -23.083 -13.959  0.00  0.00    -0.270 OA
ATOM     20  N   UNL     1      34.907 -22.849 -15.399  0.00  0.00    -0.278 N 
ATOM     21  C   UNL     1      34.677 -21.192 -18.683  0.00  0.00    +0.004 C 
ATOM     22  C   UNL     1      35.210 -21.662 -17.490  0.00  0.00    +0.015 C 
ATOM     23  C   UNL     1      33.344 -21.408 -19.010  0.00  0.00    +0.001 C 
ATOM     24  C   UNL     1      34.380 -22.366 -16.610  0.00  0.00    +0.084 C 
ATOM     25  C   UNL     1      32.523 -22.112 -18.128  0.00  0.00    +0.038 C 
ATOM     26  C   UNL     1      36.607 -21.446 -17.123  0.00  0.00    +0.006 C 
ATOM     27  C   UNL     1      33.039 -22.594 -16.924  0.00  0.00    +0.147 C 
ATOM     28  C   UNL     1      37.088 -21.914 -15.965  0.00  0.00    +0.058 C 
ATOM     29  C   UNL     1      36.222 -22.665 -15.017  0.00  0.00    +0.250 C 
ATOM     30  H   UNL     1      34.309 -23.342 -14.792  0.00  0.00    +0.155 HD
BRANCH  27  31
ATOM     31  O   UNL     1      32.222 -23.279 -16.078  0.00  0.00    -0.504 OA
ATOM     32  H   UNL     1      31.690 -23.978 -16.403  0.00  0.00    +0.292 HD
ENDBRANCH  27  31
ENDBRANCH  18  21
BRANCH  18  33
ATOM     33  O   UNL     1      36.261 -21.364 -20.452  0.00  0.00    -0.382 OA
ATOM     34  H   UNL     1      35.917 -22.258 -20.295  0.00  0.00    +0.211 HD
ENDBRANCH  18  33
ENDBRANCH   1  18
TORSDOF 8
ENDMDL
MODEL 6
REMARK VINA RESULT:     -12.8      2.700      9.306
REMARK  Name = 6918554
REMARK  8 active torsions:
REMARK  status: ('A' for Active; 'I' for Inactive)
REMARK    1  A    between atoms: C_1  and  N_2
REMARK    2  A    between atoms: C_1  and  C_18
REMARK    3  A    between atoms: N_2  and  C_5
REMARK    4  A    between atoms: C_12  and  C_14
REMARK    5  A    between atoms: C_13  and  C_16
REMARK    6  A    between atoms: C_18  and  C_21
REMARK    7  A    between atoms: C_18  and  O_33
REMARK    8  A    between atoms: C_27  and  O_31
REMARK                            x       y       z     vdW  Elec       q    Type
REMARK                         _______ _______ _______ _____ _____    ______ ____
ROOT
ATOM      1  C   UNL     1      35.125 -17.549 -20.946  0.00  0.00    -0.047 C 
ENDROOT
BRANCH   1   2
ATOM      2  N   UNL     1      35.275 -16.721 -22.136  0.00  0.00    +0.387 N 
ATOM      3  H   UNL     1      36.148 -16.198 -22.070  0.00  0.00    -0.084 HD
ATOM      4  H   UNL     1      35.281 -17.327 -22.955  0.00  0.00    -0.084 HD
BRANCH   2   5
ATOM      5  C   UNL     1      34.169 -15.784 -22.261  0.00  0.00    -0.053 C 
ATOM      6  C   UNL     1      33.784 -15.124 -20.919  0.00  0.00    +0.005 C 
ATOM      7  C   UNL     1      34.482 -14.630 -23.235  0.00  0.00    +0.005 C 
ATOM      8  C   UNL     1      33.177 -13.842 -21.398  0.00  0.00    -0.029 C 
ATOM      9  C   UNL     1      33.573 -13.562 -22.712  0.00  0.00    -0.029 C 
ATOM     10  C   UNL     1      32.367 -12.967 -20.694  0.00  0.00    -0.009 C 
ATOM     11  C   UNL     1      33.167 -12.401 -23.348  0.00  0.00    -0.009 C 
ATOM     12  C   UNL     1      31.942 -11.800 -21.332  0.00  0.00    -0.026 C 
ATOM     13  C   UNL     1      32.339 -11.518 -22.650  0.00  0.00    -0.026 C 
BRANCH  12  14
ATOM     14  C   UNL     1      31.062 -10.851 -20.584  0.00  0.00    +0.026 C 
ATOM     15  C   UNL     1      31.686 -10.400 -19.267  0.00  0.00    +0.005 C 
ENDBRANCH  12  14
BRANCH  13  16
ATOM     16  C   UNL     1      31.889 -10.266 -23.328  0.00  0.00    +0.026 C 
ATOM     17  C   UNL     1      32.876  -9.118 -23.136  0.00  0.00    +0.005 C 
ENDBRANCH  13  16
ENDBRANCH   2   5
ENDBRANCH   1   2
BRANCH   1  18
ATOM     18  C   UNL     1      35.128 -19.038 -21.315  0.00  0.00    +0.112 C 
BRANCH  18  21
ATOM     19  O   UNL     1      35.989 -22.681 -16.104  0.00  0.00    -0.270 OA
ATOM     20  N   UNL     1      34.241 -21.994 -17.436  0.00  0.00    -0.278 N 
ATOM     21  C   UNL     1      34.203 -19.832 -20.421  0.00  0.00    +0.004 C 
ATOM     22  C   UNL     1      34.680 -20.548 -19.330  0.00  0.00    +0.015 C 
ATOM     23  C   UNL     1      32.850 -19.817 -20.736  0.00  0.00    +0.001 C 
ATOM     24  C   UNL     1      33.771 -21.263 -18.542  0.00  0.00    +0.084 C 
ATOM     25  C   UNL     1      31.950 -20.534 -19.945  0.00  0.00    +0.038 C 
ATOM     26  C   UNL     1      36.097 -20.578 -18.979  0.00  0.00    +0.006 C 
ATOM     27  C   UNL     1      32.408 -21.260 -18.845  0.00  0.00    +0.147 C 
ATOM     28  C   UNL     1      36.522 -21.279 -17.921  0.00  0.00    +0.058 C 
ATOM     29  C   UNL     1      35.572 -22.047 -17.071  0.00  0.00    +0.250 C 
ATOM     30  H   UNL     1      33.587 -22.490 -16.892  0.00  0.00    +0.155 HD
BRANCH  27  31
ATOM     31  O   UNL     1      31.515 -21.954 -18.087  0.00  0.00    -0.504 OA
ATOM     32  H   UNL     1      31.636 -22.015 -17.160  0.00  0.00    +0.292 HD
ENDBRANCH  27  31
ENDBRANCH  18  21
BRANCH  18  33
ATOM     33  O   UNL     1      34.703 -19.213 -22.665  0.00  0.00    -0.382 OA
ATOM     34  H   UNL     1      34.033 -18.546 -22.883  0.00  0.00    +0.211 HD
ENDBRANCH  18  33
ENDBRANCH   1  18
TORSDOF 8
ENDMDL
MODEL 7
REMARK VINA RESULT:     -12.5      2.983      9.369
REMARK  Name = 6918554
REMARK  8 active torsions:
REMARK  status: ('A' for Active; 'I' for Inactive)
REMARK    1  A    between atoms: C_1  and  N_2
REMARK    2  A    between atoms: C_1  and  C_18
REMARK    3  A    between atoms: N_2  and  C_5
REMARK    4  A    between atoms: C_12  and  C_14
REMARK    5  A    between atoms: C_13  and  C_16
REMARK    6  A    between atoms: C_18  and  C_21
REMARK    7  A    between atoms: C_18  and  O_33
REMARK    8  A    between atoms: C_27  and  O_31
REMARK                            x       y       z     vdW  Elec       q    Type
REMARK                         _______ _______ _______ _____ _____    ______ ____
ROOT
ATOM      1  C   UNL     1      35.612 -19.782 -20.422  0.00  0.00    -0.047 C 
ENDROOT
BRANCH   1   2
ATOM      2  N   UNL     1      35.326 -19.468 -21.816  0.00  0.00    +0.387 N 
ATOM      3  H   UNL     1      36.023 -19.918 -22.408  0.00  0.00    -0.084 HD
ATOM      4  H   UNL     1      34.392 -19.809 -22.040  0.00  0.00    -0.084 HD
BRANCH   2   5
ATOM      5  C   UNL     1      35.364 -18.032 -22.045  0.00  0.00    -0.053 C 
ATOM      6  C   UNL     1      34.589 -17.604 -23.309  0.00  0.00    +0.005 C 
ATOM      7  C   UNL     1      34.756 -17.233 -20.873  0.00  0.00    +0.005 C 
ATOM      8  C   UNL     1      34.232 -16.193 -22.957  0.00  0.00    -0.029 C 
ATOM      9  C   UNL     1      34.327 -15.983 -21.576  0.00  0.00    -0.029 C 
ATOM     10  C   UNL     1      33.809 -15.184 -23.806  0.00  0.00    -0.009 C 
ATOM     11  C   UNL     1      34.001 -14.759 -21.016  0.00  0.00    -0.009 C 
ATOM     12  C   UNL     1      33.489 -13.942 -23.251  0.00  0.00    -0.026 C 
ATOM     13  C   UNL     1      33.584 -13.732 -21.866  0.00  0.00    -0.026 C 
BRANCH  12  14
ATOM     14  C   UNL     1      33.037 -12.844 -24.159  0.00  0.00    +0.026 C 
ATOM     15  C   UNL     1      32.784 -13.337 -25.580  0.00  0.00    +0.005 C 
ENDBRANCH  12  14
BRANCH  13  16
ATOM     16  C   UNL     1      33.236 -12.405 -21.273  0.00  0.00    +0.026 C 
ATOM     17  C   UNL     1      31.858 -12.410 -20.618  0.00  0.00    +0.005 C 
ENDBRANCH  13  16
ENDBRANCH   2   5
ENDBRANCH   1   2
BRANCH   1  18
ATOM     18  C   UNL     1      34.615 -20.813 -19.879  0.00  0.00    +0.112 C 
BRANCH  18  21
ATOM     19  O   UNL     1      31.439 -23.592 -15.046  0.00  0.00    -0.270 OA
ATOM     20  N   UNL     1      33.582 -22.878 -15.493  0.00  0.00    -0.278 N 
ATOM     21  C   UNL     1      35.006 -21.288 -18.497  0.00  0.00    +0.004 C 
ATOM     22  C   UNL     1      34.082 -21.870 -17.639  0.00  0.00    +0.015 C 
ATOM     23  C   UNL     1      36.332 -21.119 -18.120  0.00  0.00    +0.001 C 
ATOM     24  C   UNL     1      34.508 -22.289 -16.373  0.00  0.00    +0.084 C 
ATOM     25  C   UNL     1      36.748 -21.538 -16.855  0.00  0.00    +0.038 C 
ATOM     26  C   UNL     1      32.683 -22.060 -18.014  0.00  0.00    +0.006 C 
ATOM     27  C   UNL     1      35.836 -22.125 -15.977  0.00  0.00    +0.147 C 
ATOM     28  C   UNL     1      31.820 -22.624 -17.161  0.00  0.00    +0.058 C 
ATOM     29  C   UNL     1      32.252 -23.075 -15.810  0.00  0.00    +0.250 C 
ATOM     30  H   UNL     1      33.899 -23.167 -14.606  0.00  0.00    +0.155 HD
BRANCH  27  31
ATOM     31  O   UNL     1      36.261 -22.526 -14.748  0.00  0.00    -0.504 OA
ATOM     32  H   UNL     1      36.357 -21.900 -14.058  0.00  0.00    +0.292 HD
ENDBRANCH  27  31
ENDBRANCH  18  21
BRANCH  18  33
ATOM     33  O   UNL     1      33.309 -20.244 -19.802  0.00  0.00    -0.382 OA
ATOM     34  H   UNL     1      32.672 -20.834 -20.235  0.00  0.00    +0.211 HD
ENDBRANCH  18  33
ENDBRANCH   1  18
TORSDOF 8
ENDMDL
MODEL 8
REMARK VINA RESULT:     -12.4      1.700      2.498
REMARK  Name = 6918554
REMARK  8 active torsions:
REMARK  status: ('A' for Active; 'I' for Inactive)
REMARK    1  A    between atoms: C_1  and  N_2
REMARK    2  A    between atoms: C_1  and  C_18
REMARK    3  A    between atoms: N_2  and  C_5
REMARK    4  A    between atoms: C_12  and  C_14
REMARK    5  A    between atoms: C_13  and  C_16
REMARK    6  A    between atoms: C_18  and  C_21
REMARK    7  A    between atoms: C_18  and  O_33
REMARK    8  A    between atoms: C_27  and  O_31
REMARK                            x       y       z     vdW  Elec       q    Type
REMARK                         _______ _______ _______ _____ _____    ______ ____
ROOT
ATOM      1  C   UNL     1      35.981 -19.266 -21.018  0.00  0.00    -0.047 C 
ENDROOT
BRANCH   1   2
ATOM      2  N   UNL     1      34.743 -19.894 -20.573  0.00  0.00    +0.387 N 
ATOM      3  H   UNL     1      34.160 -19.193 -20.115  0.00  0.00    -0.084 HD
ATOM      4  H   UNL     1      34.265 -20.282 -21.385  0.00  0.00    -0.084 HD
BRANCH   2   5
ATOM      5  C   UNL     1      35.015 -20.972 -19.634  0.00  0.00    -0.053 C 
ATOM      6  C   UNL     1      36.124 -20.623 -18.620  0.00  0.00    +0.005 C 
ATOM      7  C   UNL     1      33.773 -21.354 -18.802  0.00  0.00    +0.005 C 
ATOM      8  C   UNL     1      35.751 -21.512 -17.475  0.00  0.00    -0.029 C 
ATOM      9  C   UNL     1      34.418 -21.926 -17.578  0.00  0.00    -0.029 C 
ATOM     10  C   UNL     1      36.534 -21.885 -16.395  0.00  0.00    -0.009 C 
ATOM     11  C   UNL     1      33.840 -22.723 -16.604  0.00  0.00    -0.009 C 
ATOM     12  C   UNL     1      35.964 -22.699 -15.414  0.00  0.00    -0.026 C 
ATOM     13  C   UNL     1      34.626 -23.114 -15.517  0.00  0.00    -0.026 C 
BRANCH  12  14
ATOM     14  C   UNL     1      36.801 -23.113 -14.247  0.00  0.00    +0.026 C 
ATOM     15  C   UNL     1      37.744 -24.261 -14.592  0.00  0.00    +0.005 C 
ENDBRANCH  12  14
BRANCH  13  16
ATOM     16  C   UNL     1      34.016 -23.979 -14.463  0.00  0.00    +0.026 C 
ATOM     17  C   UNL     1      32.746 -23.367 -13.878  0.00  0.00    +0.005 C 
ENDBRANCH  13  16
ENDBRANCH   2   5
ENDBRANCH   1   2
BRANCH   1  18
ATOM     18  C   UNL     1      35.727 -17.827 -21.482  0.00  0.00    +0.112 C 
BRANCH  18  21
ATOM     19  O   UNL     1      32.648 -13.088 -24.520  0.00  0.00    -0.270 OA
ATOM     20  N   UNL     1      32.765 -15.386 -24.618  0.00  0.00    -0.278 N 
ATOM     21  C   UNL     1      34.729 -17.777 -22.618  0.00  0.00    +0.004 C 
ATOM     22  C   UNL     1      34.215 -16.574 -23.083  0.00  0.00    +0.015 C 
ATOM     23  C   UNL     1      34.347 -18.989 -23.179  0.00  0.00    +0.001 C 
ATOM     24  C   UNL     1      33.295 -16.597 -24.138  0.00  0.00    +0.084 C 
ATOM     25  C   UNL     1      33.428 -19.002 -24.229  0.00  0.00    +0.038 C 
ATOM     26  C   UNL     1      34.603 -15.288 -22.510  0.00  0.00    +0.006 C 
ATOM     27  C   UNL     1      32.899 -17.806 -24.712  0.00  0.00    +0.147 C 
ATOM     28  C   UNL     1      34.086 -14.148 -22.983  0.00  0.00    +0.058 C 
ATOM     29  C   UNL     1      33.106 -14.150 -24.103  0.00  0.00    +0.250 C 
ATOM     30  H   UNL     1      32.119 -15.420 -25.361  0.00  0.00    +0.155 HD
BRANCH  27  31
ATOM     31  O   UNL     1      32.003 -17.840 -25.737  0.00  0.00    -0.504 OA
ATOM     32  H   UNL     1      31.831 -17.065 -26.234  0.00  0.00    +0.292 HD
ENDBRANCH  27  31
ENDBRANCH  18  21
BRANCH  18  33
ATOM     33  O   UNL     1      35.214 -17.045 -20.404  0.00  0.00    -0.382 OA
ATOM     34  H   UNL     1      34.412 -17.463 -20.053  0.00  0.00    +0.211 HD
ENDBRANCH  18  33
ENDBRANCH   1  18
TORSDOF 8
ENDMDL
MODEL 9
REMARK VINA RESULT:     -12.0      1.629      3.019
REMARK  Name = 6918554
REMARK  8 active torsions:
REMARK  status: ('A' for Active; 'I' for Inactive)
REMARK    1  A    between atoms: C_1  and  N_2
REMARK    2  A    between atoms: C_1  and  C_18
REMARK    3  A    between atoms: N_2  and  C_5
REMARK    4  A    between atoms: C_12  and  C_14
REMARK    5  A    between atoms: C_13  and  C_16
REMARK    6  A    between atoms: C_18  and  C_21
REMARK    7  A    between atoms: C_18  and  O_33
REMARK    8  A    between atoms: C_27  and  O_31
REMARK                            x       y       z     vdW  Elec       q    Type
REMARK                         _______ _______ _______ _____ _____    ______ ____
ROOT
ATOM      1  C   UNL     1      36.072 -19.215 -21.096  0.00  0.00    -0.047 C 
ENDROOT
BRANCH   1   2
ATOM      2  N   UNL     1      34.864 -20.030 -21.054  0.00  0.00    +0.387 N 
ATOM      3  H   UNL     1      34.117 -19.544 -21.550  0.00  0.00    -0.084 HD
ATOM      4  H   UNL     1      35.063 -20.927 -21.494  0.00  0.00    -0.084 HD
BRANCH   2   5
ATOM      5  C   UNL     1      34.445 -20.270 -19.681  0.00  0.00    -0.053 C 
ATOM      6  C   UNL     1      33.119 -21.054 -19.585  0.00  0.00    +0.005 C 
ATOM      7  C   UNL     1      35.486 -21.080 -18.882  0.00  0.00    +0.005 C 
ATOM      8  C   UNL     1      33.271 -21.702 -18.244  0.00  0.00    -0.029 C 
ATOM      9  C   UNL     1      34.613 -21.718 -17.846  0.00  0.00    -0.029 C 
ATOM     10  C   UNL     1      32.285 -22.279 -17.460  0.00  0.00    -0.009 C 
ATOM     11  C   UNL     1      34.997 -22.309 -16.654  0.00  0.00    -0.009 C 
ATOM     12  C   UNL     1      32.662 -22.866 -16.250  0.00  0.00    -0.026 C 
ATOM     13  C   UNL     1      34.008 -22.882 -15.850  0.00  0.00    -0.026 C 
BRANCH  12  14
ATOM     14  C   UNL     1      31.606 -23.486 -15.393  0.00  0.00    +0.026 C 
ATOM     15  C   UNL     1      30.764 -22.441 -14.667  0.00  0.00    +0.005 C 
ENDBRANCH  12  14
BRANCH  13  16
ATOM     16  C   UNL     1      34.409 -23.517 -14.559  0.00  0.00    +0.026 C 
ATOM     17  C   UNL     1      35.115 -24.853 -14.768  0.00  0.00    +0.005 C 
ENDBRANCH  13  16
ENDBRANCH   2   5
ENDBRANCH   1   2
BRANCH   1  18
ATOM     18  C   UNL     1      35.746 -17.776 -21.515  0.00  0.00    +0.112 C 
BRANCH  18  21
ATOM     19  O   UNL     1      32.626 -13.080 -24.577  0.00  0.00    -0.270 OA
ATOM     20  N   UNL     1      32.746 -15.379 -24.649  0.00  0.00    -0.278 N 
ATOM     21  C   UNL     1      34.736 -17.742 -22.641  0.00  0.00    +0.004 C 
ATOM     22  C   UNL     1      34.215 -16.546 -23.115  0.00  0.00    +0.015 C 
ATOM     23  C   UNL     1      34.351 -18.961 -23.184  0.00  0.00    +0.001 C 
ATOM     24  C   UNL     1      33.283 -16.583 -24.160  0.00  0.00    +0.084 C 
ATOM     25  C   UNL     1      33.421 -18.989 -24.224  0.00  0.00    +0.038 C 
ATOM     26  C   UNL     1      34.606 -15.252 -22.561  0.00  0.00    +0.006 C 
ATOM     27  C   UNL     1      32.884 -17.799 -24.715  0.00  0.00    +0.147 C 
ATOM     28  C   UNL     1      34.082 -14.119 -23.043  0.00  0.00    +0.058 C 
ATOM     29  C   UNL     1      33.090 -14.136 -24.152  0.00  0.00    +0.250 C 
ATOM     30  H   UNL     1      32.093 -15.423 -25.384  0.00  0.00    +0.155 HD
BRANCH  27  31
ATOM     31  O   UNL     1      31.977 -17.847 -25.730  0.00  0.00    -0.504 OA
ATOM     32  H   UNL     1      31.602 -18.667 -25.984  0.00  0.00    +0.292 HD
ENDBRANCH  27  31
ENDBRANCH  18  21
BRANCH  18  33
ATOM     33  O   UNL     1      35.207 -17.050 -20.411  0.00  0.00    -0.382 OA
ATOM     34  H   UNL     1      34.395 -17.483 -20.104  0.00  0.00    +0.211 HD
ENDBRANCH  18  33
ENDBRANCH   1  18
TORSDOF 8
ENDMDL
