MODEL 1
REMARK VINA RESULT:     -10.3      0.000      0.000
REMARK  Name = 118572065
REMARK  6 active torsions:
REMARK  status: ('A' for Active; 'I' for Inactive)
REMARK    1  A    between atoms: N_4  and  C_21
REMARK    2  A    between atoms: C_5  and  C_14
REMARK    3  A    between atoms: C_14  and  C_16
REMARK    4  A    between atoms: C_14  and  O_19
REMARK    5  A    between atoms: C_21  and  C_24
REMARK    6  A    between atoms: C_25  and  O_31
REMARK                            x       y       z     vdW  Elec       q    Type
REMARK                         _______ _______ _______ _____ _____    ______ ____
ROOT
ATOM      1 CL   UNL     1      30.282 -23.520 -12.523  0.00  0.00    -0.082 Cl
ATOM      2 CL   UNL     1      32.486 -22.331 -18.257  0.00  0.00    -0.083 Cl
ATOM      3  O   UNL     1      32.872 -23.150 -11.996  0.00  0.00    -0.270 OA
ATOM      4  N   UNL     1      34.672 -23.361 -13.458  0.00  0.00    -0.271 N 
ATOM      5  C   UNL     1      30.116 -23.011 -15.133  0.00  0.00    +0.016 C 
ATOM      6  C   UNL     1      32.381 -23.069 -14.287  0.00  0.00    +0.061 C 
ATOM      7  C   UNL     1      32.875 -22.836 -15.579  0.00  0.00    -0.005 C 
ATOM      8  C   UNL     1      34.352 -22.698 -15.808  0.00  0.00    +0.049 C 
ATOM      9  C   UNL     1      31.003 -23.157 -14.066  0.00  0.00    +0.060 C 
ATOM     10  C   UNL     1      35.106 -23.587 -14.833  0.00  0.00    +0.099 C 
ATOM     11  C   UNL     1      30.601 -22.769 -16.418  0.00  0.00    +0.010 C 
ATOM     12  C   UNL     1      33.320 -23.200 -13.139  0.00  0.00    +0.250 C 
ATOM     13  C   UNL     1      31.974 -22.676 -16.640  0.00  0.00    +0.054 C 
ENDROOT
BRANCH   5  14
ATOM     14  C   UNL     1      28.631 -23.102 -14.966  0.00  0.00    +0.143 C 
BRANCH  14  16
ATOM     15  O   UNL     1      25.923 -22.192 -16.404  0.00  0.00    -0.353 OA
ATOM     16  C   UNL     1      27.937 -21.972 -15.725  0.00  0.00    +0.091 C 
ATOM     17  C   UNL     1      26.535 -21.579 -15.243  0.00  0.00    +0.147 C 
ATOM     18  C   UNL     1      27.222 -22.352 -17.026  0.00  0.00    +0.147 C 
ENDBRANCH  14  16
BRANCH  14  19
ATOM     19  O   UNL     1      28.142 -24.352 -15.461  0.00  0.00    -0.349 OA
ATOM     20  C   UNL     1      28.497 -25.420 -14.598  0.00  0.00    +0.174 C 
ENDBRANCH  14  19
ENDBRANCH   5  14
BRANCH   4  21
ATOM     21  C   UNL     1      35.665 -23.537 -12.410  0.00  0.00    +0.128 C 
BRANCH  21  24
ATOM     22  O   UNL     1      36.586 -26.063 -11.665  0.00  0.00    -0.270 OA
ATOM     23  N   UNL     1      38.437 -26.020 -13.023  0.00  0.00    -0.284 N 
ATOM     24  C   UNL     1      36.908 -24.105 -12.988  0.00  0.00    +0.085 C 
ATOM     25  C   UNL     1      37.710 -23.516 -13.893  0.00  0.00    +0.142 C 
ATOM     26  C   UNL     1      37.280 -25.476 -12.492  0.00  0.00    +0.250 C 
ATOM     27  C   UNL     1      38.903 -24.165 -14.391  0.00  0.00    +0.047 C 
ATOM     28  C   UNL     1      39.236 -25.388 -13.951  0.00  0.00    +0.031 C 
ATOM     29  C   UNL     1      40.448 -26.131 -14.410  0.00  0.00    +0.047 C 
ATOM     30  H   UNL     1      38.707 -26.917 -12.719  0.00  0.00    +0.155 HD
BRANCH  25  31
ATOM     31  O   UNL     1      37.509 -22.270 -14.442  0.00  0.00    -0.472 OA
ATOM     32  C   UNL     1      37.863 -22.258 -15.813  0.00  0.00    +0.252 C 
ENDBRANCH  25  31
ENDBRANCH  21  24
ENDBRANCH   4  21
TORSDOF 6
ENDMDL
MODEL 2
REMARK VINA RESULT:      -9.6      1.109      1.583
REMARK  Name = 118572065
REMARK  6 active torsions:
REMARK  status: ('A' for Active; 'I' for Inactive)
REMARK    1  A    between atoms: N_4  and  C_21
REMARK    2  A    between atoms: C_5  and  C_14
REMARK    3  A    between atoms: C_14  and  C_16
REMARK    4  A    between atoms: C_14  and  O_19
REMARK    5  A    between atoms: C_21  and  C_24
REMARK    6  A    between atoms: C_25  and  O_31
REMARK                            x       y       z     vdW  Elec       q    Type
REMARK                         _______ _______ _______ _____ _____    ______ ____
ROOT
ATOM      1 CL   UNL     1      30.398 -24.037 -12.780  0.00  0.00    -0.082 Cl
ATOM      2 CL   UNL     1      32.833 -21.855 -18.114  0.00  0.00    -0.083 Cl
ATOM      3  O   UNL     1      32.946 -23.692 -12.063  0.00  0.00    -0.270 OA
ATOM      4  N   UNL     1      34.820 -23.611 -13.441  0.00  0.00    -0.271 N 
ATOM      5  C   UNL     1      30.341 -23.106 -15.276  0.00  0.00    +0.016 C 
ATOM      6  C   UNL     1      32.564 -23.245 -14.332  0.00  0.00    +0.061 C 
ATOM      7  C   UNL     1      33.111 -22.788 -15.540  0.00  0.00    -0.005 C 
ATOM      8  C   UNL     1      34.592 -22.575 -15.664  0.00  0.00    +0.049 C 
ATOM      9  C   UNL     1      31.180 -23.404 -14.202  0.00  0.00    +0.060 C 
ATOM     10  C   UNL     1      35.327 -23.594 -14.810  0.00  0.00    +0.099 C 
ATOM     11  C   UNL     1      30.878 -22.642 -16.475  0.00  0.00    +0.010 C 
ATOM     12  C   UNL     1      33.450 -23.540 -13.173  0.00  0.00    +0.250 C 
ATOM     13  C   UNL     1      32.257 -22.477 -16.606  0.00  0.00    +0.054 C 
ENDROOT
BRANCH   5  14
ATOM     14  C   UNL     1      28.854 -23.262 -15.206  0.00  0.00    +0.143 C 
BRANCH  14  16
ATOM     15  O   UNL     1      26.067 -22.282 -16.430  0.00  0.00    -0.353 OA
ATOM     16  C   UNL     1      28.162 -22.174 -16.024  0.00  0.00    +0.091 C 
ATOM     17  C   UNL     1      26.869 -21.591 -15.441  0.00  0.00    +0.147 C 
ATOM     18  C   UNL     1      27.259 -22.642 -17.171  0.00  0.00    +0.147 C 
ENDBRANCH  14  16
BRANCH  14  19
ATOM     19  O   UNL     1      28.455 -24.539 -15.713  0.00  0.00    -0.349 OA
ATOM     20  C   UNL     1      28.214 -25.457 -14.660  0.00  0.00    +0.174 C 
ENDBRANCH  14  19
ENDBRANCH   5  14
BRANCH   4  21
ATOM     21  C   UNL     1      35.767 -23.933 -12.385  0.00  0.00    +0.128 C 
BRANCH  21  24
ATOM     22  O   UNL     1      38.311 -22.874 -11.949  0.00  0.00    -0.270 OA
ATOM     23  N   UNL     1      39.414 -24.461 -13.189  0.00  0.00    -0.284 N 
ATOM     24  C   UNL     1      36.975 -24.565 -12.971  0.00  0.00    +0.085 C 
ATOM     25  C   UNL     1      37.007 -25.665 -13.745  0.00  0.00    +0.142 C 
ATOM     26  C   UNL     1      38.277 -23.883 -12.650  0.00  0.00    +0.250 C 
ATOM     27  C   UNL     1      38.247 -26.196 -14.264  0.00  0.00    +0.047 C 
ATOM     28  C   UNL     1      39.410 -25.590 -13.979  0.00  0.00    +0.031 C 
ATOM     29  C   UNL     1      40.736 -26.069 -14.472  0.00  0.00    +0.047 C 
ATOM     30  H   UNL     1      40.282 -24.038 -12.997  0.00  0.00    +0.155 HD
BRANCH  25  31
ATOM     31  O   UNL     1      35.907 -26.399 -14.127  0.00  0.00    -0.472 OA
ATOM     32  C   UNL     1      36.051 -26.871 -15.454  0.00  0.00    +0.252 C 
ENDBRANCH  25  31
ENDBRANCH  21  24
ENDBRANCH   4  21
TORSDOF 6
ENDMDL
MODEL 3
REMARK VINA RESULT:      -8.9      5.799      8.835
REMARK  Name = 118572065
REMARK  6 active torsions:
REMARK  status: ('A' for Active; 'I' for Inactive)
REMARK    1  A    between atoms: N_4  and  C_21
REMARK    2  A    between atoms: C_5  and  C_14
REMARK    3  A    between atoms: C_14  and  C_16
REMARK    4  A    between atoms: C_14  and  O_19
REMARK    5  A    between atoms: C_21  and  C_24
REMARK    6  A    between atoms: C_25  and  O_31
REMARK                            x       y       z     vdW  Elec       q    Type
REMARK                         _______ _______ _______ _____ _____    ______ ____
ROOT
ATOM      1 CL   UNL     1      36.877 -22.212 -16.913  0.00  0.00    -0.082 Cl
ATOM      2 CL   UNL     1      30.642 -21.941 -17.364  0.00  0.00    -0.083 Cl
ATOM      3  O   UNL     1      36.598 -20.657 -19.064  0.00  0.00    -0.270 OA
ATOM      4  N   UNL     1      34.768 -20.512 -20.496  0.00  0.00    -0.271 N 
ATOM      5  C   UNL     1      34.363 -22.606 -16.121  0.00  0.00    +0.016 C 
ATOM      6  C   UNL     1      34.555 -21.462 -18.243  0.00  0.00    +0.061 C 
ATOM      7  C   UNL     1      33.157 -21.431 -18.359  0.00  0.00    -0.005 C 
ATOM      8  C   UNL     1      32.513 -20.761 -19.537  0.00  0.00    +0.049 C 
ATOM      9  C   UNL     1      35.155 -22.049 -17.125  0.00  0.00    +0.060 C 
ATOM     10  C   UNL     1      33.394 -20.926 -20.764  0.00  0.00    +0.099 C 
ATOM     11  C   UNL     1      32.974 -22.570 -16.226  0.00  0.00    +0.010 C 
ATOM     12  C   UNL     1      35.406 -20.845 -19.297  0.00  0.00    +0.250 C 
ATOM     13  C   UNL     1      32.372 -21.980 -17.337  0.00  0.00    +0.054 C 
ENDROOT
BRANCH   5  14
ATOM     14  C   UNL     1      34.942 -23.258 -14.905  0.00  0.00    +0.143 C 
BRANCH  14  16
ATOM     15  O   UNL     1      33.992 -24.282 -12.028  0.00  0.00    -0.353 OA
ATOM     16  C   UNL     1      34.110 -22.919 -13.669  0.00  0.00    +0.091 C 
ATOM     17  C   UNL     1      34.791 -23.107 -12.307  0.00  0.00    +0.147 C 
ATOM     18  C   UNL     1      33.146 -24.000 -13.169  0.00  0.00    +0.147 C 
ENDBRANCH  14  16
BRANCH  14  19
ATOM     19  O   UNL     1      34.975 -24.680 -15.058  0.00  0.00    -0.349 OA
ATOM     20  C   UNL     1      36.270 -25.194 -14.800  0.00  0.00    +0.174 C 
ENDBRANCH  14  19
ENDBRANCH   5  14
BRANCH   4  21
ATOM     21  C   UNL     1      35.519 -19.941 -21.602  0.00  0.00    +0.128 C 
BRANCH  21  24
ATOM     22  O   UNL     1      36.061 -17.731 -19.988  0.00  0.00    -0.270 OA
ATOM     23  N   UNL     1      34.865 -16.242 -21.263  0.00  0.00    -0.284 N 
ATOM     24  C   UNL     1      34.982 -18.597 -21.931  0.00  0.00    +0.085 C 
ATOM     25  C   UNL     1      34.209 -18.281 -22.986  0.00  0.00    +0.142 C 
ATOM     26  C   UNL     1      35.357 -17.502 -20.970  0.00  0.00    +0.250 C 
ATOM     27  C   UNL     1      33.741 -16.931 -23.210  0.00  0.00    +0.047 C 
ATOM     28  C   UNL     1      34.074 -15.953 -22.354  0.00  0.00    +0.031 C 
ATOM     29  C   UNL     1      33.636 -14.533 -22.508  0.00  0.00    +0.047 C 
ATOM     30  H   UNL     1      35.094 -15.504 -20.653  0.00  0.00    +0.155 HD
BRANCH  25  31
ATOM     31  O   UNL     1      33.780 -19.164 -23.950  0.00  0.00    -0.472 OA
ATOM     32  C   UNL     1      32.816 -18.562 -24.794  0.00  0.00    +0.252 C 
ENDBRANCH  25  31
ENDBRANCH  21  24
ENDBRANCH   4  21
TORSDOF 6
ENDMDL
MODEL 4
REMARK VINA RESULT:      -8.8     13.059     15.705
REMARK  Name = 118572065
REMARK  6 active torsions:
REMARK  status: ('A' for Active; 'I' for Inactive)
REMARK    1  A    between atoms: N_4  and  C_21
REMARK    2  A    between atoms: C_5  and  C_14
REMARK    3  A    between atoms: C_14  and  C_16
REMARK    4  A    between atoms: C_14  and  O_19
REMARK    5  A    between atoms: C_21  and  C_24
REMARK    6  A    between atoms: C_25  and  O_31
REMARK                            x       y       z     vdW  Elec       q    Type
REMARK                         _______ _______ _______ _____ _____    ______ ____
ROOT
ATOM      1 CL   UNL     1      34.470 -14.413 -24.601  0.00  0.00    -0.082 Cl
ATOM      2 CL   UNL     1      32.116 -14.177 -18.808  0.00  0.00    -0.083 Cl
ATOM      3  O   UNL     1      33.723 -11.854 -24.468  0.00  0.00    -0.270 OA
ATOM      4  N   UNL     1      32.124 -10.902 -23.069  0.00  0.00    -0.271 N 
ATOM      5  C   UNL     1      33.933 -15.327 -22.156  0.00  0.00    +0.016 C 
ATOM      6  C   UNL     1      33.130 -13.082 -22.562  0.00  0.00    +0.061 C 
ATOM      7  C   UNL     1      32.574 -13.043 -21.274  0.00  0.00    -0.005 C 
ATOM      8  C   UNL     1      31.885 -11.801 -20.788  0.00  0.00    +0.049 C 
ATOM      9  C   UNL     1      33.809 -14.224 -23.001  0.00  0.00    +0.060 C 
ATOM     10  C   UNL     1      31.204 -11.105 -21.954  0.00  0.00    +0.099 C 
ATOM     11  C   UNL     1      33.391 -15.291 -20.873  0.00  0.00    +0.010 C 
ATOM     12  C   UNL     1      33.024 -11.899 -23.459  0.00  0.00    +0.250 C 
ATOM     13  C   UNL     1      32.719 -14.152 -20.430  0.00  0.00    +0.054 C 
ENDROOT
BRANCH   5  14
ATOM     14  C   UNL     1      34.638 -16.582 -22.567  0.00  0.00    +0.143 C 
BRANCH  14  16
ATOM     15  O   UNL     1      35.821 -19.313 -21.397  0.00  0.00    -0.353 OA
ATOM     16  C   UNL     1      35.307 -17.240 -21.362  0.00  0.00    +0.091 C 
ATOM     17  C   UNL     1      36.553 -18.088 -21.643  0.00  0.00    +0.147 C 
ATOM     18  C   UNL     1      34.701 -18.559 -20.871  0.00  0.00    +0.147 C 
ENDBRANCH  14  16
BRANCH  14  19
ATOM     19  O   UNL     1      33.719 -17.514 -23.144  0.00  0.00    -0.349 OA
ATOM     20  C   UNL     1      33.853 -17.560 -24.555  0.00  0.00    +0.174 C 
ENDBRANCH  14  19
ENDBRANCH   5  14
BRANCH   4  21
ATOM     21  C   UNL     1      31.918  -9.724 -23.896  0.00  0.00    +0.128 C 
BRANCH  21  24
ATOM     22  O   UNL     1      29.720  -8.432 -22.763  0.00  0.00    -0.270 OA
ATOM     23  N   UNL     1      30.948  -6.772 -21.759  0.00  0.00    -0.284 N 
ATOM     24  C   UNL     1      32.084  -8.499 -23.074  0.00  0.00    +0.085 C 
ATOM     25  C   UNL     1      33.244  -7.884 -22.781  0.00  0.00    +0.142 C 
ATOM     26  C   UNL     1      30.810  -7.914 -22.529  0.00  0.00    +0.250 C 
ATOM     27  C   UNL     1      33.288  -6.691 -21.966  0.00  0.00    +0.047 C 
ATOM     28  C   UNL     1      32.154  -6.167 -21.478  0.00  0.00    +0.031 C 
ATOM     29  C   UNL     1      32.107  -4.938 -20.628  0.00  0.00    +0.047 C 
ATOM     30  H   UNL     1      30.132  -6.365 -21.387  0.00  0.00    +0.155 HD
BRANCH  25  31
ATOM     31  O   UNL     1      34.488  -8.293 -23.202  0.00  0.00    -0.472 OA
ATOM     32  C   UNL     1      34.867  -7.620 -24.389  0.00  0.00    +0.252 C 
ENDBRANCH  25  31
ENDBRANCH  21  24
ENDBRANCH   4  21
TORSDOF 6
ENDMDL
MODEL 5
REMARK VINA RESULT:      -8.7      4.578      8.367
REMARK  Name = 118572065
REMARK  6 active torsions:
REMARK  status: ('A' for Active; 'I' for Inactive)
REMARK    1  A    between atoms: N_4  and  C_21
REMARK    2  A    between atoms: C_5  and  C_14
REMARK    3  A    between atoms: C_14  and  C_16
REMARK    4  A    between atoms: C_14  and  O_19
REMARK    5  A    between atoms: C_21  and  C_24
REMARK    6  A    between atoms: C_25  and  O_31
REMARK                            x       y       z     vdW  Elec       q    Type
REMARK                         _______ _______ _______ _____ _____    ______ ____
ROOT
ATOM      1 CL   UNL     1      37.659 -22.259 -15.664  0.00  0.00    -0.082 Cl
ATOM      2 CL   UNL     1      31.503 -23.243 -15.121  0.00  0.00    -0.083 Cl
ATOM      3  O   UNL     1      36.788 -21.282 -17.991  0.00  0.00    -0.270 OA
ATOM      4  N   UNL     1      34.807 -21.789 -19.102  0.00  0.00    -0.271 N 
ATOM      5  C   UNL     1      35.406 -22.928 -14.408  0.00  0.00    +0.016 C 
ATOM      6  C   UNL     1      35.083 -22.253 -16.709  0.00  0.00    +0.061 C 
ATOM      7  C   UNL     1      33.708 -22.506 -16.595  0.00  0.00    -0.005 C 
ATOM      8  C   UNL     1      32.794 -22.236 -17.755  0.00  0.00    +0.049 C 
ATOM      9  C   UNL     1      35.930 -22.465 -15.615  0.00  0.00    +0.060 C 
ATOM     10  C   UNL     1      33.530 -22.496 -19.058  0.00  0.00    +0.099 C 
ATOM     11  C   UNL     1      34.039 -23.172 -14.287  0.00  0.00    +0.010 C 
ATOM     12  C   UNL     1      35.646 -21.733 -17.985  0.00  0.00    +0.250 C 
ATOM     13  C   UNL     1      33.192 -22.956 -15.373  0.00  0.00    +0.054 C 
ENDROOT
BRANCH   5  14
ATOM     14  C   UNL     1      36.258 -23.184 -13.205  0.00  0.00    +0.143 C 
BRANCH  14  16
ATOM     15  O   UNL     1      36.162 -23.870 -10.083  0.00  0.00    -0.353 OA
ATOM     16  C   UNL     1      35.423 -23.089 -11.928  0.00  0.00    +0.091 C 
ATOM     17  C   UNL     1      36.132 -22.551 -10.680  0.00  0.00    +0.147 C 
ATOM     18  C   UNL     1      35.270 -24.373 -11.107  0.00  0.00    +0.147 C 
ENDBRANCH  14  16
BRANCH  14  19
ATOM     19  O   UNL     1      36.847 -24.485 -13.269  0.00  0.00    -0.349 OA
ATOM     20  C   UNL     1      38.244 -24.428 -13.029  0.00  0.00    +0.174 C 
ENDBRANCH  14  19
ENDBRANCH   5  14
BRANCH   4  21
ATOM     21  C   UNL     1      35.275 -21.342 -20.404  0.00  0.00    +0.128 C 
BRANCH  21  24
ATOM     22  O   UNL     1      37.195 -19.317 -20.379  0.00  0.00    -0.270 OA
ATOM     23  N   UNL     1      35.705 -17.612 -20.763  0.00  0.00    -0.284 N 
ATOM     24  C   UNL     1      34.899 -19.921 -20.611  0.00  0.00    +0.085 C 
ATOM     25  C   UNL     1      33.659 -19.446 -20.825  0.00  0.00    +0.142 C 
ATOM     26  C   UNL     1      36.040 -18.942 -20.571  0.00  0.00    +0.250 C 
ATOM     27  C   UNL     1      33.406 -18.034 -21.015  0.00  0.00    +0.047 C 
ATOM     28  C   UNL     1      34.422 -17.159 -20.980  0.00  0.00    +0.031 C 
ATOM     29  C   UNL     1      34.253 -15.686 -21.166  0.00  0.00    +0.047 C 
ATOM     30  H   UNL     1      36.431 -16.946 -20.743  0.00  0.00    +0.155 HD
BRANCH  25  31
ATOM     31  O   UNL     1      32.515 -20.208 -20.889  0.00  0.00    -0.472 OA
ATOM     32  C   UNL     1      31.602 -19.836 -19.872  0.00  0.00    +0.252 C 
ENDBRANCH  25  31
ENDBRANCH  21  24
ENDBRANCH   4  21
TORSDOF 6
ENDMDL
MODEL 6
REMARK VINA RESULT:      -8.4      5.908      8.846
REMARK  Name = 118572065
REMARK  6 active torsions:
REMARK  status: ('A' for Active; 'I' for Inactive)
REMARK    1  A    between atoms: N_4  and  C_21
REMARK    2  A    between atoms: C_5  and  C_14
REMARK    3  A    between atoms: C_14  and  C_16
REMARK    4  A    between atoms: C_14  and  O_19
REMARK    5  A    between atoms: C_21  and  C_24
REMARK    6  A    between atoms: C_25  and  O_31
REMARK                            x       y       z     vdW  Elec       q    Type
REMARK                         _______ _______ _______ _____ _____    ______ ____
ROOT
ATOM      1 CL   UNL     1      36.955 -22.077 -16.545  0.00  0.00    -0.082 Cl
ATOM      2 CL   UNL     1      30.829 -22.077 -17.821  0.00  0.00    -0.083 Cl
ATOM      3  O   UNL     1      36.848 -20.249 -18.487  0.00  0.00    -0.270 OA
ATOM      4  N   UNL     1      35.216 -20.000 -20.127  0.00  0.00    -0.271 N 
ATOM      5  C   UNL     1      34.394 -22.712 -16.170  0.00  0.00    +0.016 C 
ATOM      6  C   UNL     1      34.779 -21.270 -18.074  0.00  0.00    +0.061 C 
ATOM      7  C   UNL     1      33.410 -21.298 -18.378  0.00  0.00    -0.005 C 
ATOM      8  C   UNL     1      32.878 -20.502 -19.535  0.00  0.00    +0.049 C 
ATOM      9  C   UNL     1      35.269 -21.977 -16.971  0.00  0.00    +0.060 C 
ATOM     10  C   UNL     1      33.922 -20.444 -20.637  0.00  0.00    +0.099 C 
ATOM     11  C   UNL     1      33.031 -22.736 -16.463  0.00  0.00    +0.010 C 
ATOM     12  C   UNL     1      35.715 -20.466 -18.907  0.00  0.00    +0.250 C 
ATOM     13  C   UNL     1      32.539 -22.027 -17.558  0.00  0.00    +0.054 C 
ENDROOT
BRANCH   5  14
ATOM     14  C   UNL     1      34.855 -23.498 -14.983  0.00  0.00    +0.143 C 
BRANCH  14  16
ATOM     15  O   UNL     1      34.047 -24.305 -11.996  0.00  0.00    -0.353 OA
ATOM     16  C   UNL     1      34.110 -23.053 -13.725  0.00  0.00    +0.091 C 
ATOM     17  C   UNL     1      34.865 -23.179 -12.396  0.00  0.00    +0.147 C 
ATOM     18  C   UNL     1      33.143 -24.065 -13.102  0.00  0.00    +0.147 C 
ENDBRANCH  14  16
BRANCH  14  19
ATOM     19  O   UNL     1      34.624 -24.896 -15.180  0.00  0.00    -0.349 OA
ATOM     20  C   UNL     1      35.818 -25.641 -15.011  0.00  0.00    +0.174 C 
ENDBRANCH  14  19
ENDBRANCH   5  14
BRANCH   4  21
ATOM     21  C   UNL     1      36.062 -19.239 -21.033  0.00  0.00    +0.128 C 
BRANCH  21  24
ATOM     22  O   UNL     1      35.328 -20.097 -23.584  0.00  0.00    -0.270 OA
ATOM     23  N   UNL     1      34.117 -18.214 -24.097  0.00  0.00    -0.284 N 
ATOM     24  C   UNL     1      35.218 -18.395 -21.916  0.00  0.00    +0.085 C 
ATOM     25  C   UNL     1      34.724 -17.179 -21.625  0.00  0.00    +0.142 C 
ATOM     26  C   UNL     1      34.904 -18.989 -23.262  0.00  0.00    +0.250 C 
ATOM     27  C   UNL     1      33.909 -16.443 -22.566  0.00  0.00    +0.047 C 
ATOM     28  C   UNL     1      33.627 -16.969 -23.767  0.00  0.00    +0.031 C 
ATOM     29  C   UNL     1      32.794 -16.280 -24.798  0.00  0.00    +0.047 C 
ATOM     30  H   UNL     1      33.893 -18.575 -24.986  0.00  0.00    +0.155 HD
BRANCH  25  31
ATOM     31  O   UNL     1      34.922 -16.503 -20.442  0.00  0.00    -0.472 OA
ATOM     32  C   UNL     1      34.139 -15.324 -20.398  0.00  0.00    +0.252 C 
ENDBRANCH  25  31
ENDBRANCH  21  24
ENDBRANCH   4  21
TORSDOF 6
ENDMDL
MODEL 7
REMARK VINA RESULT:      -8.2     16.956     19.251
REMARK  Name = 118572065
REMARK  6 active torsions:
REMARK  status: ('A' for Active; 'I' for Inactive)
REMARK    1  A    between atoms: N_4  and  C_21
REMARK    2  A    between atoms: C_5  and  C_14
REMARK    3  A    between atoms: C_14  and  C_16
REMARK    4  A    between atoms: C_14  and  O_19
REMARK    5  A    between atoms: C_21  and  C_24
REMARK    6  A    between atoms: C_25  and  O_31
REMARK                            x       y       z     vdW  Elec       q    Type
REMARK                         _______ _______ _______ _____ _____    ______ ____
ROOT
ATOM      1 CL   UNL     1      34.598 -10.094 -24.645  0.00  0.00    -0.082 Cl
ATOM      2 CL   UNL     1      29.733 -10.195 -20.710  0.00  0.00    -0.083 Cl
ATOM      3  O   UNL     1      34.661  -7.596 -23.706  0.00  0.00    -0.270 OA
ATOM      4  N   UNL     1      32.917  -6.381 -22.757  0.00  0.00    -0.271 N 
ATOM      5  C   UNL     1      32.621 -11.214 -23.252  0.00  0.00    +0.016 C 
ATOM      6  C   UNL     1      32.832  -8.828 -22.911  0.00  0.00    +0.061 C 
ATOM      7  C   UNL     1      31.721  -8.847 -22.055  0.00  0.00    -0.005 C 
ATOM      8  C   UNL     1      31.269  -7.585 -21.379  0.00  0.00    +0.049 C 
ATOM      9  C   UNL     1      33.280 -10.011 -23.508  0.00  0.00    +0.060 C 
ATOM     10  C   UNL     1      31.535  -6.396 -22.286  0.00  0.00    +0.099 C 
ATOM     11  C   UNL     1      31.522 -11.240 -22.395  0.00  0.00    +0.010 C 
ATOM     12  C   UNL     1      33.558  -7.554 -23.168  0.00  0.00    +0.250 C 
ATOM     13  C   UNL     1      31.077 -10.063 -21.793  0.00  0.00    +0.054 C 
ENDROOT
BRANCH   5  14
ATOM     14  C   UNL     1      33.043 -12.512 -23.866  0.00  0.00    +0.143 C 
BRANCH  14  16
ATOM     15  O   UNL     1      34.579 -14.813 -22.262  0.00  0.00    -0.353 OA
ATOM     16  C   UNL     1      32.888 -13.654 -22.862  0.00  0.00    +0.091 C 
ATOM     17  C   UNL     1      33.878 -13.681 -21.692  0.00  0.00    +0.147 C 
ATOM     18  C   UNL     1      33.526 -14.995 -23.240  0.00  0.00    +0.147 C 
ENDBRANCH  14  16
BRANCH  14  19
ATOM     19  O   UNL     1      32.251 -12.808 -25.020  0.00  0.00    -0.349 OA
ATOM     20  C   UNL     1      33.067 -13.031 -26.158  0.00  0.00    +0.174 C 
ENDBRANCH  14  19
ENDBRANCH   5  14
BRANCH   4  21
ATOM     21  C   UNL     1      33.524  -5.081 -22.998  0.00  0.00    +0.128 C 
BRANCH  21  24
ATOM     22  O   UNL     1      31.702  -3.027 -22.501  0.00  0.00    -0.270 OA
ATOM     23  N   UNL     1      31.194  -2.659 -24.710  0.00  0.00    -0.284 N 
ATOM     24  C   UNL     1      32.814  -4.396 -24.108  0.00  0.00    +0.085 C 
ATOM     25  C   UNL     1      32.944  -4.656 -25.421  0.00  0.00    +0.142 C 
ATOM     26  C   UNL     1      31.863  -3.309 -23.687  0.00  0.00    +0.250 C 
ATOM     27  C   UNL     1      32.200  -3.921 -26.420  0.00  0.00    +0.047 C 
ATOM     28  C   UNL     1      31.351  -2.951 -26.048  0.00  0.00    +0.031 C 
ATOM     29  C   UNL     1      30.543  -2.143 -27.011  0.00  0.00    +0.047 C 
ATOM     30  H   UNL     1      30.564  -1.942 -24.467  0.00  0.00    +0.155 HD
BRANCH  25  31
ATOM     31  O   UNL     1      33.768  -5.615 -25.963  0.00  0.00    -0.472 OA
ATOM     32  C   UNL     1      34.999  -5.049 -26.377  0.00  0.00    +0.252 C 
ENDBRANCH  25  31
ENDBRANCH  21  24
ENDBRANCH   4  21
TORSDOF 6
ENDMDL
MODEL 8
REMARK VINA RESULT:      -8.0      1.184      2.057
REMARK  Name = 118572065
REMARK  6 active torsions:
REMARK  status: ('A' for Active; 'I' for Inactive)
REMARK    1  A    between atoms: N_4  and  C_21
REMARK    2  A    between atoms: C_5  and  C_14
REMARK    3  A    between atoms: C_14  and  C_16
REMARK    4  A    between atoms: C_14  and  O_19
REMARK    5  A    between atoms: C_21  and  C_24
REMARK    6  A    between atoms: C_25  and  O_31
REMARK                            x       y       z     vdW  Elec       q    Type
REMARK                         _______ _______ _______ _____ _____    ______ ____
ROOT
ATOM      1 CL   UNL     1      31.478 -23.341 -13.049  0.00  0.00    -0.082 Cl
ATOM      2 CL   UNL     1      32.945 -22.226 -19.029  0.00  0.00    -0.083 Cl
ATOM      3  O   UNL     1      34.001 -22.508 -12.799  0.00  0.00    -0.270 OA
ATOM      4  N   UNL     1      35.678 -22.524 -14.413  0.00  0.00    -0.271 N 
ATOM      5  C   UNL     1      31.004 -23.060 -15.657  0.00  0.00    +0.016 C 
ATOM      6  C   UNL     1      33.309 -22.679 -15.032  0.00  0.00    +0.061 C 
ATOM      7  C   UNL     1      33.643 -22.462 -16.377  0.00  0.00    -0.005 C 
ATOM      8  C   UNL     1      35.049 -22.097 -16.756  0.00  0.00    +0.049 C 
ATOM      9  C   UNL     1      31.991 -22.977 -14.674  0.00  0.00    +0.060 C 
ATOM     10  C   UNL     1      36.025 -22.774 -15.809  0.00  0.00    +0.099 C 
ATOM     11  C   UNL     1      31.328 -22.836 -16.994  0.00  0.00    +0.010 C 
ATOM     12  C   UNL     1      34.351 -22.566 -13.975  0.00  0.00    +0.250 C 
ATOM     13  C   UNL     1      32.641 -22.532 -17.353  0.00  0.00    +0.054 C 
ENDROOT
BRANCH   5  14
ATOM     14  C   UNL     1      29.577 -23.384 -15.342  0.00  0.00    +0.143 C 
BRANCH  14  16
ATOM     15  O   UNL     1      26.517 -22.682 -15.947  0.00  0.00    -0.353 OA
ATOM     16  C   UNL     1      28.634 -22.506 -16.163  0.00  0.00    +0.091 C 
ATOM     17  C   UNL     1      27.517 -21.790 -15.396  0.00  0.00    +0.147 C 
ATOM     18  C   UNL     1      27.484 -23.216 -16.885  0.00  0.00    +0.147 C 
ENDBRANCH  14  16
BRANCH  14  19
ATOM     19  O   UNL     1      29.294 -24.756 -15.634  0.00  0.00    -0.349 OA
ATOM     20  C   UNL     1      28.968 -25.474 -14.455  0.00  0.00    +0.174 C 
ENDBRANCH  14  19
ENDBRANCH   5  14
BRANCH   4  21
ATOM     21  C   UNL     1      36.773 -22.455 -13.457  0.00  0.00    +0.128 C 
BRANCH  21  24
ATOM     22  O   UNL     1      38.674 -22.536 -15.499  0.00  0.00    -0.270 OA
ATOM     23  N   UNL     1      39.479 -24.616 -14.952  0.00  0.00    -0.284 N 
ATOM     24  C   UNL     1      37.665 -23.628 -13.633  0.00  0.00    +0.085 C 
ATOM     25  C   UNL     1      37.678 -24.742 -12.880  0.00  0.00    +0.142 C 
ATOM     26  C   UNL     1      38.639 -23.529 -14.776  0.00  0.00    +0.250 C 
ATOM     27  C   UNL     1      38.596 -25.829 -13.142  0.00  0.00    +0.047 C 
ATOM     28  C   UNL     1      39.466 -25.743 -14.160  0.00  0.00    +0.031 C 
ATOM     29  C   UNL     1      40.448 -26.816 -14.503  0.00  0.00    +0.047 C 
ATOM     30  H   UNL     1      40.129 -24.581 -15.691  0.00  0.00    +0.155 HD
BRANCH  25  31
ATOM     31  O   UNL     1      36.854 -24.984 -11.805  0.00  0.00    -0.472 OA
ATOM     32  C   UNL     1      36.787 -23.854 -10.954  0.00  0.00    +0.252 C 
ENDBRANCH  25  31
ENDBRANCH  21  24
ENDBRANCH   4  21
TORSDOF 6
ENDMDL
MODEL 9
REMARK VINA RESULT:      -7.9     16.947     19.302
REMARK  Name = 118572065
REMARK  6 active torsions:
REMARK  status: ('A' for Active; 'I' for Inactive)
REMARK    1  A    between atoms: N_4  and  C_21
REMARK    2  A    between atoms: C_5  and  C_14
REMARK    3  A    between atoms: C_14  and  C_16
REMARK    4  A    between atoms: C_14  and  O_19
REMARK    5  A    between atoms: C_21  and  C_24
REMARK    6  A    between atoms: C_25  and  O_31
REMARK                            x       y       z     vdW  Elec       q    Type
REMARK                         _______ _______ _______ _____ _____    ______ ____
ROOT
ATOM      1 CL   UNL     1      34.646 -10.203 -24.747  0.00  0.00    -0.082 Cl
ATOM      2 CL   UNL     1      29.870 -10.124 -20.705  0.00  0.00    -0.083 Cl
ATOM      3  O   UNL     1      34.793  -7.694 -23.847  0.00  0.00    -0.270 OA
ATOM      4  N   UNL     1      33.101  -6.422 -22.879  0.00  0.00    -0.271 N 
ATOM      5  C   UNL     1      32.673 -11.252 -23.294  0.00  0.00    +0.016 C 
ATOM      6  C   UNL     1      32.952  -8.868 -22.993  0.00  0.00    +0.061 C 
ATOM      7  C   UNL     1      31.860  -8.846 -22.113  0.00  0.00    -0.005 C 
ATOM      8  C   UNL     1      31.455  -7.564 -21.447  0.00  0.00    +0.049 C 
ATOM      9  C   UNL     1      33.357 -10.071 -23.582  0.00  0.00    +0.060 C 
ATOM     10  C   UNL     1      31.731  -6.395 -22.377  0.00  0.00    +0.099 C 
ATOM     11  C   UNL     1      31.593 -11.238 -22.413  0.00  0.00    +0.010 C 
ATOM     12  C   UNL     1      33.703  -7.616 -23.286  0.00  0.00    +0.250 C 
ATOM     13  C   UNL     1      31.191 -10.042 -21.819  0.00  0.00    +0.054 C 
ENDROOT
BRANCH   5  14
ATOM     14  C   UNL     1      33.049 -12.569 -23.897  0.00  0.00    +0.143 C 
BRANCH  14  16
ATOM     15  O   UNL     1      34.566 -14.823 -22.211  0.00  0.00    -0.353 OA
ATOM     16  C   UNL     1      32.880 -13.693 -22.876  0.00  0.00    +0.091 C 
ATOM     17  C   UNL     1      33.840 -13.688 -21.681  0.00  0.00    +0.147 C 
ATOM     18  C   UNL     1      33.540 -15.035 -23.212  0.00  0.00    +0.147 C 
ENDBRANCH  14  16
BRANCH  14  19
ATOM     19  O   UNL     1      32.229 -12.858 -25.034  0.00  0.00    -0.349 OA
ATOM     20  C   UNL     1      33.016 -13.039 -26.200  0.00  0.00    +0.174 C 
ENDBRANCH  14  19
ENDBRANCH   5  14
BRANCH   4  21
ATOM     21  C   UNL     1      33.735  -5.142 -23.153  0.00  0.00    +0.128 C 
BRANCH  21  24
ATOM     22  O   UNL     1      33.932  -5.336 -25.929  0.00  0.00    -0.270 OA
ATOM     23  N   UNL     1      32.282  -3.799 -26.364  0.00  0.00    -0.284 N 
ATOM     24  C   UNL     1      32.866  -4.334 -24.045  0.00  0.00    +0.085 C 
ATOM     25  C   UNL     1      31.925  -3.453 -23.661  0.00  0.00    +0.142 C 
ATOM     26  C   UNL     1      33.086  -4.545 -25.519  0.00  0.00    +0.250 C 
ATOM     27  C   UNL     1      31.132  -2.718 -24.622  0.00  0.00    +0.047 C 
ATOM     28  C   UNL     1      31.326  -2.904 -25.936  0.00  0.00    +0.031 C 
ATOM     29  C   UNL     1      30.553  -2.189 -26.997  0.00  0.00    +0.047 C 
ATOM     30  H   UNL     1      32.401  -3.916 -27.335  0.00  0.00    +0.155 HD
BRANCH  25  31
ATOM     31  O   UNL     1      31.606  -3.149 -22.358  0.00  0.00    -0.472 OA
ATOM     32  C   UNL     1      30.208  -2.978 -22.206  0.00  0.00    +0.252 C 
ENDBRANCH  25  31
ENDBRANCH  21  24
ENDBRANCH   4  21
TORSDOF 6
ENDMDL
