MODEL 1
REMARK VINA RESULT:     -12.9      0.000      0.000
REMARK  Name = 11689883
REMARK  5 active torsions:
REMARK  status: ('A' for Active; 'I' for Inactive)
REMARK    1  A    between atoms: C_2  and  C_21
REMARK    2  A    between atoms: C_5  and  N_9
REMARK    3  A    between atoms: N_10  and  C_15
REMARK    4  A    between atoms: C_21  and  N_23
REMARK    5  A    between atoms: C_29  and  O_31
REMARK                            x       y       z     vdW  Elec       q    Type
REMARK                         _______ _______ _______ _____ _____    ______ ____
ROOT
ATOM      1  F   UNL     1      35.418 -16.471 -21.360  0.00  0.00    -0.203 F 
ATOM      2  C   UNL     1      34.202 -16.258 -23.383  0.00  0.00    -0.014 C 
ATOM      3  C   UNL     1      34.758 -17.041 -22.381  0.00  0.00    +0.147 C 
ATOM      4  C   UNL     1      33.516 -16.836 -24.443  0.00  0.00    -0.004 C 
ATOM      5  C   UNL     1      34.628 -18.429 -22.440  0.00  0.00    +0.079 C 
ATOM      6  C   UNL     1      33.386 -18.223 -24.502  0.00  0.00    +0.001 C 
ATOM      7  C   UNL     1      33.942 -19.020 -23.501  0.00  0.00    +0.017 C 
ENDROOT
BRANCH   5   9
ATOM      8  O   UNL     1      33.337 -19.756 -20.097  0.00  0.00    -0.252 OA
ATOM      9  N   UNL     1      35.183 -19.227 -21.440  0.00  0.00    -0.266 N 
ATOM     10  N   UNL     1      35.470 -20.560 -19.575  0.00  0.00    -0.267 N 
ATOM     11  C   UNL     1      34.536 -19.842 -20.339  0.00  0.00    +0.308 C 
ATOM     12  H   UNL     1      36.153 -19.385 -21.507  0.00  0.00    +0.156 HD
ATOM     13  H   UNL     1      36.401 -20.536 -19.896  0.00  0.00    +0.156 HD
BRANCH  10  15
ATOM     14  N   UNL     1      33.787 -22.761 -17.154  0.00  0.00    -0.247 NA
ATOM     15  C   UNL     1      35.238 -21.312 -18.399  0.00  0.00    +0.071 C 
ATOM     16  C   UNL     1      36.181 -21.339 -17.394  0.00  0.00    +0.018 C 
ATOM     17  C   UNL     1      34.071 -22.023 -18.251  0.00  0.00    +0.113 C 
ATOM     18  C   UNL     1      35.926 -22.087 -16.250  0.00  0.00    +0.016 C 
ATOM     19  C   UNL     1      34.724 -22.773 -16.180  0.00  0.00    +0.059 C 
ATOM     20  C   UNL     1      34.416 -23.587 -14.967  0.00  0.00    +0.052 C 
ENDBRANCH  10  15
ENDBRANCH   5   9
BRANCH   2  21
ATOM     21  C   UNL     1      34.340 -14.761 -23.322  0.00  0.00    -0.047 C 
BRANCH  21  23
ATOM     22  O   UNL     1      31.547 -10.704 -19.465  0.00  0.00    -0.226 OA
ATOM     23  N   UNL     1      33.177 -14.131 -22.696  0.00  0.00    +0.392 N 
ATOM     24  N   UNL     1      31.754 -12.049 -21.349  0.00  0.00    -0.250 N 
ATOM     25  C   UNL     1      33.447 -13.841 -21.280  0.00  0.00    -0.055 C 
ATOM     26  C   UNL     1      32.808 -12.901 -23.413  0.00  0.00    -0.055 C 
ATOM     27  C   UNL     1      32.223 -13.220 -20.611  0.00  0.00    +0.074 C 
ATOM     28  C   UNL     1      31.571 -12.255 -22.787  0.00  0.00    +0.074 C 
ATOM     29  C   UNL     1      31.395 -10.881 -20.673  0.00  0.00    +0.405 C 
ATOM     30  H   UNL     1      32.394 -14.782 -22.748  0.00  0.00    -0.079 HD
BRANCH  29  31
ATOM     31  O   UNL     1      30.846  -9.939 -21.503  0.00  0.00    -0.430 OA
ATOM     32  C   UNL     1      31.370  -8.611 -21.384  0.00  0.00    +0.257 C 
ENDBRANCH  29  31
ENDBRANCH  21  23
ENDBRANCH   2  21
TORSDOF 5
ENDMDL
MODEL 2
REMARK VINA RESULT:     -11.9      3.752     11.213
REMARK  Name = 11689883
REMARK  5 active torsions:
REMARK  status: ('A' for Active; 'I' for Inactive)
REMARK    1  A    between atoms: C_2  and  C_21
REMARK    2  A    between atoms: C_5  and  N_9
REMARK    3  A    between atoms: N_10  and  C_15
REMARK    4  A    between atoms: C_21  and  N_23
REMARK    5  A    between atoms: C_29  and  O_31
REMARK                            x       y       z     vdW  Elec       q    Type
REMARK                         _______ _______ _______ _____ _____    ______ ____
ROOT
ATOM      1  F   UNL     1      36.729 -20.287 -18.452  0.00  0.00    -0.203 F 
ATOM      2  C   UNL     1      35.337 -21.837 -17.322  0.00  0.00    -0.014 C 
ATOM      3  C   UNL     1      35.607 -21.024 -18.414  0.00  0.00    +0.147 C 
ATOM      4  C   UNL     1      34.181 -22.604 -17.271  0.00  0.00    -0.004 C 
ATOM      5  C   UNL     1      34.704 -20.978 -19.476  0.00  0.00    +0.079 C 
ATOM      6  C   UNL     1      33.279 -22.558 -18.333  0.00  0.00    +0.001 C 
ATOM      7  C   UNL     1      33.540 -21.744 -19.436  0.00  0.00    +0.017 C 
ENDROOT
BRANCH   5   9
ATOM      8  O   UNL     1      33.160 -18.668 -20.571  0.00  0.00    -0.252 OA
ATOM      9  N   UNL     1      34.963 -20.165 -20.580  0.00  0.00    -0.266 N 
ATOM     10  N   UNL     1      34.824 -18.532 -22.208  0.00  0.00    -0.267 N 
ATOM     11  C   UNL     1      34.205 -19.073 -21.071  0.00  0.00    +0.308 C 
ATOM     12  H   UNL     1      35.781 -20.377 -21.086  0.00  0.00    +0.156 HD
ATOM     13  H   UNL     1      35.662 -18.966 -22.492  0.00  0.00    +0.156 HD
BRANCH  10  15
ATOM     14  N   UNL     1      33.255 -16.657 -24.958  0.00  0.00    -0.247 NA
ATOM     15  C   UNL     1      34.395 -17.438 -22.997  0.00  0.00    +0.071 C 
ATOM     16  C   UNL     1      34.676 -16.146 -22.606  0.00  0.00    +0.018 C 
ATOM     17  C   UNL     1      33.694 -17.656 -24.159  0.00  0.00    +0.113 C 
ATOM     18  C   UNL     1      34.241 -15.092 -23.402  0.00  0.00    +0.016 C 
ATOM     19  C   UNL     1      33.542 -15.399 -24.558  0.00  0.00    +0.059 C 
ATOM     20  C   UNL     1      33.060 -14.292 -25.436  0.00  0.00    +0.052 C 
ENDBRANCH  10  15
ENDBRANCH   5   9
BRANCH   2  21
ATOM     21  C   UNL     1      36.309 -21.890 -16.174  0.00  0.00    -0.047 C 
BRANCH  21  23
ATOM     22  O   UNL     1      37.575 -25.633 -11.324  0.00  0.00    -0.226 OA
ATOM     23  N   UNL     1      36.093 -23.066 -15.331  0.00  0.00    +0.392 N 
ATOM     24  N   UNL     1      36.242 -24.612 -12.930  0.00  0.00    -0.250 N 
ATOM     25  C   UNL     1      37.378 -23.624 -14.884  0.00  0.00    -0.055 C 
ATOM     26  C   UNL     1      35.249 -22.725 -14.176  0.00  0.00    -0.055 C 
ATOM     27  C   UNL     1      37.160 -24.875 -14.035  0.00  0.00    +0.074 C 
ATOM     28  C   UNL     1      34.988 -23.957 -13.308  0.00  0.00    +0.074 C 
ATOM     29  C   UNL     1      36.523 -25.083 -11.646  0.00  0.00    +0.405 C 
ATOM     30  H   UNL     1      35.611 -23.773 -15.885  0.00  0.00    -0.079 HD
BRANCH  29  31
ATOM     31  O   UNL     1      35.493 -24.869 -10.768  0.00  0.00    -0.430 OA
ATOM     32  C   UNL     1      35.598 -23.702  -9.945  0.00  0.00    +0.257 C 
ENDBRANCH  29  31
ENDBRANCH  21  23
ENDBRANCH   2  21
TORSDOF 5
ENDMDL
MODEL 3
REMARK VINA RESULT:     -11.7      2.078      9.795
REMARK  Name = 11689883
REMARK  5 active torsions:
REMARK  status: ('A' for Active; 'I' for Inactive)
REMARK    1  A    between atoms: C_2  and  C_21
REMARK    2  A    between atoms: C_5  and  N_9
REMARK    3  A    between atoms: N_10  and  C_15
REMARK    4  A    between atoms: C_21  and  N_23
REMARK    5  A    between atoms: C_29  and  O_31
REMARK                            x       y       z     vdW  Elec       q    Type
REMARK                         _______ _______ _______ _____ _____    ______ ____
ROOT
ATOM      1  F   UNL     1      34.932 -15.564 -21.652  0.00  0.00    -0.203 F 
ATOM      2  C   UNL     1      34.547 -17.765 -22.441  0.00  0.00    -0.014 C 
ATOM      3  C   UNL     1      34.438 -16.389 -22.589  0.00  0.00    +0.147 C 
ATOM      4  C   UNL     1      34.042 -18.628 -23.404  0.00  0.00    -0.004 C 
ATOM      5  C   UNL     1      33.811 -15.866 -23.720  0.00  0.00    +0.079 C 
ATOM      6  C   UNL     1      33.414 -18.106 -24.534  0.00  0.00    +0.001 C 
ATOM      7  C   UNL     1      33.298 -16.725 -24.693  0.00  0.00    +0.017 C 
ENDROOT
BRANCH   5   9
ATOM      8  O   UNL     1      32.430 -13.841 -22.014  0.00  0.00    -0.252 OA
ATOM      9  N   UNL     1      33.693 -14.485 -23.880  0.00  0.00    -0.266 N 
ATOM     10  N   UNL     1      33.155 -12.259 -23.578  0.00  0.00    -0.267 N 
ATOM     11  C   UNL     1      33.028 -13.553 -23.046  0.00  0.00    +0.308 C 
ATOM     12  H   UNL     1      34.130 -14.109 -24.678  0.00  0.00    +0.156 HD
ATOM     13  H   UNL     1      33.665 -12.185 -24.417  0.00  0.00    +0.156 HD
BRANCH  10  15
ATOM     14  N   UNL     1      32.760  -8.656 -22.951  0.00  0.00    -0.247 NA
ATOM     15  C   UNL     1      32.639 -11.049 -23.056  0.00  0.00    +0.071 C 
ATOM     16  C   UNL     1      31.570 -11.067 -22.187  0.00  0.00    +0.018 C 
ATOM     17  C   UNL     1      33.202  -9.847 -23.413  0.00  0.00    +0.113 C 
ATOM     18  C   UNL     1      31.085  -9.861 -21.691  0.00  0.00    +0.016 C 
ATOM     19  C   UNL     1      31.711  -8.694 -22.099  0.00  0.00    +0.059 C 
ATOM     20  C   UNL     1      31.218  -7.382 -21.587  0.00  0.00    +0.052 C 
ENDBRANCH  10  15
ENDBRANCH   5   9
BRANCH   2  21
ATOM     21  C   UNL     1      35.225 -18.333 -21.223  0.00  0.00    -0.047 C 
BRANCH  21  23
ATOM     22  O   UNL     1      33.801 -22.840 -17.126  0.00  0.00    -0.226 OA
ATOM     23  N   UNL     1      34.657 -19.624 -20.836  0.00  0.00    +0.392 N 
ATOM     24  N   UNL     1      33.537 -21.541 -19.034  0.00  0.00    -0.250 N 
ATOM     25  C   UNL     1      35.501 -20.277 -19.825  0.00  0.00    -0.055 C 
ATOM     26  C   UNL     1      33.286 -19.454 -20.331  0.00  0.00    -0.055 C 
ATOM     27  C   UNL     1      34.935 -21.644 -19.445  0.00  0.00    +0.074 C 
ATOM     28  C   UNL     1      32.671 -20.804 -19.957  0.00  0.00    +0.074 C 
ATOM     29  C   UNL     1      33.077 -22.220 -17.904  0.00  0.00    +0.405 C 
ATOM     30  H   UNL     1      34.625 -20.221 -21.662  0.00  0.00    -0.079 HD
BRANCH  29  31
ATOM     31  O   UNL     1      31.719 -22.127 -17.748  0.00  0.00    -0.430 OA
ATOM     32  C   UNL     1      31.201 -22.535 -16.477  0.00  0.00    +0.257 C 
ENDBRANCH  29  31
ENDBRANCH  21  23
ENDBRANCH   2  21
TORSDOF 5
ENDMDL
MODEL 4
REMARK VINA RESULT:     -11.7      2.392      3.801
REMARK  Name = 11689883
REMARK  5 active torsions:
REMARK  status: ('A' for Active; 'I' for Inactive)
REMARK    1  A    between atoms: C_2  and  C_21
REMARK    2  A    between atoms: C_5  and  N_9
REMARK    3  A    between atoms: N_10  and  C_15
REMARK    4  A    between atoms: C_21  and  N_23
REMARK    5  A    between atoms: C_29  and  O_31
REMARK                            x       y       z     vdW  Elec       q    Type
REMARK                         _______ _______ _______ _____ _____    ______ ____
ROOT
ATOM      1  F   UNL     1      36.902 -19.119 -20.630  0.00  0.00    -0.203 F 
ATOM      2  C   UNL     1      34.732 -19.092 -21.581  0.00  0.00    -0.014 C 
ATOM      3  C   UNL     1      35.609 -19.476 -20.577  0.00  0.00    +0.147 C 
ATOM      4  C   UNL     1      33.392 -19.454 -21.537  0.00  0.00    -0.004 C 
ATOM      5  C   UNL     1      35.138 -20.239 -19.507  0.00  0.00    +0.079 C 
ATOM      6  C   UNL     1      32.922 -20.216 -20.468  0.00  0.00    +0.001 C 
ATOM      7  C   UNL     1      33.794 -20.609 -19.453  0.00  0.00    +0.017 C 
ENDROOT
BRANCH   5   9
ATOM      8  O   UNL     1      34.768 -22.241 -17.323  0.00  0.00    -0.252 OA
ATOM      9  N   UNL     1      36.009 -20.633 -18.492  0.00  0.00    -0.266 N 
ATOM     10  N   UNL     1      36.937 -21.680 -16.653  0.00  0.00    -0.267 N 
ATOM     11  C   UNL     1      35.798 -21.590 -17.468  0.00  0.00    +0.308 C 
ATOM     12  H   UNL     1      36.887 -20.188 -18.484  0.00  0.00    +0.156 HD
ATOM     13  H   UNL     1      37.689 -21.092 -16.896  0.00  0.00    +0.156 HD
BRANCH  10  15
ATOM     14  N   UNL     1      36.414 -23.209 -13.348  0.00  0.00    -0.247 NA
ATOM     15  C   UNL     1      37.138 -22.511 -15.526  0.00  0.00    +0.071 C 
ATOM     16  C   UNL     1      38.198 -23.392 -15.492  0.00  0.00    +0.018 C 
ATOM     17  C   UNL     1      36.279 -22.445 -14.455  0.00  0.00    +0.113 C 
ATOM     18  C   UNL     1      38.370 -24.196 -14.370  0.00  0.00    +0.016 C 
ATOM     19  C   UNL     1      37.459 -24.066 -13.334  0.00  0.00    +0.059 C 
ATOM     20  C   UNL     1      37.613 -24.913 -12.115  0.00  0.00    +0.052 C 
ENDBRANCH  10  15
ENDBRANCH   5   9
BRANCH   2  21
ATOM     21  C   UNL     1      35.235 -18.268 -22.736  0.00  0.00    -0.047 C 
BRANCH  21  23
ATOM     22  O   UNL     1      32.131 -12.842 -22.955  0.00  0.00    -0.226 OA
ATOM     23  N   UNL     1      35.078 -16.834 -22.493  0.00  0.00    +0.392 N 
ATOM     24  N   UNL     1      33.624 -14.404 -22.101  0.00  0.00    -0.250 N 
ATOM     25  C   UNL     1      34.384 -16.193 -23.619  0.00  0.00    -0.055 C 
ATOM     26  C   UNL     1      34.348 -16.601 -21.237  0.00  0.00    -0.055 C 
ATOM     27  C   UNL     1      34.252 -14.688 -23.389  0.00  0.00    +0.074 C 
ATOM     28  C   UNL     1      34.211 -15.103 -20.956  0.00  0.00    +0.074 C 
ATOM     29  C   UNL     1      32.626 -13.432 -21.996  0.00  0.00    +0.405 C 
ATOM     30  H   UNL     1      36.006 -16.420 -22.408  0.00  0.00    -0.079 HD
BRANCH  29  31
ATOM     31  O   UNL     1      32.253 -13.196 -20.700  0.00  0.00    -0.430 OA
ATOM     32  C   UNL     1      31.620 -11.937 -20.445  0.00  0.00    +0.257 C 
ENDBRANCH  29  31
ENDBRANCH  21  23
ENDBRANCH   2  21
TORSDOF 5
ENDMDL
MODEL 5
REMARK VINA RESULT:     -11.3      2.760      4.221
REMARK  Name = 11689883
REMARK  5 active torsions:
REMARK  status: ('A' for Active; 'I' for Inactive)
REMARK    1  A    between atoms: C_2  and  C_21
REMARK    2  A    between atoms: C_5  and  N_9
REMARK    3  A    between atoms: N_10  and  C_15
REMARK    4  A    between atoms: C_21  and  N_23
REMARK    5  A    between atoms: C_29  and  O_31
REMARK                            x       y       z     vdW  Elec       q    Type
REMARK                         _______ _______ _______ _____ _____    ______ ____
ROOT
ATOM      1  F   UNL     1      36.980 -18.967 -20.229  0.00  0.00    -0.203 F 
ATOM      2  C   UNL     1      34.865 -18.968 -21.298  0.00  0.00    -0.014 C 
ATOM      3  C   UNL     1      35.719 -19.421 -20.302  0.00  0.00    +0.147 C 
ATOM      4  C   UNL     1      33.558 -19.430 -21.383  0.00  0.00    -0.004 C 
ATOM      5  C   UNL     1      35.258 -20.354 -19.373  0.00  0.00    +0.079 C 
ATOM      6  C   UNL     1      33.098 -20.363 -20.454  0.00  0.00    +0.001 C 
ATOM      7  C   UNL     1      33.947 -20.826 -19.449  0.00  0.00    +0.017 C 
ENDROOT
BRANCH   5   9
ATOM      8  O   UNL     1      34.708 -22.199 -17.090  0.00  0.00    -0.252 OA
ATOM      9  N   UNL     1      36.106 -20.819 -18.367  0.00  0.00    -0.266 N 
ATOM     10  N   UNL     1      36.955 -21.903 -16.512  0.00  0.00    -0.267 N 
ATOM     11  C   UNL     1      35.809 -21.697 -17.296  0.00  0.00    +0.308 C 
ATOM     12  H   UNL     1      37.035 -20.493 -18.406  0.00  0.00    +0.156 HD
ATOM     13  H   UNL     1      37.768 -21.430 -16.804  0.00  0.00    +0.156 HD
BRANCH  10  15
ATOM     14  N   UNL     1      38.405 -24.255 -14.082  0.00  0.00    -0.247 NA
ATOM     15  C   UNL     1      37.086 -22.707 -15.355  0.00  0.00    +0.071 C 
ATOM     16  C   UNL     1      36.081 -22.736 -14.412  0.00  0.00    +0.018 C 
ATOM     17  C   UNL     1      38.216 -23.465 -15.164  0.00  0.00    +0.113 C 
ATOM     18  C   UNL     1      36.239 -23.535 -13.285  0.00  0.00    +0.016 C 
ATOM     19  C   UNL     1      37.408 -24.269 -13.169  0.00  0.00    +0.059 C 
ATOM     20  C   UNL     1      37.611 -25.139 -11.973  0.00  0.00    +0.052 C 
ENDBRANCH  10  15
ENDBRANCH   5   9
BRANCH   2  21
ATOM     21  C   UNL     1      35.358 -17.961 -22.301  0.00  0.00    -0.047 C 
BRANCH  21  23
ATOM     22  O   UNL     1      33.261 -12.338 -24.067  0.00  0.00    -0.226 OA
ATOM     23  N   UNL     1      34.314 -17.005 -22.672  0.00  0.00    +0.392 N 
ATOM     24  N   UNL     1      33.256 -14.656 -23.912  0.00  0.00    -0.250 N 
ATOM     25  C   UNL     1      34.613 -15.675 -22.122  0.00  0.00    -0.055 C 
ATOM     26  C   UNL     1      34.172 -16.938 -24.135  0.00  0.00    -0.055 C 
ATOM     27  C   UNL     1      33.506 -14.682 -22.473  0.00  0.00    +0.074 C 
ATOM     28  C   UNL     1      33.058 -15.968 -24.531  0.00  0.00    +0.074 C 
ATOM     29  C   UNL     1      33.096 -13.442 -24.583  0.00  0.00    +0.405 C 
ATOM     30  H   UNL     1      33.431 -17.326 -22.277  0.00  0.00    -0.079 HD
BRANCH  29  31
ATOM     31  O   UNL     1      32.728 -13.607 -25.892  0.00  0.00    -0.430 OA
ATOM     32  C   UNL     1      32.071 -12.493 -26.508  0.00  0.00    +0.257 C 
ENDBRANCH  29  31
ENDBRANCH  21  23
ENDBRANCH   2  21
TORSDOF 5
ENDMDL
MODEL 6
REMARK VINA RESULT:     -10.9      2.956     10.331
REMARK  Name = 11689883
REMARK  5 active torsions:
REMARK  status: ('A' for Active; 'I' for Inactive)
REMARK    1  A    between atoms: C_2  and  C_21
REMARK    2  A    between atoms: C_5  and  N_9
REMARK    3  A    between atoms: N_10  and  C_15
REMARK    4  A    between atoms: C_21  and  N_23
REMARK    5  A    between atoms: C_29  and  O_31
REMARK                            x       y       z     vdW  Elec       q    Type
REMARK                         _______ _______ _______ _____ _____    ______ ____
ROOT
ATOM      1  F   UNL     1      32.466 -20.072 -20.519  0.00  0.00    -0.203 F 
ATOM      2  C   UNL     1      34.114 -21.216 -19.258  0.00  0.00    -0.014 C 
ATOM      3  C   UNL     1      33.751 -20.231 -20.166  0.00  0.00    +0.147 C 
ATOM      4  C   UNL     1      35.440 -21.389 -18.885  0.00  0.00    -0.004 C 
ATOM      5  C   UNL     1      34.733 -19.404 -20.712  0.00  0.00    +0.079 C 
ATOM      6  C   UNL     1      36.421 -20.563 -19.431  0.00  0.00    +0.001 C 
ATOM      7  C   UNL     1      36.068 -19.570 -20.345  0.00  0.00    +0.017 C 
ENDROOT
BRANCH   5   9
ATOM      8  O   UNL     1      34.570 -16.442 -20.369  0.00  0.00    -0.252 OA
ATOM      9  N   UNL     1      34.382 -18.410 -21.627  0.00  0.00    -0.266 N 
ATOM     10  N   UNL     1      33.918 -16.374 -22.614  0.00  0.00    -0.267 N 
ATOM     11  C   UNL     1      34.316 -17.009 -21.427  0.00  0.00    +0.308 C 
ATOM     12  H   UNL     1      34.149 -18.723 -22.531  0.00  0.00    +0.156 HD
ATOM     13  H   UNL     1      33.749 -16.964 -23.384  0.00  0.00    +0.156 HD
BRANCH  10  15
ATOM     14  N   UNL     1      33.142 -13.231 -24.362  0.00  0.00    -0.247 NA
ATOM     15  C   UNL     1      33.730 -14.990 -22.841  0.00  0.00    +0.071 C 
ATOM     16  C   UNL     1      33.940 -14.084 -21.823  0.00  0.00    +0.018 C 
ATOM     17  C   UNL     1      33.338 -14.538 -24.078  0.00  0.00    +0.113 C 
ATOM     18  C   UNL     1      33.748 -12.730 -22.076  0.00  0.00    +0.016 C 
ATOM     19  C   UNL     1      33.353 -12.359 -23.351  0.00  0.00    +0.059 C 
ATOM     20  C   UNL     1      33.138 -10.915 -23.659  0.00  0.00    +0.052 C 
ENDBRANCH  10  15
ENDBRANCH   5   9
BRANCH   2  21
ATOM     21  C   UNL     1      33.058 -22.110 -18.666  0.00  0.00    -0.047 C 
BRANCH  21  23
ATOM     22  O   UNL     1      32.037 -24.430 -12.947  0.00  0.00    -0.226 OA
ATOM     23  N   UNL     1      33.043 -22.042 -17.205  0.00  0.00    +0.392 N 
ATOM     24  N   UNL     1      33.070 -23.101 -14.549  0.00  0.00    -0.250 N 
ATOM     25  C   UNL     1      31.863 -22.736 -16.669  0.00  0.00    -0.055 C 
ATOM     26  C   UNL     1      34.276 -22.619 -16.650  0.00  0.00    -0.055 C 
ATOM     27  C   UNL     1      31.820 -22.635 -15.145  0.00  0.00    +0.074 C 
ATOM     28  C   UNL     1      34.286 -22.520 -15.123  0.00  0.00    +0.074 C 
ATOM     29  C   UNL     1      33.056 -23.939 -13.432  0.00  0.00    +0.405 C 
ATOM     30  H   UNL     1      32.992 -21.062 -16.930  0.00  0.00    -0.079 HD
BRANCH  29  31
ATOM     31  O   UNL     1      34.308 -24.161 -12.922  0.00  0.00    -0.430 OA
ATOM     32  C   UNL     1      34.580 -23.576 -11.643  0.00  0.00    +0.257 C 
ENDBRANCH  29  31
ENDBRANCH  21  23
ENDBRANCH   2  21
TORSDOF 5
ENDMDL
MODEL 7
REMARK VINA RESULT:     -10.9      5.175     12.593
REMARK  Name = 11689883
REMARK  5 active torsions:
REMARK  status: ('A' for Active; 'I' for Inactive)
REMARK    1  A    between atoms: C_2  and  C_21
REMARK    2  A    between atoms: C_5  and  N_9
REMARK    3  A    between atoms: N_10  and  C_15
REMARK    4  A    between atoms: C_21  and  N_23
REMARK    5  A    between atoms: C_29  and  O_31
REMARK                            x       y       z     vdW  Elec       q    Type
REMARK                         _______ _______ _______ _____ _____    ______ ____
ROOT
ATOM      1  F   UNL     1      31.355  -9.656 -23.257  0.00  0.00    -0.203 F 
ATOM      2  C   UNL     1      31.191 -10.153 -20.946  0.00  0.00    -0.014 C 
ATOM      3  C   UNL     1      31.366  -9.244 -21.979  0.00  0.00    +0.147 C 
ATOM      4  C   UNL     1      31.199  -9.739 -19.621  0.00  0.00    -0.004 C 
ATOM      5  C   UNL     1      31.553  -7.894 -21.683  0.00  0.00    +0.079 C 
ATOM      6  C   UNL     1      31.387  -8.389 -19.324  0.00  0.00    +0.001 C 
ATOM      7  C   UNL     1      31.564  -7.466 -20.355  0.00  0.00    +0.017 C 
ENDROOT
BRANCH   5   9
ATOM      8  O   UNL     1      33.830  -7.541 -23.583  0.00  0.00    -0.252 OA
ATOM      9  N   UNL     1      31.731  -6.969 -22.712  0.00  0.00    -0.266 N 
ATOM     10  N   UNL     1      32.600  -5.768 -24.484  0.00  0.00    -0.267 N 
ATOM     11  C   UNL     1      32.830  -6.831 -23.597  0.00  0.00    +0.308 C 
ATOM     12  H   UNL     1      30.997  -6.326 -22.842  0.00  0.00    +0.156 HD
ATOM     13  H   UNL     1      31.747  -5.288 -24.373  0.00  0.00    +0.156 HD
BRANCH  10  15
ATOM     14  N   UNL     1      33.941  -5.206 -27.864  0.00  0.00    -0.247 NA
ATOM     15  C   UNL     1      33.444  -5.300 -25.519  0.00  0.00    +0.071 C 
ATOM     16  C   UNL     1      34.542  -4.520 -25.222  0.00  0.00    +0.018 C 
ATOM     17  C   UNL     1      33.176  -5.619 -26.829  0.00  0.00    +0.113 C 
ATOM     18  C   UNL     1      35.353  -4.075 -26.260  0.00  0.00    +0.016 C 
ATOM     19  C   UNL     1      35.012  -4.443 -27.552  0.00  0.00    +0.059 C 
ATOM     20  C   UNL     1      35.860  -3.984 -28.691  0.00  0.00    +0.052 C 
ENDBRANCH  10  15
ENDBRANCH   5   9
BRANCH   2  21
ATOM     21  C   UNL     1      30.988 -11.611 -21.262  0.00  0.00    -0.047 C 
BRANCH  21  23
ATOM     22  O   UNL     1      34.677 -16.656 -21.517  0.00  0.00    -0.226 OA
ATOM     23  N   UNL     1      32.256 -12.300 -21.499  0.00  0.00    +0.392 N 
ATOM     24  N   UNL     1      33.931 -14.536 -22.106  0.00  0.00    -0.250 N 
ATOM     25  C   UNL     1      32.454 -13.370 -20.511  0.00  0.00    -0.055 C 
ATOM     26  C   UNL     1      32.301 -12.843 -22.865  0.00  0.00    -0.055 C 
ATOM     27  C   UNL     1      33.796 -14.068 -20.729  0.00  0.00    +0.074 C 
ATOM     28  C   UNL     1      33.639 -13.534 -23.133  0.00  0.00    +0.074 C 
ATOM     29  C   UNL     1      34.430 -15.812 -22.377  0.00  0.00    +0.405 C 
ATOM     30  H   UNL     1      33.012 -11.623 -21.396  0.00  0.00    -0.079 HD
BRANCH  29  31
ATOM     31  O   UNL     1      34.623 -16.030 -23.715  0.00  0.00    -0.430 OA
ATOM     32  C   UNL     1      33.865 -17.098 -24.296  0.00  0.00    +0.257 C 
ENDBRANCH  29  31
ENDBRANCH  21  23
ENDBRANCH   2  21
TORSDOF 5
ENDMDL
MODEL 8
REMARK VINA RESULT:     -10.4      4.091     11.564
REMARK  Name = 11689883
REMARK  5 active torsions:
REMARK  status: ('A' for Active; 'I' for Inactive)
REMARK    1  A    between atoms: C_2  and  C_21
REMARK    2  A    between atoms: C_5  and  N_9
REMARK    3  A    between atoms: N_10  and  C_15
REMARK    4  A    between atoms: C_21  and  N_23
REMARK    5  A    between atoms: C_29  and  O_31
REMARK                            x       y       z     vdW  Elec       q    Type
REMARK                         _______ _______ _______ _____ _____    ______ ____
ROOT
ATOM      1  F   UNL     1      35.668 -21.791 -16.891  0.00  0.00    -0.203 F 
ATOM      2  C   UNL     1      33.768 -22.782 -15.880  0.00  0.00    -0.014 C 
ATOM      3  C   UNL     1      34.365 -22.113 -16.938  0.00  0.00    +0.147 C 
ATOM      4  C   UNL     1      32.422 -23.122 -15.918  0.00  0.00    -0.004 C 
ATOM      5  C   UNL     1      33.603 -21.775 -18.057  0.00  0.00    +0.079 C 
ATOM      6  C   UNL     1      31.660 -22.784 -17.036  0.00  0.00    +0.001 C 
ATOM      7  C   UNL     1      32.250 -22.111 -18.106  0.00  0.00    +0.017 C 
ENDROOT
BRANCH   5   9
ATOM      8  O   UNL     1      32.494 -19.649 -19.836  0.00  0.00    -0.252 OA
ATOM      9  N   UNL     1      34.191 -21.101 -19.128  0.00  0.00    -0.266 N 
ATOM     10  N   UNL     1      34.569 -19.686 -20.914  0.00  0.00    -0.267 N 
ATOM     11  C   UNL     1      33.631 -20.094 -19.952  0.00  0.00    +0.308 C 
ATOM     12  H   UNL     1      35.117 -21.359 -19.340  0.00  0.00    +0.156 HD
ATOM     13  H   UNL     1      35.444 -20.137 -20.883  0.00  0.00    +0.156 HD
BRANCH  10  15
ATOM     14  N   UNL     1      34.698 -16.431 -22.624  0.00  0.00    -0.247 NA
ATOM     15  C   UNL     1      34.411 -18.708 -21.924  0.00  0.00    +0.071 C 
ATOM     16  C   UNL     1      33.846 -19.044 -23.136  0.00  0.00    +0.018 C 
ATOM     17  C   UNL     1      34.820 -17.414 -21.704  0.00  0.00    +0.113 C 
ATOM     18  C   UNL     1      33.704 -18.061 -24.109  0.00  0.00    +0.016 C 
ATOM     19  C   UNL     1      34.141 -16.781 -23.805  0.00  0.00    +0.059 C 
ATOM     20  C   UNL     1      34.004 -15.700 -24.826  0.00  0.00    +0.052 C 
ENDBRANCH  10  15
ENDBRANCH   5   9
BRANCH   2  21
ATOM     21  C   UNL     1      34.587 -23.149 -14.672  0.00  0.00    -0.047 C 
BRANCH  21  23
ATOM     22  O   UNL     1      40.712 -24.202 -13.958  0.00  0.00    -0.226 OA
ATOM     23  N   UNL     1      35.869 -23.748 -15.044  0.00  0.00    +0.392 N 
ATOM     24  N   UNL     1      38.531 -24.689 -14.595  0.00  0.00    -0.250 N 
ATOM     25  C   UNL     1      36.967 -22.796 -14.822  0.00  0.00    -0.055 C 
ATOM     26  C   UNL     1      36.099 -24.987 -14.286  0.00  0.00    -0.055 C 
ATOM     27  C   UNL     1      38.305 -23.401 -15.245  0.00  0.00    +0.074 C 
ATOM     28  C   UNL     1      37.421 -25.639 -14.694  0.00  0.00    +0.074 C 
ATOM     29  C   UNL     1      39.777 -24.997 -14.044  0.00  0.00    +0.405 C 
ATOM     30  H   UNL     1      35.839 -23.978 -16.037  0.00  0.00    -0.079 HD
BRANCH  29  31
ATOM     31  O   UNL     1      39.855 -26.292 -13.604  0.00  0.00    -0.430 OA
ATOM     32  C   UNL     1      41.171 -26.852 -13.521  0.00  0.00    +0.257 C 
ENDBRANCH  29  31
ENDBRANCH  21  23
ENDBRANCH   2  21
TORSDOF 5
ENDMDL
MODEL 9
REMARK VINA RESULT:     -10.4      4.078      7.461
REMARK  Name = 11689883
REMARK  5 active torsions:
REMARK  status: ('A' for Active; 'I' for Inactive)
REMARK    1  A    between atoms: C_2  and  C_21
REMARK    2  A    between atoms: C_5  and  N_9
REMARK    3  A    between atoms: N_10  and  C_15
REMARK    4  A    between atoms: C_21  and  N_23
REMARK    5  A    between atoms: C_29  and  O_31
REMARK                            x       y       z     vdW  Elec       q    Type
REMARK                         _______ _______ _______ _____ _____    ______ ____
ROOT
ATOM      1  F   UNL     1      33.919 -10.415 -23.852  0.00  0.00    -0.203 F 
ATOM      2  C   UNL     1      32.197  -9.229 -22.738  0.00  0.00    -0.014 C 
ATOM      3  C   UNL     1      32.826 -10.419 -23.074  0.00  0.00    +0.147 C 
ATOM      4  C   UNL     1      31.066  -9.220 -21.933  0.00  0.00    -0.004 C 
ATOM      5  C   UNL     1      32.314 -11.626 -22.596  0.00  0.00    +0.079 C 
ATOM      6  C   UNL     1      30.554 -10.426 -21.455  0.00  0.00    +0.001 C 
ATOM      7  C   UNL     1      31.177 -11.630 -21.786  0.00  0.00    +0.017 C 
ENDROOT
BRANCH   5   9
ATOM      8  O   UNL     1      32.950 -13.995 -20.892  0.00  0.00    -0.252 OA
ATOM      9  N   UNL     1      32.935 -12.831 -22.926  0.00  0.00    -0.266 N 
ATOM     10  N   UNL     1      33.858 -14.946 -22.826  0.00  0.00    -0.267 N 
ATOM     11  C   UNL     1      33.221 -13.936 -22.087  0.00  0.00    +0.308 C 
ATOM     12  H   UNL     1      33.213 -12.925 -23.866  0.00  0.00    +0.156 HD
ATOM     13  H   UNL     1      34.009 -14.753 -23.780  0.00  0.00    +0.156 HD
BRANCH  10  15
ATOM     14  N   UNL     1      35.248 -17.520 -20.595  0.00  0.00    -0.247 NA
ATOM     15  C   UNL     1      34.309 -16.207 -22.369  0.00  0.00    +0.071 C 
ATOM     16  C   UNL     1      34.258 -17.306 -23.200  0.00  0.00    +0.018 C 
ATOM     17  C   UNL     1      34.801 -16.345 -21.093  0.00  0.00    +0.113 C 
ATOM     18  C   UNL     1      34.709 -18.532 -22.723  0.00  0.00    +0.016 C 
ATOM     19  C   UNL     1      35.191 -18.585 -21.425  0.00  0.00    +0.059 C 
ATOM     20  C   UNL     1      35.683 -19.884 -20.880  0.00  0.00    +0.052 C 
ENDBRANCH  10  15
ENDBRANCH   5   9
BRANCH   2  21
ATOM     21  C   UNL     1      32.747  -7.925 -23.251  0.00  0.00    -0.047 C 
BRANCH  21  23
ATOM     22  O   UNL     1      31.409  -1.844 -22.644  0.00  0.00    -0.226 OA
ATOM     23  N   UNL     1      31.871  -6.799 -22.928  0.00  0.00    +0.392 N 
ATOM     24  N   UNL     1      30.964  -4.090 -23.042  0.00  0.00    -0.250 N 
ATOM     25  C   UNL     1      32.629  -5.732 -22.257  0.00  0.00    -0.055 C 
ATOM     26  C   UNL     1      31.222  -6.285 -24.143  0.00  0.00    -0.055 C 
ATOM     27  C   UNL     1      31.711  -4.569 -21.882  0.00  0.00    +0.074 C 
ATOM     28  C   UNL     1      30.276  -5.130 -23.810  0.00  0.00    +0.074 C 
ATOM     29  C   UNL     1      30.834  -2.721 -23.287  0.00  0.00    +0.405 C 
ATOM     30  H   UNL     1      31.147  -7.129 -22.290  0.00  0.00    -0.079 HD
BRANCH  29  31
ATOM     31  O   UNL     1      29.986  -2.450 -24.328  0.00  0.00    -0.430 OA
ATOM     32  C   UNL     1      30.596  -1.945 -25.522  0.00  0.00    +0.257 C 
ENDBRANCH  29  31
ENDBRANCH  21  23
ENDBRANCH   2  21
TORSDOF 5
ENDMDL
