MODEL 1
REMARK VINA RESULT:     -12.3      0.000      0.000
REMARK  Name = 465669
REMARK  6 active torsions:
REMARK  status: ('A' for Active; 'I' for Inactive)
REMARK    1  A    between atoms: C_2  and  C_9
REMARK    2  A    between atoms: C_3  and  O_16
REMARK    3  A    between atoms: C_9  and  C_10
REMARK    4  A    between atoms: O_16  and  C_17
REMARK    5  A    between atoms: C_17  and  C_20
REMARK    6  A    between atoms: N_19  and  C_22
REMARK                            x       y       z     vdW  Elec       q    Type
REMARK                         _______ _______ _______ _____ _____    ______ ____
ROOT
ATOM      1 CL   UNL     1      37.197 -23.141 -13.893  0.00  0.00    -0.082 Cl
ATOM      2  C   UNL     1      34.495 -22.526 -16.740  0.00  0.00    +0.074 C 
ATOM      3  C   UNL     1      35.111 -21.653 -17.606  0.00  0.00    +0.142 C 
ATOM      4  C   UNL     1      35.104 -22.998 -15.598  0.00  0.00    +0.018 C 
ATOM      5  C   UNL     1      36.408 -21.227 -17.316  0.00  0.00    +0.038 C 
ATOM      6  C   UNL     1      36.401 -22.573 -15.309  0.00  0.00    +0.058 C 
ATOM      7  C   UNL     1      37.052 -21.686 -16.168  0.00  0.00    +0.015 C 
ENDROOT
BRANCH   2   9
ATOM      8  O   UNL     1      32.914 -23.564 -18.116  0.00  0.00    -0.286 OA
ATOM      9  C   UNL     1      33.106 -22.996 -17.031  0.00  0.00    +0.198 C 
BRANCH   9  10
ATOM     10  C   UNL     1      32.008 -22.808 -16.097  0.00  0.00    +0.039 C 
ATOM     11  C   UNL     1      32.251 -22.813 -14.723  0.00  0.00    +0.003 C 
ATOM     12  C   UNL     1      30.710 -22.621 -16.575  0.00  0.00    +0.003 C 
ATOM     13  C   UNL     1      31.197 -22.633 -13.827  0.00  0.00    +0.000 C 
ATOM     14  C   UNL     1      29.656 -22.441 -15.679  0.00  0.00    +0.000 C 
ATOM     15  C   UNL     1      29.900 -22.447 -14.305  0.00  0.00    +0.000 C 
ENDBRANCH   9  10
ENDBRANCH   2   9
BRANCH   3  16
ATOM     16  O   UNL     1      34.497 -21.192 -18.732  0.00  0.00    -0.466 OA
BRANCH  16  17
ATOM     17  C   UNL     1      35.333 -20.608 -19.731  0.00  0.00    +0.290 C 
BRANCH  17  20
ATOM     18  O   UNL     1      33.339 -19.866 -20.806  0.00  0.00    -0.271 OA
ATOM     19  N   UNL     1      35.257 -18.507 -20.888  0.00  0.00    -0.281 N 
ATOM     20  C   UNL     1      34.513 -19.627 -20.540  0.00  0.00    +0.271 C 
ATOM     21  H   UNL     1      36.191 -18.490 -20.578  0.00  0.00    +0.155 HD
BRANCH  19  22
ATOM     22  C   UNL     1      34.826 -17.387 -21.638  0.00  0.00    +0.050 C 
ATOM     23  C   UNL     1      34.556 -16.196 -20.983  0.00  0.00    +0.015 C 
ATOM     24  C   UNL     1      34.686 -17.503 -23.010  0.00  0.00    +0.015 C 
ATOM     25  C   UNL     1      34.132 -15.092 -21.722  0.00  0.00    +0.001 C 
ATOM     26  C   UNL     1      34.263 -16.398 -23.750  0.00  0.00    +0.001 C 
ATOM     27  C   UNL     1      33.986 -15.192 -23.105  0.00  0.00    +0.000 C 
ENDBRANCH  19  22
ENDBRANCH  17  20
ENDBRANCH  16  17
ENDBRANCH   3  16
TORSDOF 6
ENDMDL
MODEL 2
REMARK VINA RESULT:     -11.7      2.245      4.212
REMARK  Name = 465669
REMARK  6 active torsions:
REMARK  status: ('A' for Active; 'I' for Inactive)
REMARK    1  A    between atoms: C_2  and  C_9
REMARK    2  A    between atoms: C_3  and  O_16
REMARK    3  A    between atoms: C_9  and  C_10
REMARK    4  A    between atoms: O_16  and  C_17
REMARK    5  A    between atoms: C_17  and  C_20
REMARK    6  A    between atoms: N_19  and  C_22
REMARK                            x       y       z     vdW  Elec       q    Type
REMARK                         _______ _______ _______ _____ _____    ______ ____
ROOT
ATOM      1 CL   UNL     1      30.746 -23.590 -14.058  0.00  0.00    -0.082 Cl
ATOM      2  C   UNL     1      34.225 -22.692 -15.753  0.00  0.00    +0.074 C 
ATOM      3  C   UNL     1      33.891 -22.343 -17.041  0.00  0.00    +0.142 C 
ATOM      4  C   UNL     1      33.288 -23.078 -14.819  0.00  0.00    +0.018 C 
ATOM      5  C   UNL     1      32.548 -22.380 -17.417  0.00  0.00    +0.038 C 
ATOM      6  C   UNL     1      31.946 -23.115 -15.196  0.00  0.00    +0.058 C 
ATOM      7  C   UNL     1      31.576 -22.767 -16.495  0.00  0.00    +0.015 C 
ENDROOT
BRANCH   2   9
ATOM      8  O   UNL     1      36.223 -21.556 -15.322  0.00  0.00    -0.286 OA
ATOM      9  C   UNL     1      35.658 -22.659 -15.328  0.00  0.00    +0.198 C 
BRANCH   9  10
ATOM     10  C   UNL     1      36.381 -23.856 -14.932  0.00  0.00    +0.039 C 
ATOM     11  C   UNL     1      37.691 -23.758 -14.462  0.00  0.00    +0.003 C 
ATOM     12  C   UNL     1      35.764 -25.104 -15.021  0.00  0.00    +0.003 C 
ATOM     13  C   UNL     1      38.384 -24.907 -14.082  0.00  0.00    +0.000 C 
ATOM     14  C   UNL     1      36.457 -26.254 -14.641  0.00  0.00    +0.000 C 
ATOM     15  C   UNL     1      37.767 -26.155 -14.172  0.00  0.00    +0.000 C 
ENDBRANCH   9  10
ENDBRANCH   2   9
BRANCH   3  16
ATOM     16  O   UNL     1      34.826 -21.963 -17.956  0.00  0.00    -0.466 OA
BRANCH  16  17
ATOM     17  C   UNL     1      34.395 -21.846 -19.311  0.00  0.00    +0.290 C 
BRANCH  17  20
ATOM     18  O   UNL     1      35.945 -20.041 -19.451  0.00  0.00    -0.271 OA
ATOM     19  N   UNL     1      34.069 -20.050 -20.869  0.00  0.00    -0.281 N 
ATOM     20  C   UNL     1      34.906 -20.538 -19.875  0.00  0.00    +0.271 C 
ATOM     21  H   UNL     1      33.276 -20.595 -21.078  0.00  0.00    +0.155 HD
BRANCH  19  22
ATOM     22  C   UNL     1      34.224 -18.859 -21.618  0.00  0.00    +0.050 C 
ATOM     23  C   UNL     1      34.713 -17.724 -20.992  0.00  0.00    +0.015 C 
ATOM     24  C   UNL     1      33.887 -18.854 -22.961  0.00  0.00    +0.015 C 
ATOM     25  C   UNL     1      34.867 -16.551 -21.730  0.00  0.00    +0.001 C 
ATOM     26  C   UNL     1      34.042 -17.681 -23.700  0.00  0.00    +0.001 C 
ATOM     27  C   UNL     1      34.532 -16.529 -23.084  0.00  0.00    +0.000 C 
ENDBRANCH  19  22
ENDBRANCH  17  20
ENDBRANCH  16  17
ENDBRANCH   3  16
TORSDOF 6
ENDMDL
MODEL 3
REMARK VINA RESULT:     -11.5      3.338      8.004
REMARK  Name = 465669
REMARK  6 active torsions:
REMARK  status: ('A' for Active; 'I' for Inactive)
REMARK    1  A    between atoms: C_2  and  C_9
REMARK    2  A    between atoms: C_3  and  O_16
REMARK    3  A    between atoms: C_9  and  C_10
REMARK    4  A    between atoms: O_16  and  C_17
REMARK    5  A    between atoms: C_17  and  C_20
REMARK    6  A    between atoms: N_19  and  C_22
REMARK                            x       y       z     vdW  Elec       q    Type
REMARK                         _______ _______ _______ _____ _____    ______ ____
ROOT
ATOM      1 CL   UNL     1      28.983 -22.144 -15.337  0.00  0.00    -0.082 Cl
ATOM      2  C   UNL     1      32.545 -22.744 -16.990  0.00  0.00    +0.074 C 
ATOM      3  C   UNL     1      33.400 -22.851 -15.917  0.00  0.00    +0.142 C 
ATOM      4  C   UNL     1      31.193 -22.528 -16.846  0.00  0.00    +0.018 C 
ATOM      5  C   UNL     1      32.875 -22.737 -14.629  0.00  0.00    +0.038 C 
ATOM      6  C   UNL     1      30.668 -22.414 -15.558  0.00  0.00    +0.058 C 
ATOM      7  C   UNL     1      31.509 -22.517 -14.450  0.00  0.00    +0.015 C 
ENDROOT
BRANCH   2   9
ATOM      8  O   UNL     1      33.168 -24.004 -18.859  0.00  0.00    -0.286 OA
ATOM      9  C   UNL     1      33.086 -22.864 -18.378  0.00  0.00    +0.198 C 
BRANCH   9  10
ATOM     10  C   UNL     1      33.505 -21.708 -19.154  0.00  0.00    +0.039 C 
ATOM     11  C   UNL     1      32.550 -20.878 -19.742  0.00  0.00    +0.003 C 
ATOM     12  C   UNL     1      34.862 -21.428 -19.310  0.00  0.00    +0.003 C 
ATOM     13  C   UNL     1      32.952 -19.770 -20.487  0.00  0.00    +0.000 C 
ATOM     14  C   UNL     1      35.265 -20.319 -20.054  0.00  0.00    +0.000 C 
ATOM     15  C   UNL     1      34.309 -19.490 -20.643  0.00  0.00    +0.000 C 
ENDBRANCH   9  10
ENDBRANCH   2   9
BRANCH   3  16
ATOM     16  O   UNL     1      34.737 -23.065 -16.072  0.00  0.00    -0.466 OA
BRANCH  16  17
ATOM     17  C   UNL     1      35.586 -21.919 -16.016  0.00  0.00    +0.290 C 
BRANCH  17  20
ATOM     18  O   UNL     1      37.924 -21.594 -15.687  0.00  0.00    -0.271 OA
ATOM     19  N   UNL     1      36.961 -23.654 -15.089  0.00  0.00    -0.281 N 
ATOM     20  C   UNL     1      36.968 -22.357 -15.584  0.00  0.00    +0.271 C 
ATOM     21  H   UNL     1      36.090 -24.113 -15.080  0.00  0.00    +0.155 HD
BRANCH  19  22
ATOM     22  C   UNL     1      38.062 -24.394 -14.595  0.00  0.00    +0.050 C 
ATOM     23  C   UNL     1      39.150 -24.623 -15.423  0.00  0.00    +0.015 C 
ATOM     24  C   UNL     1      38.031 -24.870 -13.296  0.00  0.00    +0.015 C 
ATOM     25  C   UNL     1      40.235 -25.351 -14.936  0.00  0.00    +0.001 C 
ATOM     26  C   UNL     1      39.117 -25.598 -12.808  0.00  0.00    +0.001 C 
ATOM     27  C   UNL     1      40.219 -25.838 -13.629  0.00  0.00    +0.000 C 
ENDBRANCH  19  22
ENDBRANCH  17  20
ENDBRANCH  16  17
ENDBRANCH   3  16
TORSDOF 6
ENDMDL
MODEL 4
REMARK VINA RESULT:     -11.4      2.886      4.055
REMARK  Name = 465669
REMARK  6 active torsions:
REMARK  status: ('A' for Active; 'I' for Inactive)
REMARK    1  A    between atoms: C_2  and  C_9
REMARK    2  A    between atoms: C_3  and  O_16
REMARK    3  A    between atoms: C_9  and  C_10
REMARK    4  A    between atoms: O_16  and  C_17
REMARK    5  A    between atoms: C_17  and  C_20
REMARK    6  A    between atoms: N_19  and  C_22
REMARK                            x       y       z     vdW  Elec       q    Type
REMARK                         _______ _______ _______ _____ _____    ______ ____
ROOT
ATOM      1 CL   UNL     1      35.292 -23.661  -9.937  0.00  0.00    -0.082 Cl
ATOM      2  C   UNL     1      34.887 -23.493 -13.885  0.00  0.00    +0.074 C 
ATOM      3  C   UNL     1      36.167 -23.287 -14.346  0.00  0.00    +0.142 C 
ATOM      4  C   UNL     1      34.588 -23.610 -12.546  0.00  0.00    +0.018 C 
ATOM      5  C   UNL     1      37.205 -23.194 -13.418  0.00  0.00    +0.038 C 
ATOM      6  C   UNL     1      35.626 -23.518 -11.619  0.00  0.00    +0.058 C 
ATOM      7  C   UNL     1      36.934 -23.309 -12.055  0.00  0.00    +0.015 C 
ENDROOT
BRANCH   2   9
ATOM      8  O   UNL     1      34.055 -23.728 -16.058  0.00  0.00    -0.286 OA
ATOM      9  C   UNL     1      33.760 -23.596 -14.861  0.00  0.00    +0.198 C 
BRANCH   9  10
ATOM     10  C   UNL     1      32.366 -23.549 -14.450  0.00  0.00    +0.039 C 
ATOM     11  C   UNL     1      31.586 -22.434 -14.754  0.00  0.00    +0.003 C 
ATOM     12  C   UNL     1      31.810 -24.621 -13.751  0.00  0.00    +0.003 C 
ATOM     13  C   UNL     1      30.249 -22.389 -14.359  0.00  0.00    +0.000 C 
ATOM     14  C   UNL     1      30.472 -24.576 -13.355  0.00  0.00    +0.000 C 
ATOM     15  C   UNL     1      29.692 -23.460 -13.659  0.00  0.00    +0.000 C 
ENDBRANCH   9  10
ENDBRANCH   2   9
BRANCH   3  16
ATOM     16  O   UNL     1      36.451 -23.172 -15.674  0.00  0.00    -0.466 OA
BRANCH  16  17
ATOM     17  C   UNL     1      37.374 -22.151 -16.052  0.00  0.00    +0.290 C 
BRANCH  17  20
ATOM     18  O   UNL     1      36.957 -19.972 -16.922  0.00  0.00    -0.271 OA
ATOM     19  N   UNL     1      35.722 -21.791 -17.756  0.00  0.00    -0.281 N 
ATOM     20  C   UNL     1      36.667 -21.164 -16.954  0.00  0.00    +0.271 C 
ATOM     21  H   UNL     1      35.633 -22.765 -17.643  0.00  0.00    +0.155 HD
BRANCH  19  22
ATOM     22  C   UNL     1      34.874 -21.192 -18.717  0.00  0.00    +0.050 C 
ATOM     23  C   UNL     1      35.433 -20.437 -19.737  0.00  0.00    +0.015 C 
ATOM     24  C   UNL     1      33.505 -21.374 -18.621  0.00  0.00    +0.015 C 
ATOM     25  C   UNL     1      34.597 -19.847 -20.684  0.00  0.00    +0.001 C 
ATOM     26  C   UNL     1      32.669 -20.785 -19.569  0.00  0.00    +0.001 C 
ATOM     27  C   UNL     1      33.215 -20.021 -20.602  0.00  0.00    +0.000 C 
ENDBRANCH  19  22
ENDBRANCH  17  20
ENDBRANCH  16  17
ENDBRANCH   3  16
TORSDOF 6
ENDMDL
MODEL 5
REMARK VINA RESULT:     -11.4      3.386      7.527
REMARK  Name = 465669
REMARK  6 active torsions:
REMARK  status: ('A' for Active; 'I' for Inactive)
REMARK    1  A    between atoms: C_2  and  C_9
REMARK    2  A    between atoms: C_3  and  O_16
REMARK    3  A    between atoms: C_9  and  C_10
REMARK    4  A    between atoms: O_16  and  C_17
REMARK    5  A    between atoms: C_17  and  C_20
REMARK    6  A    between atoms: N_19  and  C_22
REMARK                            x       y       z     vdW  Elec       q    Type
REMARK                         _______ _______ _______ _____ _____    ______ ____
ROOT
ATOM      1 CL   UNL     1      33.552 -18.911 -21.936  0.00  0.00    -0.082 Cl
ATOM      2  C   UNL     1      34.148 -21.630 -19.102  0.00  0.00    +0.074 C 
ATOM      3  C   UNL     1      35.403 -21.341 -18.617  0.00  0.00    +0.142 C 
ATOM      4  C   UNL     1      33.556 -20.908 -20.114  0.00  0.00    +0.018 C 
ATOM      5  C   UNL     1      36.105 -20.272 -19.174  0.00  0.00    +0.038 C 
ATOM      6  C   UNL     1      34.258 -19.839 -20.670  0.00  0.00    +0.058 C 
ATOM      7  C   UNL     1      35.533 -19.521 -20.200  0.00  0.00    +0.015 C 
ENDROOT
BRANCH   2   9
ATOM      8  O   UNL     1      33.353 -23.829 -19.166  0.00  0.00    -0.286 OA
ATOM      9  C   UNL     1      33.378 -22.771 -18.519  0.00  0.00    +0.198 C 
BRANCH   9  10
ATOM     10  C   UNL     1      32.679 -22.672 -17.249  0.00  0.00    +0.039 C 
ATOM     11  C   UNL     1      31.341 -22.279 -17.216  0.00  0.00    +0.003 C 
ATOM     12  C   UNL     1      33.347 -22.969 -16.061  0.00  0.00    +0.003 C 
ATOM     13  C   UNL     1      30.671 -22.183 -15.997  0.00  0.00    +0.000 C 
ATOM     14  C   UNL     1      32.677 -22.873 -14.841  0.00  0.00    +0.000 C 
ATOM     15  C   UNL     1      31.339 -22.480 -14.809  0.00  0.00    +0.000 C 
ENDBRANCH   9  10
ENDBRANCH   2   9
BRANCH   3  16
ATOM     16  O   UNL     1      35.979 -22.063 -17.615  0.00  0.00    -0.466 OA
BRANCH  16  17
ATOM     17  C   UNL     1      36.687 -21.332 -16.615  0.00  0.00    +0.290 C 
BRANCH  17  20
ATOM     18  O   UNL     1      38.556 -22.527 -15.743  0.00  0.00    -0.271 OA
ATOM     19  N   UNL     1      36.435 -22.867 -14.787  0.00  0.00    -0.281 N 
ATOM     20  C   UNL     1      37.350 -22.311 -15.672  0.00  0.00    +0.271 C 
ATOM     21  H   UNL     1      35.502 -22.566 -14.879  0.00  0.00    +0.155 HD
BRANCH  19  22
ATOM     22  C   UNL     1      36.689 -23.815 -13.768  0.00  0.00    +0.050 C 
ATOM     23  C   UNL     1      36.546 -25.165 -14.047  0.00  0.00    +0.015 C 
ATOM     24  C   UNL     1      37.076 -23.375 -12.514  0.00  0.00    +0.015 C 
ATOM     25  C   UNL     1      36.797 -26.100 -13.043  0.00  0.00    +0.001 C 
ATOM     26  C   UNL     1      37.328 -24.310 -11.509  0.00  0.00    +0.001 C 
ATOM     27  C   UNL     1      37.188 -25.673 -11.774  0.00  0.00    +0.000 C 
ENDBRANCH  19  22
ENDBRANCH  17  20
ENDBRANCH  16  17
ENDBRANCH   3  16
TORSDOF 6
ENDMDL
MODEL 6
REMARK VINA RESULT:     -11.2      3.813      8.104
REMARK  Name = 465669
REMARK  6 active torsions:
REMARK  status: ('A' for Active; 'I' for Inactive)
REMARK    1  A    between atoms: C_2  and  C_9
REMARK    2  A    between atoms: C_3  and  O_16
REMARK    3  A    between atoms: C_9  and  C_10
REMARK    4  A    between atoms: O_16  and  C_17
REMARK    5  A    between atoms: C_17  and  C_20
REMARK    6  A    between atoms: N_19  and  C_22
REMARK                            x       y       z     vdW  Elec       q    Type
REMARK                         _______ _______ _______ _____ _____    ______ ____
ROOT
ATOM      1 CL   UNL     1      27.913 -22.507 -16.769  0.00  0.00    -0.082 Cl
ATOM      2  C   UNL     1      31.821 -22.730 -16.092  0.00  0.00    +0.074 C 
ATOM      3  C   UNL     1      31.930 -22.651 -14.723  0.00  0.00    +0.142 C 
ATOM      4  C   UNL     1      30.610 -22.689 -16.746  0.00  0.00    +0.018 C 
ATOM      5  C   UNL     1      30.766 -22.523 -13.965  0.00  0.00    +0.038 C 
ATOM      6  C   UNL     1      29.446 -22.562 -15.988  0.00  0.00    +0.058 C 
ATOM      7  C   UNL     1      29.524 -22.478 -14.598  0.00  0.00    +0.015 C 
ENDROOT
BRANCH   2   9
ATOM      8  O   UNL     1      33.826 -23.800 -16.647  0.00  0.00    -0.286 OA
ATOM      9  C   UNL     1      33.056 -22.868 -16.924  0.00  0.00    +0.198 C 
BRANCH   9  10
ATOM     10  C   UNL     1      33.364 -21.961 -18.017  0.00  0.00    +0.039 C 
ATOM     11  C   UNL     1      34.691 -21.716 -18.368  0.00  0.00    +0.003 C 
ATOM     12  C   UNL     1      32.331 -21.336 -18.716  0.00  0.00    +0.003 C 
ATOM     13  C   UNL     1      34.986 -20.845 -19.417  0.00  0.00    +0.000 C 
ATOM     14  C   UNL     1      32.625 -20.466 -19.766  0.00  0.00    +0.000 C 
ATOM     15  C   UNL     1      33.953 -20.220 -20.116  0.00  0.00    +0.000 C 
ENDBRANCH   9  10
ENDBRANCH   2   9
BRANCH   3  16
ATOM     16  O   UNL     1      33.135 -22.692 -14.087  0.00  0.00    -0.466 OA
BRANCH  16  17
ATOM     17  C   UNL     1      33.310 -23.707 -13.098  0.00  0.00    +0.290 C 
BRANCH  17  20
ATOM     18  O   UNL     1      35.264 -23.945 -11.755  0.00  0.00    -0.271 OA
ATOM     19  N   UNL     1      35.456 -24.113 -14.093  0.00  0.00    -0.281 N 
ATOM     20  C   UNL     1      34.791 -23.932 -12.887  0.00  0.00    +0.271 C 
ATOM     21  H   UNL     1      34.904 -24.073 -14.906  0.00  0.00    +0.155 HD
BRANCH  19  22
ATOM     22  C   UNL     1      36.838 -24.347 -14.286  0.00  0.00    +0.050 C 
ATOM     23  C   UNL     1      37.582 -23.443 -15.028  0.00  0.00    +0.015 C 
ATOM     24  C   UNL     1      37.419 -25.474 -13.729  0.00  0.00    +0.015 C 
ATOM     25  C   UNL     1      38.944 -23.674 -15.218  0.00  0.00    +0.001 C 
ATOM     26  C   UNL     1      38.782 -25.705 -13.919  0.00  0.00    +0.001 C 
ATOM     27  C   UNL     1      39.544 -24.804 -14.664  0.00  0.00    +0.000 C 
ENDBRANCH  19  22
ENDBRANCH  17  20
ENDBRANCH  16  17
ENDBRANCH   3  16
TORSDOF 6
ENDMDL
MODEL 7
REMARK VINA RESULT:     -11.0      4.716     10.134
REMARK  Name = 465669
REMARK  6 active torsions:
REMARK  status: ('A' for Active; 'I' for Inactive)
REMARK    1  A    between atoms: C_2  and  C_9
REMARK    2  A    between atoms: C_3  and  O_16
REMARK    3  A    between atoms: C_9  and  C_10
REMARK    4  A    between atoms: O_16  and  C_17
REMARK    5  A    between atoms: C_17  and  C_20
REMARK    6  A    between atoms: N_19  and  C_22
REMARK                            x       y       z     vdW  Elec       q    Type
REMARK                         _______ _______ _______ _____ _____    ______ ____
ROOT
ATOM      1 CL   UNL     1      32.150 -12.595 -26.697  0.00  0.00    -0.082 Cl
ATOM      2  C   UNL     1      33.244 -13.770 -23.063  0.00  0.00    +0.074 C 
ATOM      3  C   UNL     1      33.842 -14.991 -23.270  0.00  0.00    +0.142 C 
ATOM      4  C   UNL     1      32.718 -13.015 -24.087  0.00  0.00    +0.018 C 
ATOM      5  C   UNL     1      33.919 -15.486 -24.572  0.00  0.00    +0.038 C 
ATOM      6  C   UNL     1      32.795 -13.510 -25.389  0.00  0.00    +0.058 C 
ATOM      7  C   UNL     1      33.395 -14.746 -25.631  0.00  0.00    +0.015 C 
ENDROOT
BRANCH   2   9
ATOM      8  O   UNL     1      33.776 -13.816 -20.786  0.00  0.00    -0.286 OA
ATOM      9  C   UNL     1      33.152 -13.220 -21.676  0.00  0.00    +0.198 C 
BRANCH   9  10
ATOM     10  C   UNL     1      32.369 -12.037 -21.357  0.00  0.00    +0.039 C 
ATOM     11  C   UNL     1      32.068 -11.736 -20.029  0.00  0.00    +0.003 C 
ATOM     12  C   UNL     1      31.920 -11.203 -22.381  0.00  0.00    +0.003 C 
ATOM     13  C   UNL     1      31.317 -10.601 -19.723  0.00  0.00    +0.000 C 
ATOM     14  C   UNL     1      31.169 -10.067 -22.076  0.00  0.00    +0.000 C 
ATOM     15  C   UNL     1      30.868  -9.766 -20.747  0.00  0.00    +0.000 C 
ENDBRANCH   9  10
ENDBRANCH   2   9
BRANCH   3  16
ATOM     16  O   UNL     1      34.359 -15.730 -22.248  0.00  0.00    -0.466 OA
BRANCH  16  17
ATOM     17  C   UNL     1      34.923 -16.996 -22.586  0.00  0.00    +0.290 C 
BRANCH  17  20
ATOM     18  O   UNL     1      35.764 -17.516 -20.417  0.00  0.00    -0.271 OA
ATOM     19  N   UNL     1      34.170 -18.941 -21.397  0.00  0.00    -0.281 N 
ATOM     20  C   UNL     1      35.014 -17.840 -21.333  0.00  0.00    +0.271 C 
ATOM     21  H   UNL     1      33.636 -19.033 -22.219  0.00  0.00    +0.155 HD
BRANCH  19  22
ATOM     22  C   UNL     1      33.988 -19.945 -20.417  0.00  0.00    +0.050 C 
ATOM     23  C   UNL     1      35.097 -20.597 -19.901  0.00  0.00    +0.015 C 
ATOM     24  C   UNL     1      32.707 -20.253 -19.992  0.00  0.00    +0.015 C 
ATOM     25  C   UNL     1      34.918 -21.586 -18.934  0.00  0.00    +0.001 C 
ATOM     26  C   UNL     1      32.528 -21.242 -19.024  0.00  0.00    +0.001 C 
ATOM     27  C   UNL     1      33.634 -21.908 -18.495  0.00  0.00    +0.000 C 
ENDBRANCH  19  22
ENDBRANCH  17  20
ENDBRANCH  16  17
ENDBRANCH   3  16
TORSDOF 6
ENDMDL
MODEL 8
REMARK VINA RESULT:     -10.9      4.232      7.066
REMARK  Name = 465669
REMARK  6 active torsions:
REMARK  status: ('A' for Active; 'I' for Inactive)
REMARK    1  A    between atoms: C_2  and  C_9
REMARK    2  A    between atoms: C_3  and  O_16
REMARK    3  A    between atoms: C_9  and  C_10
REMARK    4  A    between atoms: O_16  and  C_17
REMARK    5  A    between atoms: C_17  and  C_20
REMARK    6  A    between atoms: N_19  and  C_22
REMARK                            x       y       z     vdW  Elec       q    Type
REMARK                         _______ _______ _______ _____ _____    ______ ____
ROOT
ATOM      1 CL   UNL     1      33.015 -19.715 -25.486  0.00  0.00    -0.082 Cl
ATOM      2  C   UNL     1      34.592 -18.094 -22.220  0.00  0.00    +0.074 C 
ATOM      3  C   UNL     1      34.443 -16.740 -22.412  0.00  0.00    +0.142 C 
ATOM      4  C   UNL     1      34.167 -19.027 -23.140  0.00  0.00    +0.018 C 
ATOM      5  C   UNL     1      33.836 -16.293 -23.586  0.00  0.00    +0.038 C 
ATOM      6  C   UNL     1      33.560 -18.580 -24.313  0.00  0.00    +0.058 C 
ATOM      7  C   UNL     1      33.396 -17.213 -24.536  0.00  0.00    +0.015 C 
ENDROOT
BRANCH   2   9
ATOM      8  O   UNL     1      36.276 -18.025 -20.598  0.00  0.00    -0.286 OA
ATOM      9  C   UNL     1      35.239 -18.595 -20.969  0.00  0.00    +0.198 C 
BRANCH   9  10
ATOM     10  C   UNL     1      34.695 -19.702 -20.200  0.00  0.00    +0.039 C 
ATOM     11  C   UNL     1      35.551 -20.565 -19.516  0.00  0.00    +0.003 C 
ATOM     12  C   UNL     1      33.315 -19.902 -20.147  0.00  0.00    +0.003 C 
ATOM     13  C   UNL     1      35.029 -21.627 -18.779  0.00  0.00    +0.000 C 
ATOM     14  C   UNL     1      32.792 -20.964 -19.409  0.00  0.00    +0.000 C 
ATOM     15  C   UNL     1      33.649 -21.827 -18.725  0.00  0.00    +0.000 C 
ENDBRANCH   9  10
ENDBRANCH   2   9
BRANCH   3  16
ATOM     16  O   UNL     1      34.868 -15.826 -21.495  0.00  0.00    -0.466 OA
BRANCH  16  17
ATOM     17  C   UNL     1      33.900 -15.346 -20.562  0.00  0.00    +0.290 C 
BRANCH  17  20
ATOM     18  O   UNL     1      34.586 -13.088 -20.227  0.00  0.00    -0.271 OA
ATOM     19  N   UNL     1      32.645 -13.519 -21.484  0.00  0.00    -0.281 N 
ATOM     20  C   UNL     1      33.763 -13.849 -20.728  0.00  0.00    +0.271 C 
ATOM     21  H   UNL     1      32.101 -14.273 -21.808  0.00  0.00    +0.155 HD
BRANCH  19  22
ATOM     22  C   UNL     1      32.200 -12.225 -21.844  0.00  0.00    +0.050 C 
ATOM     23  C   UNL     1      31.212 -11.614 -21.089  0.00  0.00    +0.015 C 
ATOM     24  C   UNL     1      32.761 -11.596 -22.942  0.00  0.00    +0.015 C 
ATOM     25  C   UNL     1      30.774 -10.339 -21.443  0.00  0.00    +0.001 C 
ATOM     26  C   UNL     1      32.324 -10.320 -23.297  0.00  0.00    +0.001 C 
ATOM     27  C   UNL     1      31.329  -9.691 -22.546  0.00  0.00    +0.000 C 
ENDBRANCH  19  22
ENDBRANCH  17  20
ENDBRANCH  16  17
ENDBRANCH   3  16
TORSDOF 6
ENDMDL
MODEL 9
REMARK VINA RESULT:     -10.6      8.507     14.437
REMARK  Name = 465669
REMARK  6 active torsions:
REMARK  status: ('A' for Active; 'I' for Inactive)
REMARK    1  A    between atoms: C_2  and  C_9
REMARK    2  A    between atoms: C_3  and  O_16
REMARK    3  A    between atoms: C_9  and  C_10
REMARK    4  A    between atoms: O_16  and  C_17
REMARK    5  A    between atoms: C_17  and  C_20
REMARK    6  A    between atoms: N_19  and  C_22
REMARK                            x       y       z     vdW  Elec       q    Type
REMARK                         _______ _______ _______ _____ _____    ______ ____
ROOT
ATOM      1 CL   UNL     1      32.045  -5.024 -19.137  0.00  0.00    -0.082 Cl
ATOM      2  C   UNL     1      31.369  -7.205 -22.387  0.00  0.00    +0.074 C 
ATOM      3  C   UNL     1      31.379  -8.502 -21.930  0.00  0.00    +0.142 C 
ATOM      4  C   UNL     1      31.570  -6.122 -21.560  0.00  0.00    +0.018 C 
ATOM      5  C   UNL     1      31.601  -8.731 -20.571  0.00  0.00    +0.038 C 
ATOM      6  C   UNL     1      31.791  -6.351 -20.202  0.00  0.00    +0.058 C 
ATOM      7  C   UNL     1      31.808  -7.655 -19.708  0.00  0.00    +0.015 C 
ENDROOT
BRANCH   2   9
ATOM      8  O   UNL     1      29.987  -7.126 -24.272  0.00  0.00    -0.286 OA
ATOM      9  C   UNL     1      31.133  -6.937 -23.839  0.00  0.00    +0.198 C 
BRANCH   9  10
ATOM     10  C   UNL     1      32.185  -6.472 -24.727  0.00  0.00    +0.039 C 
ATOM     11  C   UNL     1      33.523  -6.614 -24.359  0.00  0.00    +0.003 C 
ATOM     12  C   UNL     1      31.857  -5.882 -25.948  0.00  0.00    +0.003 C 
ATOM     13  C   UNL     1      34.533  -6.167 -25.211  0.00  0.00    +0.000 C 
ATOM     14  C   UNL     1      32.867  -5.436 -26.801  0.00  0.00    +0.000 C 
ATOM     15  C   UNL     1      34.205  -5.578 -26.432  0.00  0.00    +0.000 C 
ENDBRANCH   9  10
ENDBRANCH   2   9
BRANCH   3  16
ATOM     16  O   UNL     1      31.180  -9.566 -22.758  0.00  0.00    -0.466 OA
BRANCH  16  17
ATOM     17  C   UNL     1      32.339 -10.288 -23.174  0.00  0.00    +0.290 C 
BRANCH  17  20
ATOM     18  O   UNL     1      31.245 -12.106 -22.090  0.00  0.00    -0.271 OA
ATOM     19  N   UNL     1      33.503 -12.334 -22.707  0.00  0.00    -0.281 N 
ATOM     20  C   UNL     1      32.283 -11.681 -22.587  0.00  0.00    +0.271 C 
ATOM     21  H   UNL     1      34.227 -11.829 -23.143  0.00  0.00    +0.155 HD
BRANCH  19  22
ATOM     22  C   UNL     1      33.825 -13.642 -22.274  0.00  0.00    +0.050 C 
ATOM     23  C   UNL     1      33.760 -13.945 -20.924  0.00  0.00    +0.015 C 
ATOM     24  C   UNL     1      34.197 -14.593 -23.210  0.00  0.00    +0.015 C 
ATOM     25  C   UNL     1      34.077 -15.235 -20.498  0.00  0.00    +0.001 C 
ATOM     26  C   UNL     1      34.513 -15.883 -22.784  0.00  0.00    +0.001 C 
ATOM     27  C   UNL     1      34.453 -16.204 -21.428  0.00  0.00    +0.000 C 
ENDBRANCH  19  22
ENDBRANCH  17  20
ENDBRANCH  16  17
ENDBRANCH   3  16
TORSDOF 6
ENDMDL
