MODEL 1
REMARK VINA RESULT:     -11.1      0.000      0.000
REMARK  Name = 9867609
REMARK  12 active torsions:
REMARK  status: ('A' for Active; 'I' for Inactive)
REMARK    1  A    between atoms: C_2  and  C_22
REMARK    2  A    between atoms: C_3  and  N_8
REMARK    3  A    between atoms: C_5  and  C_21
REMARK    4  A    between atoms: N_8  and  C_10
REMARK    5  A    between atoms: C_10  and  C_13
REMARK    6  A    between atoms: C_13  and  C_15
REMARK    7  A    between atoms: C_22  and  C_25
REMARK    8  A    between atoms: N_24  and  C_27
REMARK    9  A    between atoms: C_27  and  C_28
REMARK   10  A    between atoms: C_28  and  O_29
REMARK   11  A    between atoms: O_29  and  N_30
REMARK   12  A    between atoms: N_30  and  C_33
REMARK                            x       y       z     vdW  Elec       q    Type
REMARK                         _______ _______ _______ _____ _____    ______ ____
ROOT
ATOM      1  F   UNL     1      36.808 -20.509 -17.675  0.00  0.00    -0.203 F 
ATOM      2  C   UNL     1      35.237 -21.895 -16.566  0.00  0.00    +0.025 C 
ATOM      3  C   UNL     1      34.881 -21.219 -18.859  0.00  0.00    +0.072 C 
ATOM      4  C   UNL     1      35.657 -21.198 -17.699  0.00  0.00    +0.150 C 
ATOM      5  C   UNL     1      34.040 -22.611 -16.592  0.00  0.00    +0.067 C 
ATOM      6  C   UNL     1      33.684 -21.936 -18.884  0.00  0.00    +0.017 C 
ATOM      7  C   UNL     1      33.264 -22.632 -17.751  0.00  0.00    +0.011 C 
ENDROOT
BRANCH   3   8
ATOM      8  N   UNL     1      35.304 -20.516 -20.006  0.00  0.00    -0.326 N 
ATOM      9  H   UNL     1      36.159 -20.769 -20.424  0.00  0.00    +0.147 HD
BRANCH   8  10
ATOM     10  C   UNL     1      34.545 -19.454 -20.590  0.00  0.00    +0.161 C 
BRANCH  10  13
ATOM     11  F   UNL     1      35.468 -19.290 -22.741  0.00  0.00    -0.196 F 
ATOM     12  F   UNL     1      36.705 -18.669 -21.071  0.00  0.00    -0.196 F 
ATOM     13  C   UNL     1      35.422 -18.640 -21.540  0.00  0.00    +0.316 C 
BRANCH  13  15
ATOM     14  N   UNL     1      34.602 -16.580 -20.533  0.00  0.00    -0.243 NA
ATOM     15  C   UNL     1      34.903 -17.231 -21.679  0.00  0.00    +0.121 C 
ATOM     16  C   UNL     1      34.763 -16.680 -22.943  0.00  0.00    +0.020 C 
ATOM     17  C   UNL     1      34.282 -15.378 -23.037  0.00  0.00    +0.003 C 
ATOM     18  C   UNL     1      34.138 -15.316 -20.663  0.00  0.00    +0.099 C 
ATOM     19  C   UNL     1      33.962 -14.677 -21.880  0.00  0.00    +0.021 C 
ENDBRANCH  13  15
ENDBRANCH  10  13
ENDBRANCH   8  10
ENDBRANCH   3   8
BRANCH   5  21
ATOM     20  N   UNL     1      33.222 -23.921 -14.510  0.00  0.00    -0.191 NA
ATOM     21  C   UNL     1      33.588 -23.334 -15.442  0.00  0.00    +0.100 C 
ENDBRANCH   5  21
BRANCH   2  22
ATOM     22  C   UNL     1      36.098 -21.851 -15.331  0.00  0.00    +0.114 C 
BRANCH  22  25
ATOM     23  O   UNL     1      38.296 -22.789 -15.719  0.00  0.00    -0.275 OA
ATOM     24  N   UNL     1      36.662 -24.114 -14.733  0.00  0.00    -0.302 N 
ATOM     25  C   UNL     1      37.153 -22.940 -15.295  0.00  0.00    +0.227 C 
ATOM     26  H   UNL     1      35.728 -24.133 -14.423  0.00  0.00    +0.150 HD
BRANCH  24  27
ATOM     27  C   UNL     1      37.461 -25.300 -14.587  0.00  0.00    +0.125 C 
BRANCH  27  28
ATOM     28  C   UNL     1      37.185 -25.999 -13.267  0.00  0.00    +0.197 C 
BRANCH  28  29
ATOM     29  O   UNL     1      37.285 -25.060 -12.207  0.00  0.00    -0.232 OA
BRANCH  29  30
ATOM     30  N   UNL     1      36.045 -25.008 -11.553  0.00  0.00    -0.096 NA
BRANCH  30  33
ATOM     31  N   UNL     1      34.602 -23.121 -11.860  0.00  0.00    -0.368 N 
ATOM     32  N   UNL     1      36.450 -22.951 -10.527  0.00  0.00    -0.368 N 
ATOM     33  C   UNL     1      35.700 -23.766 -11.339  0.00  0.00    +0.217 C 
ATOM     34  H   UNL     1      33.987 -23.604 -12.459  0.00  0.00    +0.159 HD
ATOM     35  H   UNL     1      34.432 -22.179 -11.636  0.00  0.00    +0.159 HD
ATOM     36  H   UNL     1      37.263 -23.300 -10.094  0.00  0.00    +0.159 HD
ATOM     37  H   UNL     1      36.176 -22.018 -10.376  0.00  0.00    +0.159 HD
ENDBRANCH  30  33
ENDBRANCH  29  30
ENDBRANCH  28  29
ENDBRANCH  27  28
ENDBRANCH  24  27
ENDBRANCH  22  25
ENDBRANCH   2  22
TORSDOF 12
ENDMDL
MODEL 2
REMARK VINA RESULT:     -11.0      2.231      3.682
REMARK  Name = 9867609
REMARK  12 active torsions:
REMARK  status: ('A' for Active; 'I' for Inactive)
REMARK    1  A    between atoms: C_2  and  C_22
REMARK    2  A    between atoms: C_3  and  N_8
REMARK    3  A    between atoms: C_5  and  C_21
REMARK    4  A    between atoms: N_8  and  C_10
REMARK    5  A    between atoms: C_10  and  C_13
REMARK    6  A    between atoms: C_13  and  C_15
REMARK    7  A    between atoms: C_22  and  C_25
REMARK    8  A    between atoms: N_24  and  C_27
REMARK    9  A    between atoms: C_27  and  C_28
REMARK   10  A    between atoms: C_28  and  O_29
REMARK   11  A    between atoms: O_29  and  N_30
REMARK   12  A    between atoms: N_30  and  C_33
REMARK                            x       y       z     vdW  Elec       q    Type
REMARK                         _______ _______ _______ _____ _____    ______ ____
ROOT
ATOM      1  F   UNL     1      36.808 -19.335 -20.509  0.00  0.00    -0.203 F 
ATOM      2  C   UNL     1      35.113 -20.728 -19.614  0.00  0.00    +0.025 C 
ATOM      3  C   UNL     1      34.548 -18.876 -21.059  0.00  0.00    +0.072 C 
ATOM      4  C   UNL     1      35.507 -19.642 -20.395  0.00  0.00    +0.150 C 
ATOM      5  C   UNL     1      33.760 -21.047 -19.495  0.00  0.00    +0.067 C 
ATOM      6  C   UNL     1      33.196 -19.195 -20.941  0.00  0.00    +0.017 C 
ATOM      7  C   UNL     1      32.802 -20.281 -20.159  0.00  0.00    +0.011 C 
ENDROOT
BRANCH   3   8
ATOM      8  N   UNL     1      34.945 -17.777 -21.850  0.00  0.00    -0.326 N 
ATOM      9  H   UNL     1      35.394 -17.953 -22.708  0.00  0.00    +0.147 HD
BRANCH   8  10
ATOM     10  C   UNL     1      34.721 -16.420 -21.461  0.00  0.00    +0.161 C 
BRANCH  10  13
ATOM     11  F   UNL     1      33.519 -16.426 -23.477  0.00  0.00    -0.196 F 
ATOM     12  F   UNL     1      35.329 -15.233 -23.393  0.00  0.00    -0.196 F 
ATOM     13  C   UNL     1      34.238 -15.602 -22.658  0.00  0.00    +0.316 C 
BRANCH  13  15
ATOM     14  N   UNL     1      32.977 -13.584 -23.174  0.00  0.00    -0.243 NA
ATOM     15  C   UNL     1      33.432 -14.410 -22.206  0.00  0.00    +0.121 C 
ATOM     16  C   UNL     1      33.200 -14.220 -20.853  0.00  0.00    +0.020 C 
ATOM     17  C   UNL     1      32.453 -13.112 -20.469  0.00  0.00    +0.003 C 
ATOM     18  C   UNL     1      32.254 -12.516 -22.764  0.00  0.00    +0.099 C 
ATOM     19  C   UNL     1      31.967 -12.239 -21.437  0.00  0.00    +0.021 C 
ENDBRANCH  13  15
ENDBRANCH  10  13
ENDBRANCH   8  10
ENDBRANCH   3   8
BRANCH   5  21
ATOM     20  N   UNL     1      32.982 -23.058 -18.056  0.00  0.00    -0.191 NA
ATOM     21  C   UNL     1      33.330 -22.158 -18.700  0.00  0.00    +0.100 C 
ENDBRANCH   5  21
BRANCH   2  22
ATOM     22  C   UNL     1      36.172 -21.535 -18.910  0.00  0.00    +0.114 C 
BRANCH  22  25
ATOM     23  O   UNL     1      36.866 -20.128 -17.065  0.00  0.00    -0.275 OA
ATOM     24  N   UNL     1      35.817 -22.149 -16.610  0.00  0.00    -0.302 N 
ATOM     25  C   UNL     1      36.335 -21.168 -17.448  0.00  0.00    +0.227 C 
ATOM     26  H   UNL     1      35.411 -22.949 -17.016  0.00  0.00    +0.150 HD
BRANCH  24  27
ATOM     27  C   UNL     1      35.851 -22.047 -15.176  0.00  0.00    +0.125 C 
BRANCH  27  28
ATOM     28  C   UNL     1      36.542 -23.244 -14.547  0.00  0.00    +0.197 C 
BRANCH  28  29
ATOM     29  O   UNL     1      37.941 -23.008 -14.498  0.00  0.00    -0.232 OA
BRANCH  29  30
ATOM     30  N   UNL     1      38.504 -23.911 -13.584  0.00  0.00    -0.096 NA
BRANCH  30  33
ATOM     31  N   UNL     1      39.811 -25.045 -15.239  0.00  0.00    -0.368 N 
ATOM     32  N   UNL     1      38.431 -26.228 -13.854  0.00  0.00    -0.368 N 
ATOM     33  C   UNL     1      38.906 -24.988 -14.204  0.00  0.00    +0.217 C 
ATOM     34  H   UNL     1      40.221 -24.217 -15.580  0.00  0.00    +0.159 HD
ATOM     35  H   UNL     1      40.046 -25.912 -15.640  0.00  0.00    +0.159 HD
ATOM     36  H   UNL     1      37.776 -26.317 -13.124  0.00  0.00    +0.159 HD
ATOM     37  H   UNL     1      38.744 -27.029 -14.332  0.00  0.00    +0.159 HD
ENDBRANCH  30  33
ENDBRANCH  29  30
ENDBRANCH  28  29
ENDBRANCH  27  28
ENDBRANCH  24  27
ENDBRANCH  22  25
ENDBRANCH   2  22
TORSDOF 12
ENDMDL
MODEL 3
REMARK VINA RESULT:     -10.9      3.360      4.893
REMARK  Name = 9867609
REMARK  12 active torsions:
REMARK  status: ('A' for Active; 'I' for Inactive)
REMARK    1  A    between atoms: C_2  and  C_22
REMARK    2  A    between atoms: C_3  and  N_8
REMARK    3  A    between atoms: C_5  and  C_21
REMARK    4  A    between atoms: N_8  and  C_10
REMARK    5  A    between atoms: C_10  and  C_13
REMARK    6  A    between atoms: C_13  and  C_15
REMARK    7  A    between atoms: C_22  and  C_25
REMARK    8  A    between atoms: N_24  and  C_27
REMARK    9  A    between atoms: C_27  and  C_28
REMARK   10  A    between atoms: C_28  and  O_29
REMARK   11  A    between atoms: O_29  and  N_30
REMARK   12  A    between atoms: N_30  and  C_33
REMARK                            x       y       z     vdW  Elec       q    Type
REMARK                         _______ _______ _______ _____ _____    ______ ____
ROOT
ATOM      1  F   UNL     1      32.998 -21.981 -19.791  0.00  0.00    -0.203 F 
ATOM      2  C   UNL     1      34.078 -22.382 -17.721  0.00  0.00    +0.025 C 
ATOM      3  C   UNL     1      35.065 -20.903 -19.358  0.00  0.00    +0.072 C 
ATOM      4  C   UNL     1      34.033 -21.759 -18.968  0.00  0.00    +0.150 C 
ATOM      5  C   UNL     1      35.155 -22.151 -16.865  0.00  0.00    +0.067 C 
ATOM      6  C   UNL     1      36.141 -20.672 -18.502  0.00  0.00    +0.017 C 
ATOM      7  C   UNL     1      36.186 -21.295 -17.255  0.00  0.00    +0.011 C 
ENDROOT
BRANCH   3   8
ATOM      8  N   UNL     1      35.021 -20.272 -20.619  0.00  0.00    -0.326 N 
ATOM      9  H   UNL     1      35.427 -20.730 -21.389  0.00  0.00    +0.147 HD
BRANCH   8  10
ATOM     10  C   UNL     1      34.411 -18.995 -20.826  0.00  0.00    +0.161 C 
BRANCH  10  13
ATOM     11  F   UNL     1      35.508 -18.644 -22.871  0.00  0.00    -0.196 F 
ATOM     12  F   UNL     1      36.581 -18.129 -21.057  0.00  0.00    -0.196 F 
ATOM     13  C   UNL     1      35.342 -18.091 -21.633  0.00  0.00    +0.316 C 
BRANCH  13  15
ATOM     14  N   UNL     1      34.434 -16.114 -20.540  0.00  0.00    -0.243 NA
ATOM     15  C   UNL     1      34.798 -16.687 -21.709  0.00  0.00    +0.121 C 
ATOM     16  C   UNL     1      34.698 -16.063 -22.943  0.00  0.00    +0.020 C 
ATOM     17  C   UNL     1      34.192 -14.768 -22.979  0.00  0.00    +0.003 C 
ATOM     18  C   UNL     1      33.947 -14.853 -20.615  0.00  0.00    +0.099 C 
ATOM     19  C   UNL     1      33.808 -14.145 -21.797  0.00  0.00    +0.021 C 
ENDBRANCH  13  15
ENDBRANCH  10  13
ENDBRANCH   8  10
ENDBRANCH   3   8
BRANCH   5  21
ATOM     20  N   UNL     1      35.279 -23.285 -14.537  0.00  0.00    -0.191 NA
ATOM     21  C   UNL     1      35.224 -22.777 -15.579  0.00  0.00    +0.100 C 
ENDBRANCH   5  21
BRANCH   2  22
ATOM     22  C   UNL     1      32.950 -23.299 -17.330  0.00  0.00    +0.114 C 
BRANCH  22  25
ATOM     23  O   UNL     1      30.960 -21.929 -17.159  0.00  0.00    -0.275 OA
ATOM     24  N   UNL     1      31.910 -22.786 -15.220  0.00  0.00    -0.302 N 
ATOM     25  C   UNL     1      31.828 -22.592 -16.595  0.00  0.00    +0.227 C 
ATOM     26  H   UNL     1      32.646 -23.336 -14.866  0.00  0.00    +0.150 HD
BRANCH  24  27
ATOM     27  C   UNL     1      30.968 -22.217 -14.295  0.00  0.00    +0.125 C 
BRANCH  27  28
ATOM     28  C   UNL     1      30.062 -23.279 -13.699  0.00  0.00    +0.197 C 
BRANCH  28  29
ATOM     29  O   UNL     1      28.900 -23.414 -14.504  0.00  0.00    -0.232 OA
BRANCH  29  30
ATOM     30  N   UNL     1      28.525 -22.137 -14.947  0.00  0.00    -0.096 NA
BRANCH  30  33
ATOM     31  N   UNL     1      26.348 -21.746 -15.864  0.00  0.00    -0.368 N 
ATOM     32  N   UNL     1      27.927 -22.862 -17.083  0.00  0.00    -0.368 N 
ATOM     33  C   UNL     1      27.636 -22.232 -15.898  0.00  0.00    +0.217 C 
ATOM     34  H   UNL     1      26.022 -21.275 -15.063  0.00  0.00    +0.159 HD
ATOM     35  H   UNL     1      25.754 -21.872 -16.637  0.00  0.00    +0.159 HD
ATOM     36  H   UNL     1      28.820 -23.251 -17.227  0.00  0.00    +0.159 HD
ATOM     37  H   UNL     1      27.244 -22.925 -17.789  0.00  0.00    +0.159 HD
ENDBRANCH  30  33
ENDBRANCH  29  30
ENDBRANCH  28  29
ENDBRANCH  27  28
ENDBRANCH  24  27
ENDBRANCH  22  25
ENDBRANCH   2  22
TORSDOF 12
ENDMDL
MODEL 4
REMARK VINA RESULT:     -10.9      1.371      2.138
REMARK  Name = 9867609
REMARK  12 active torsions:
REMARK  status: ('A' for Active; 'I' for Inactive)
REMARK    1  A    between atoms: C_2  and  C_22
REMARK    2  A    between atoms: C_3  and  N_8
REMARK    3  A    between atoms: C_5  and  C_21
REMARK    4  A    between atoms: N_8  and  C_10
REMARK    5  A    between atoms: C_10  and  C_13
REMARK    6  A    between atoms: C_13  and  C_15
REMARK    7  A    between atoms: C_22  and  C_25
REMARK    8  A    between atoms: N_24  and  C_27
REMARK    9  A    between atoms: C_27  and  C_28
REMARK   10  A    between atoms: C_28  and  O_29
REMARK   11  A    between atoms: O_29  and  N_30
REMARK   12  A    between atoms: N_30  and  C_33
REMARK                            x       y       z     vdW  Elec       q    Type
REMARK                         _______ _______ _______ _____ _____    ______ ____
ROOT
ATOM      1  F   UNL     1      36.748 -20.462 -17.699  0.00  0.00    -0.203 F 
ATOM      2  C   UNL     1      35.049 -21.780 -16.703  0.00  0.00    +0.025 C 
ATOM      3  C   UNL     1      34.867 -21.072 -19.006  0.00  0.00    +0.072 C 
ATOM      4  C   UNL     1      35.570 -21.096 -17.801  0.00  0.00    +0.150 C 
ATOM      5  C   UNL     1      33.824 -22.439 -16.809  0.00  0.00    +0.067 C 
ATOM      6  C   UNL     1      33.642 -21.731 -19.112  0.00  0.00    +0.017 C 
ATOM      7  C   UNL     1      33.121 -22.415 -18.014  0.00  0.00    +0.011 C 
ENDROOT
BRANCH   3   8
ATOM      8  N   UNL     1      35.392 -20.381 -20.118  0.00  0.00    -0.326 N 
ATOM      9  H   UNL     1      36.325 -20.555 -20.382  0.00  0.00    +0.147 HD
BRANCH   8  10
ATOM     10  C   UNL     1      34.630 -19.442 -20.879  0.00  0.00    +0.161 C 
BRANCH  10  13
ATOM     11  F   UNL     1      35.808 -18.988 -22.858  0.00  0.00    -0.196 F 
ATOM     12  F   UNL     1      36.772 -18.487 -20.981  0.00  0.00    -0.196 F 
ATOM     13  C   UNL     1      35.562 -18.479 -21.614  0.00  0.00    +0.316 C 
BRANCH  13  15
ATOM     14  N   UNL     1      34.628 -16.526 -20.499  0.00  0.00    -0.243 NA
ATOM     15  C   UNL     1      34.966 -17.095 -21.677  0.00  0.00    +0.121 C 
ATOM     16  C   UNL     1      34.798 -16.483 -22.910  0.00  0.00    +0.020 C 
ATOM     17  C   UNL     1      34.247 -15.206 -22.933  0.00  0.00    +0.003 C 
ATOM     18  C   UNL     1      34.095 -15.284 -20.561  0.00  0.00    +0.099 C 
ATOM     19  C   UNL     1      33.886 -14.589 -21.741  0.00  0.00    +0.021 C 
ENDBRANCH  13  15
ENDBRANCH  10  13
ENDBRANCH   8  10
ENDBRANCH   3   8
BRANCH   5  21
ATOM     20  N   UNL     1      32.818 -23.725 -14.795  0.00  0.00    -0.191 NA
ATOM     21  C   UNL     1      33.268 -23.149 -15.697  0.00  0.00    +0.100 C 
ENDBRANCH   5  21
BRANCH   2  22
ATOM     22  C   UNL     1      35.833 -21.787 -15.417  0.00  0.00    +0.114 C 
BRANCH  22  25
ATOM     23  O   UNL     1      37.938 -22.972 -15.571  0.00  0.00    -0.275 OA
ATOM     24  N   UNL     1      36.067 -24.096 -14.780  0.00  0.00    -0.302 N 
ATOM     25  C   UNL     1      36.746 -22.988 -15.276  0.00  0.00    +0.227 C 
ATOM     26  H   UNL     1      35.108 -24.007 -14.573  0.00  0.00    +0.150 HD
BRANCH  24  27
ATOM     27  C   UNL     1      36.704 -25.366 -14.557  0.00  0.00    +0.125 C 
BRANCH  27  28
ATOM     28  C   UNL     1      36.841 -25.669 -13.076  0.00  0.00    +0.197 C 
BRANCH  28  29
ATOM     29  O   UNL     1      38.171 -26.081 -12.800  0.00  0.00    -0.232 OA
BRANCH  29  30
ATOM     30  N   UNL     1      39.041 -25.079 -13.255  0.00  0.00    -0.096 NA
BRANCH  30  33
ATOM     31  N   UNL     1      40.873 -26.546 -13.731  0.00  0.00    -0.368 N 
ATOM     32  N   UNL     1      40.029 -25.191 -15.366  0.00  0.00    -0.368 N 
ATOM     33  C   UNL     1      39.938 -25.590 -14.055  0.00  0.00    +0.217 C 
ATOM     34  H   UNL     1      40.907 -26.910 -12.817  0.00  0.00    +0.159 HD
ATOM     35  H   UNL     1      41.508 -26.865 -14.412  0.00  0.00    +0.159 HD
ATOM     36  H   UNL     1      39.412 -24.510 -15.718  0.00  0.00    +0.159 HD
ATOM     37  H   UNL     1      40.711 -25.586 -15.956  0.00  0.00    +0.159 HD
ENDBRANCH  30  33
ENDBRANCH  29  30
ENDBRANCH  28  29
ENDBRANCH  27  28
ENDBRANCH  24  27
ENDBRANCH  22  25
ENDBRANCH   2  22
TORSDOF 12
ENDMDL
MODEL 5
REMARK VINA RESULT:     -10.7      2.191      3.201
REMARK  Name = 9867609
REMARK  12 active torsions:
REMARK  status: ('A' for Active; 'I' for Inactive)
REMARK    1  A    between atoms: C_2  and  C_22
REMARK    2  A    between atoms: C_3  and  N_8
REMARK    3  A    between atoms: C_5  and  C_21
REMARK    4  A    between atoms: N_8  and  C_10
REMARK    5  A    between atoms: C_10  and  C_13
REMARK    6  A    between atoms: C_13  and  C_15
REMARK    7  A    between atoms: C_22  and  C_25
REMARK    8  A    between atoms: N_24  and  C_27
REMARK    9  A    between atoms: C_27  and  C_28
REMARK   10  A    between atoms: C_28  and  O_29
REMARK   11  A    between atoms: O_29  and  N_30
REMARK   12  A    between atoms: N_30  and  C_33
REMARK                            x       y       z     vdW  Elec       q    Type
REMARK                         _______ _______ _______ _____ _____    ______ ____
ROOT
ATOM      1  F   UNL     1      35.026 -22.462 -16.913  0.00  0.00    -0.203 F 
ATOM      2  C   UNL     1      33.405 -22.759 -15.210  0.00  0.00    +0.025 C 
ATOM      3  C   UNL     1      32.732 -22.421 -17.507  0.00  0.00    +0.072 C 
ATOM      4  C   UNL     1      33.738 -22.546 -16.548  0.00  0.00    +0.150 C 
ATOM      5  C   UNL     1      32.065 -22.846 -14.831  0.00  0.00    +0.067 C 
ATOM      6  C   UNL     1      31.393 -22.509 -17.127  0.00  0.00    +0.017 C 
ATOM      7  C   UNL     1      31.059 -22.722 -15.790  0.00  0.00    +0.011 C 
ENDROOT
BRANCH   3   8
ATOM      8  N   UNL     1      33.067 -22.207 -18.860  0.00  0.00    -0.326 N 
ATOM      9  H   UNL     1      33.134 -22.986 -19.457  0.00  0.00    +0.147 HD
BRANCH   8  10
ATOM     10  C   UNL     1      33.311 -20.907 -19.402  0.00  0.00    +0.161 C 
BRANCH  10  13
ATOM     11  F   UNL     1      35.246 -21.948 -20.227  0.00  0.00    -0.196 F 
ATOM     12  F   UNL     1      35.484 -20.541 -18.593  0.00  0.00    -0.196 F 
ATOM     13  C   UNL     1      34.791 -20.751 -19.751  0.00  0.00    +0.316 C 
BRANCH  13  15
ATOM     14  N   UNL     1      36.141 -18.922 -20.626  0.00  0.00    -0.243 NA
ATOM     15  C   UNL     1      34.996 -19.633 -20.742  0.00  0.00    +0.121 C 
ATOM     16  C   UNL     1      34.028 -19.391 -21.704  0.00  0.00    +0.020 C 
ATOM     17  C   UNL     1      34.248 -18.353 -22.603  0.00  0.00    +0.003 C 
ATOM     18  C   UNL     1      36.320 -17.921 -21.518  0.00  0.00    +0.099 C 
ATOM     19  C   UNL     1      35.413 -17.600 -22.515  0.00  0.00    +0.021 C 
ENDBRANCH  13  15
ENDBRANCH  10  13
ENDBRANCH   8  10
ENDBRANCH   3   8
BRANCH   5  21
ATOM     20  N   UNL     1      31.399 -23.243 -12.358  0.00  0.00    -0.191 NA
ATOM     21  C   UNL     1      31.698 -23.065 -13.465  0.00  0.00    +0.100 C 
ENDBRANCH   5  21
BRANCH   2  22
ATOM     22  C   UNL     1      34.515 -22.889 -14.201  0.00  0.00    +0.114 C 
BRANCH  22  25
ATOM     23  O   UNL     1      35.400 -24.850 -15.310  0.00  0.00    -0.275 OA
ATOM     24  N   UNL     1      35.678 -24.631 -13.015  0.00  0.00    -0.302 N 
ATOM     25  C   UNL     1      35.237 -24.220 -14.269  0.00  0.00    +0.227 C 
ATOM     26  H   UNL     1      35.496 -24.053 -12.239  0.00  0.00    +0.150 HD
BRANCH  24  27
ATOM     27  C   UNL     1      36.387 -25.864 -12.804  0.00  0.00    +0.125 C 
BRANCH  27  28
ATOM     28  C   UNL     1      37.669 -25.643 -12.021  0.00  0.00    +0.197 C 
BRANCH  28  29
ATOM     29  O   UNL     1      38.765 -25.569 -12.920  0.00  0.00    -0.232 OA
BRANCH  29  30
ATOM     30  N   UNL     1      38.816 -24.268 -13.440  0.00  0.00    -0.096 NA
BRANCH  30  33
ATOM     31  N   UNL     1      39.825 -25.186 -15.408  0.00  0.00    -0.368 N 
ATOM     32  N   UNL     1      38.391 -23.414 -15.571  0.00  0.00    -0.368 N 
ATOM     33  C   UNL     1      39.013 -24.304 -14.731  0.00  0.00    +0.217 C 
ATOM     34  H   UNL     1      40.326 -25.873 -14.911  0.00  0.00    +0.159 HD
ATOM     35  H   UNL     1      39.906 -25.128 -16.387  0.00  0.00    +0.159 HD
ATOM     36  H   UNL     1      37.783 -22.732 -15.203  0.00  0.00    +0.159 HD
ATOM     37  H   UNL     1      38.552 -23.456 -16.541  0.00  0.00    +0.159 HD
ENDBRANCH  30  33
ENDBRANCH  29  30
ENDBRANCH  28  29
ENDBRANCH  27  28
ENDBRANCH  24  27
ENDBRANCH  22  25
ENDBRANCH   2  22
TORSDOF 12
ENDMDL
MODEL 6
REMARK VINA RESULT:     -10.7      6.239     12.373
REMARK  Name = 9867609
REMARK  12 active torsions:
REMARK  status: ('A' for Active; 'I' for Inactive)
REMARK    1  A    between atoms: C_2  and  C_22
REMARK    2  A    between atoms: C_3  and  N_8
REMARK    3  A    between atoms: C_5  and  C_21
REMARK    4  A    between atoms: N_8  and  C_10
REMARK    5  A    between atoms: C_10  and  C_13
REMARK    6  A    between atoms: C_13  and  C_15
REMARK    7  A    between atoms: C_22  and  C_25
REMARK    8  A    between atoms: N_24  and  C_27
REMARK    9  A    between atoms: C_27  and  C_28
REMARK   10  A    between atoms: C_28  and  O_29
REMARK   11  A    between atoms: O_29  and  N_30
REMARK   12  A    between atoms: N_30  and  C_33
REMARK                            x       y       z     vdW  Elec       q    Type
REMARK                         _______ _______ _______ _____ _____    ______ ____
ROOT
ATOM      1  F   UNL     1      33.680 -14.647 -24.345  0.00  0.00    -0.203 F 
ATOM      2  C   UNL     1      32.820 -13.385 -22.534  0.00  0.00    +0.025 C 
ATOM      3  C   UNL     1      34.207 -15.323 -22.135  0.00  0.00    +0.072 C 
ATOM      4  C   UNL     1      33.570 -14.454 -23.022  0.00  0.00    +0.150 C 
ATOM      5  C   UNL     1      32.705 -13.185 -21.157  0.00  0.00    +0.067 C 
ATOM      6  C   UNL     1      34.093 -15.123 -20.760  0.00  0.00    +0.017 C 
ATOM      7  C   UNL     1      33.343 -14.054 -20.271  0.00  0.00    +0.011 C 
ENDROOT
BRANCH   3   8
ATOM      8  N   UNL     1      34.967 -16.405 -22.628  0.00  0.00    -0.326 N 
ATOM      9  H   UNL     1      35.800 -16.212 -23.116  0.00  0.00    +0.147 HD
BRANCH   8  10
ATOM     10  C   UNL     1      34.581 -17.770 -22.448  0.00  0.00    +0.161 C 
BRANCH  10  13
ATOM     11  F   UNL     1      36.165 -17.514 -20.735  0.00  0.00    -0.196 F 
ATOM     12  F   UNL     1      36.545 -19.037 -22.232  0.00  0.00    -0.196 F 
ATOM     13  C   UNL     1      35.547 -18.469 -21.492  0.00  0.00    +0.316 C 
BRANCH  13  15
ATOM     14  N   UNL     1      35.593 -20.273 -19.858  0.00  0.00    -0.243 NA
ATOM     15  C   UNL     1      34.825 -19.486 -20.644  0.00  0.00    +0.121 C 
ATOM     16  C   UNL     1      33.443 -19.564 -20.706  0.00  0.00    +0.020 C 
ATOM     17  C   UNL     1      32.808 -20.512 -19.911  0.00  0.00    +0.003 C 
ATOM     18  C   UNL     1      34.940 -21.183 -19.098  0.00  0.00    +0.099 C 
ATOM     19  C   UNL     1      33.564 -21.340 -19.088  0.00  0.00    +0.021 C 
ENDBRANCH  13  15
ENDBRANCH  10  13
ENDBRANCH   8  10
ENDBRANCH   3   8
BRANCH   5  21
ATOM     20  N   UNL     1      31.324 -11.210 -20.204  0.00  0.00    -0.191 NA
ATOM     21  C   UNL     1      31.942 -12.094 -20.631  0.00  0.00    +0.100 C 
ENDBRANCH   5  21
BRANCH   2  22
ATOM     22  C   UNL     1      32.145 -12.466 -23.517  0.00  0.00    +0.114 C 
BRANCH  22  25
ATOM     23  O   UNL     1      33.966 -10.937 -23.977  0.00  0.00    -0.275 OA
ATOM     24  N   UNL     1      31.934 -10.083 -23.246  0.00  0.00    -0.302 N 
ATOM     25  C   UNL     1      32.803 -11.104 -23.616  0.00  0.00    +0.227 C 
ATOM     26  H   UNL     1      31.019 -10.321 -22.971  0.00  0.00    +0.150 HD
BRANCH  24  27
ATOM     27  C   UNL     1      32.314  -8.696 -23.247  0.00  0.00    +0.125 C 
BRANCH  27  28
ATOM     28  C   UNL     1      31.107  -7.787 -23.092  0.00  0.00    +0.197 C 
BRANCH  28  29
ATOM     29  O   UNL     1      31.087  -7.250 -21.778  0.00  0.00    -0.232 OA
BRANCH  29  30
ATOM     30  N   UNL     1      32.290  -7.598 -21.146  0.00  0.00    -0.096 NA
BRANCH  30  33
ATOM     31  N   UNL     1      32.514  -6.221 -19.200  0.00  0.00    -0.368 N 
ATOM     32  N   UNL     1      31.763  -8.371 -19.008  0.00  0.00    -0.368 N 
ATOM     33  C   UNL     1      32.201  -7.388 -19.860  0.00  0.00    +0.217 C 
ATOM     34  H   UNL     1      32.842  -5.443 -19.706  0.00  0.00    +0.159 HD
ATOM     35  H   UNL     1      32.413  -6.167 -18.223  0.00  0.00    +0.159 HD
ATOM     36  H   UNL     1      31.508  -9.253 -19.363  0.00  0.00    +0.159 HD
ATOM     37  H   UNL     1      31.703  -8.195 -18.041  0.00  0.00    +0.159 HD
ENDBRANCH  30  33
ENDBRANCH  29  30
ENDBRANCH  28  29
ENDBRANCH  27  28
ENDBRANCH  24  27
ENDBRANCH  22  25
ENDBRANCH   2  22
TORSDOF 12
ENDMDL
MODEL 7
REMARK VINA RESULT:     -10.7      1.677      2.078
REMARK  Name = 9867609
REMARK  12 active torsions:
REMARK  status: ('A' for Active; 'I' for Inactive)
REMARK    1  A    between atoms: C_2  and  C_22
REMARK    2  A    between atoms: C_3  and  N_8
REMARK    3  A    between atoms: C_5  and  C_21
REMARK    4  A    between atoms: N_8  and  C_10
REMARK    5  A    between atoms: C_10  and  C_13
REMARK    6  A    between atoms: C_13  and  C_15
REMARK    7  A    between atoms: C_22  and  C_25
REMARK    8  A    between atoms: N_24  and  C_27
REMARK    9  A    between atoms: C_27  and  C_28
REMARK   10  A    between atoms: C_28  and  O_29
REMARK   11  A    between atoms: O_29  and  N_30
REMARK   12  A    between atoms: N_30  and  C_33
REMARK                            x       y       z     vdW  Elec       q    Type
REMARK                         _______ _______ _______ _____ _____    ______ ____
ROOT
ATOM      1  F   UNL     1      35.374 -21.981 -17.492  0.00  0.00    -0.203 F 
ATOM      2  C   UNL     1      34.008 -22.590 -15.654  0.00  0.00    +0.025 C 
ATOM      3  C   UNL     1      33.043 -22.232 -17.840  0.00  0.00    +0.072 C 
ATOM      4  C   UNL     1      34.158 -22.264 -17.002  0.00  0.00    +0.150 C 
ATOM      5  C   UNL     1      32.743 -22.884 -15.144  0.00  0.00    +0.067 C 
ATOM      6  C   UNL     1      31.778 -22.526 -17.331  0.00  0.00    +0.017 C 
ATOM      7  C   UNL     1      31.629 -22.853 -15.983  0.00  0.00    +0.011 C 
ENDROOT
BRANCH   3   8
ATOM      8  N   UNL     1      33.192 -21.903 -19.204  0.00  0.00    -0.326 N 
ATOM      9  H   UNL     1      33.270 -22.634 -19.859  0.00  0.00    +0.147 HD
BRANCH   8  10
ATOM     10  C   UNL     1      33.235 -20.554 -19.676  0.00  0.00    +0.161 C 
BRANCH  10  13
ATOM     11  F   UNL     1      35.129 -21.354 -20.809  0.00  0.00    -0.196 F 
ATOM     12  F   UNL     1      35.453 -19.986 -19.157  0.00  0.00    -0.196 F 
ATOM     13  C   UNL     1      34.627 -20.229 -20.218  0.00  0.00    +0.316 C 
BRANCH  13  15
ATOM     14  N   UNL     1      34.990 -17.869 -20.694  0.00  0.00    -0.243 NA
ATOM     15  C   UNL     1      34.575 -19.063 -21.173  0.00  0.00    +0.121 C 
ATOM     16  C   UNL     1      34.116 -19.263 -22.465  0.00  0.00    +0.020 C 
ATOM     17  C   UNL     1      34.081 -18.167 -23.321  0.00  0.00    +0.003 C 
ATOM     18  C   UNL     1      34.943 -16.826 -21.555  0.00  0.00    +0.099 C 
ATOM     19  C   UNL     1      34.500 -16.923 -22.864  0.00  0.00    +0.021 C 
ENDBRANCH  13  15
ENDBRANCH  10  13
ENDBRANCH   8  10
ENDBRANCH   3   8
BRANCH   5  21
ATOM     20  N   UNL     1      32.417 -23.498 -12.647  0.00  0.00    -0.191 NA
ATOM     21  C   UNL     1      32.563 -23.223 -13.765  0.00  0.00    +0.100 C 
ENDBRANCH   5  21
BRANCH   2  22
ATOM     22  C   UNL     1      35.231 -22.614 -14.776  0.00  0.00    +0.114 C 
BRANCH  22  25
ATOM     23  O   UNL     1      35.464 -24.998 -15.132  0.00  0.00    -0.275 OA
ATOM     24  N   UNL     1      37.329 -23.764 -14.506  0.00  0.00    -0.302 N 
ATOM     25  C   UNL     1      35.987 -23.927 -14.834  0.00  0.00    +0.227 C 
ATOM     26  H   UNL     1      37.652 -22.862 -14.281  0.00  0.00    +0.150 HD
BRANCH  24  27
ATOM     27  C   UNL     1      38.264 -24.856 -14.481  0.00  0.00    +0.125 C 
BRANCH  27  28
ATOM     28  C   UNL     1      38.798 -25.101 -13.081  0.00  0.00    +0.197 C 
BRANCH  28  29
ATOM     29  O   UNL     1      38.499 -23.982 -12.260  0.00  0.00    -0.232 OA
BRANCH  29  30
ATOM     30  N   UNL     1      37.648 -24.411 -11.231  0.00  0.00    -0.096 NA
BRANCH  30  33
ATOM     31  N   UNL     1      35.261 -24.219 -11.268  0.00  0.00    -0.368 N 
ATOM     32  N   UNL     1      36.566 -22.343 -11.223  0.00  0.00    -0.368 N 
ATOM     33  C   UNL     1      36.542 -23.716 -11.240  0.00  0.00    +0.217 C 
ATOM     34  H   UNL     1      35.116 -25.193 -11.283  0.00  0.00    +0.159 HD
ATOM     35  H   UNL     1      34.492 -23.606 -11.274  0.00  0.00    +0.159 HD
ATOM     36  H   UNL     1      37.426 -21.865 -11.203  0.00  0.00    +0.159 HD
ATOM     37  H   UNL     1      35.722 -21.835 -11.231  0.00  0.00    +0.159 HD
ENDBRANCH  30  33
ENDBRANCH  29  30
ENDBRANCH  28  29
ENDBRANCH  27  28
ENDBRANCH  24  27
ENDBRANCH  22  25
ENDBRANCH   2  22
TORSDOF 12
ENDMDL
MODEL 8
REMARK VINA RESULT:     -10.6      6.674     10.973
REMARK  Name = 9867609
REMARK  12 active torsions:
REMARK  status: ('A' for Active; 'I' for Inactive)
REMARK    1  A    between atoms: C_2  and  C_22
REMARK    2  A    between atoms: C_3  and  N_8
REMARK    3  A    between atoms: C_5  and  C_21
REMARK    4  A    between atoms: N_8  and  C_10
REMARK    5  A    between atoms: C_10  and  C_13
REMARK    6  A    between atoms: C_13  and  C_15
REMARK    7  A    between atoms: C_22  and  C_25
REMARK    8  A    between atoms: N_24  and  C_27
REMARK    9  A    between atoms: C_27  and  C_28
REMARK   10  A    between atoms: C_28  and  O_29
REMARK   11  A    between atoms: O_29  and  N_30
REMARK   12  A    between atoms: N_30  and  C_33
REMARK                            x       y       z     vdW  Elec       q    Type
REMARK                         _______ _______ _______ _____ _____    ______ ____
ROOT
ATOM      1  F   UNL     1      33.009 -12.173 -24.269  0.00  0.00    -0.203 F 
ATOM      2  C   UNL     1      33.566 -13.796 -22.636  0.00  0.00    +0.025 C 
ATOM      3  C   UNL     1      32.052 -11.989 -22.108  0.00  0.00    +0.072 C 
ATOM      4  C   UNL     1      32.878 -12.646 -23.021  0.00  0.00    +0.150 C 
ATOM      5  C   UNL     1      33.431 -14.288 -21.338  0.00  0.00    +0.067 C 
ATOM      6  C   UNL     1      31.916 -12.481 -20.811  0.00  0.00    +0.017 C 
ATOM      7  C   UNL     1      32.604 -13.631 -20.426  0.00  0.00    +0.011 C 
ENDROOT
BRANCH   3   8
ATOM      8  N   UNL     1      31.354 -10.825 -22.496  0.00  0.00    -0.326 N 
ATOM      9  H   UNL     1      30.838 -10.844 -23.334  0.00  0.00    +0.147 HD
BRANCH   8  10
ATOM     10  C   UNL     1      31.364  -9.622 -21.725  0.00  0.00    +0.161 C 
BRANCH  10  13
ATOM     11  F   UNL     1      31.261  -8.611 -23.841  0.00  0.00    -0.196 F 
ATOM     12  F   UNL     1      33.148  -8.515 -22.775  0.00  0.00    -0.196 F 
ATOM     13  C   UNL     1      31.796  -8.442 -22.595  0.00  0.00    +0.316 C 
BRANCH  13  15
ATOM     14  N   UNL     1      30.504  -6.379 -22.677  0.00  0.00    -0.243 NA
ATOM     15  C   UNL     1      31.379  -7.132 -21.974  0.00  0.00    +0.121 C 
ATOM     16  C   UNL     1      31.898  -6.770 -20.741  0.00  0.00    +0.020 C 
ATOM     17  C   UNL     1      31.493  -5.556 -20.195  0.00  0.00    +0.003 C 
ATOM     18  C   UNL     1      30.133  -5.206 -22.114  0.00  0.00    +0.099 C 
ATOM     19  C   UNL     1      30.594  -4.754 -20.889  0.00  0.00    +0.021 C 
ENDBRANCH  13  15
ENDBRANCH  10  13
ENDBRANCH   8  10
ENDBRANCH   3   8
BRANCH   5  21
ATOM     20  N   UNL     1      34.689 -16.424 -20.579  0.00  0.00    -0.191 NA
ATOM     21  C   UNL     1      34.125 -15.468 -20.919  0.00  0.00    +0.100 C 
ENDBRANCH   5  21
BRANCH   2  22
ATOM     22  C   UNL     1      34.449 -14.482 -23.645  0.00  0.00    +0.114 C 
BRANCH  22  25
ATOM     23  O   UNL     1      33.099 -15.311 -25.476  0.00  0.00    -0.275 OA
ATOM     24  N   UNL     1      33.871 -16.807 -23.876  0.00  0.00    -0.302 N 
ATOM     25  C   UNL     1      33.730 -15.547 -24.449  0.00  0.00    +0.227 C 
ATOM     26  H   UNL     1      34.398 -16.892 -23.049  0.00  0.00    +0.150 HD
BRANCH  24  27
ATOM     27  C   UNL     1      33.279 -17.990 -24.441  0.00  0.00    +0.125 C 
BRANCH  27  28
ATOM     28  C   UNL     1      34.086 -19.232 -24.105  0.00  0.00    +0.197 C 
BRANCH  28  29
ATOM     29  O   UNL     1      34.632 -19.101 -22.801  0.00  0.00    -0.232 OA
BRANCH  29  30
ATOM     30  N   UNL     1      33.602 -19.315 -21.873  0.00  0.00    -0.096 NA
BRANCH  30  33
ATOM     31  N   UNL     1      35.385 -19.505 -20.286  0.00  0.00    -0.368 N 
ATOM     32  N   UNL     1      33.332 -20.396 -19.822  0.00  0.00    -0.368 N 
ATOM     33  C   UNL     1      34.098 -19.708 -20.731  0.00  0.00    +0.217 C 
ATOM     34  H   UNL     1      36.030 -19.023 -20.852  0.00  0.00    +0.159 HD
ATOM     35  H   UNL     1      35.661 -19.845 -19.405  0.00  0.00    +0.159 HD
ATOM     36  H   UNL     1      32.391 -20.602 -20.027  0.00  0.00    +0.159 HD
ATOM     37  H   UNL     1      33.723 -20.685 -18.966  0.00  0.00    +0.159 HD
ENDBRANCH  30  33
ENDBRANCH  29  30
ENDBRANCH  28  29
ENDBRANCH  27  28
ENDBRANCH  24  27
ENDBRANCH  22  25
ENDBRANCH   2  22
TORSDOF 12
ENDMDL
MODEL 9
REMARK VINA RESULT:     -10.6      2.460      3.572
REMARK  Name = 9867609
REMARK  12 active torsions:
REMARK  status: ('A' for Active; 'I' for Inactive)
REMARK    1  A    between atoms: C_2  and  C_22
REMARK    2  A    between atoms: C_3  and  N_8
REMARK    3  A    between atoms: C_5  and  C_21
REMARK    4  A    between atoms: N_8  and  C_10
REMARK    5  A    between atoms: C_10  and  C_13
REMARK    6  A    between atoms: C_13  and  C_15
REMARK    7  A    between atoms: C_22  and  C_25
REMARK    8  A    between atoms: N_24  and  C_27
REMARK    9  A    between atoms: C_27  and  C_28
REMARK   10  A    between atoms: C_28  and  O_29
REMARK   11  A    between atoms: O_29  and  N_30
REMARK   12  A    between atoms: N_30  and  C_33
REMARK                            x       y       z     vdW  Elec       q    Type
REMARK                         _______ _______ _______ _____ _____    ______ ____
ROOT
ATOM      1  F   UNL     1      32.495 -21.703 -19.875  0.00  0.00    -0.203 F 
ATOM      2  C   UNL     1      34.028 -22.154 -18.125  0.00  0.00    +0.025 C 
ATOM      3  C   UNL     1      34.540 -20.506 -19.817  0.00  0.00    +0.072 C 
ATOM      4  C   UNL     1      33.672 -21.458 -19.280  0.00  0.00    +0.150 C 
ATOM      5  C   UNL     1      35.252 -21.900 -17.508  0.00  0.00    +0.067 C 
ATOM      6  C   UNL     1      35.764 -20.251 -19.199  0.00  0.00    +0.017 C 
ATOM      7  C   UNL     1      36.120 -20.947 -18.044  0.00  0.00    +0.011 C 
ENDROOT
BRANCH   3   8
ATOM      8  N   UNL     1      34.181 -19.800 -20.985  0.00  0.00    -0.326 N 
ATOM      9  H   UNL     1      33.661 -20.269 -21.676  0.00  0.00    +0.147 HD
BRANCH   8  10
ATOM     10  C   UNL     1      34.539 -18.434 -21.206  0.00  0.00    +0.161 C 
BRANCH  10  13
ATOM     11  F   UNL     1      34.242 -19.198 -23.405  0.00  0.00    -0.196 F 
ATOM     12  F   UNL     1      36.179 -18.371 -22.885  0.00  0.00    -0.196 F 
ATOM     13  C   UNL     1      34.838 -18.201 -22.687  0.00  0.00    +0.316 C 
BRANCH  13  15
ATOM     14  N   UNL     1      33.869 -16.735 -24.373  0.00  0.00    -0.243 NA
ATOM     15  C   UNL     1      34.372 -16.834 -23.122  0.00  0.00    +0.121 C 
ATOM     16  C   UNL     1      34.476 -15.768 -22.242  0.00  0.00    +0.020 C 
ATOM     17  C   UNL     1      34.037 -14.521 -22.674  0.00  0.00    +0.003 C 
ATOM     18  C   UNL     1      33.452 -15.507 -24.758  0.00  0.00    +0.099 C 
ATOM     19  C   UNL     1      33.514 -14.380 -23.955  0.00  0.00    +0.021 C 
ENDBRANCH  13  15
ENDBRANCH  10  13
ENDBRANCH   8  10
ENDBRANCH   3   8
BRANCH   5  21
ATOM     20  N   UNL     1      35.954 -23.167 -15.358  0.00  0.00    -0.191 NA
ATOM     21  C   UNL     1      35.640 -22.600 -16.321  0.00  0.00    +0.100 C 
ENDBRANCH   5  21
BRANCH   2  22
ATOM     22  C   UNL     1      33.069 -23.175 -17.572  0.00  0.00    +0.114 C 
BRANCH  22  25
ATOM     23  O   UNL     1      31.045 -21.892 -17.223  0.00  0.00    -0.275 OA
ATOM     24  N   UNL     1      32.095 -22.862 -15.393  0.00  0.00    -0.302 N 
ATOM     25  C   UNL     1      31.954 -22.566 -16.745  0.00  0.00    +0.227 C 
ATOM     26  H   UNL     1      32.861 -23.412 -15.109  0.00  0.00    +0.150 HD
BRANCH  24  27
ATOM     27  C   UNL     1      31.172 -22.399 -14.393  0.00  0.00    +0.125 C 
BRANCH  27  28
ATOM     28  C   UNL     1      30.949 -23.443 -13.313  0.00  0.00    +0.197 C 
BRANCH  28  29
ATOM     29  O   UNL     1      32.170 -24.121 -13.054  0.00  0.00    -0.232 OA
BRANCH  29  30
ATOM     30  N   UNL     1      33.043 -23.222 -12.424  0.00  0.00    -0.096 NA
BRANCH  30  33
ATOM     31  N   UNL     1      34.705 -24.735 -13.251  0.00  0.00    -0.368 N 
ATOM     32  N   UNL     1      35.323 -22.885 -12.058  0.00  0.00    -0.368 N 
ATOM     33  C   UNL     1      34.280 -23.610 -12.581  0.00  0.00    +0.217 C 
ATOM     34  H   UNL     1      34.046 -25.335 -13.668  0.00  0.00    +0.159 HD
ATOM     35  H   UNL     1      35.665 -24.939 -13.310  0.00  0.00    +0.159 HD
ATOM     36  H   UNL     1      35.145 -22.057 -11.556  0.00  0.00    +0.159 HD
ATOM     37  H   UNL     1      36.250 -23.193 -12.185  0.00  0.00    +0.159 HD
ENDBRANCH  30  33
ENDBRANCH  29  30
ENDBRANCH  28  29
ENDBRANCH  27  28
ENDBRANCH  24  27
ENDBRANCH  22  25
ENDBRANCH   2  22
TORSDOF 12
ENDMDL
