MODEL 1
REMARK VINA RESULT:     -12.4      0.000      0.000
REMARK  Name = 5327066
REMARK  6 active torsions:
REMARK  status: ('A' for Active; 'I' for Inactive)
REMARK    1  A    between atoms: C_2  and  C_6
REMARK    2  A    between atoms: C_2  and  C_20
REMARK    3  A    between atoms: C_3  and  O_9
REMARK    4  A    between atoms: O_9  and  C_11
REMARK    5  A    between atoms: N_18  and  C_24
REMARK    6  A    between atoms: C_21  and  N_30
REMARK                            x       y       z     vdW  Elec       q    Type
REMARK                         _______ _______ _______ _____ _____    ______ ____
ROOT
ATOM      1  O   UNL     1      33.429 -23.471 -19.528  0.00  0.00    -0.286 OA
ATOM      2  C   UNL     1      33.705 -22.484 -18.828  0.00  0.00    +0.200 C 
ENDROOT
BRANCH   2   6
ATOM      3  C   UNL     1      34.008 -22.519 -15.100  0.00  0.00    +0.138 C 
ATOM      4  C   UNL     1      34.354 -22.496 -16.446  0.00  0.00    +0.040 C 
ATOM      5  C   UNL     1      32.674 -22.553 -14.712  0.00  0.00    +0.037 C 
ATOM      6  C   UNL     1      33.352 -22.508 -17.417  0.00  0.00    +0.042 C 
ATOM      7  C   UNL     1      31.672 -22.564 -15.682  0.00  0.00    +0.003 C 
ATOM      8  C   UNL     1      32.011 -22.542 -17.035  0.00  0.00    +0.003 C 
BRANCH   3   9
ATOM      9  O   UNL     1      34.992 -22.507 -14.147  0.00  0.00    -0.479 OA
BRANCH   9  11
ATOM     10  N   UNL     1      37.829 -23.803 -12.392  0.00  0.00    +0.384 N 
ATOM     11  C   UNL     1      35.037 -23.621 -13.257  0.00  0.00    +0.162 C 
ATOM     12  C   UNL     1      35.497 -23.160 -11.873  0.00  0.00    +0.020 C 
ATOM     13  C   UNL     1      36.002 -24.662 -13.823  0.00  0.00    +0.020 C 
ATOM     14  C   UNL     1      36.967 -22.737 -11.879  0.00  0.00    -0.078 C 
ATOM     15  C   UNL     1      37.454 -24.185 -13.754  0.00  0.00    -0.078 C 
ATOM     16  H   UNL     1      37.745 -24.618 -11.784  0.00  0.00    -0.085 HD
ATOM     17  H   UNL     1      38.789 -23.459 -12.408  0.00  0.00    -0.085 HD
ENDBRANCH   9  11
ENDBRANCH   3   9
ENDBRANCH   2   6
BRANCH   2  20
ATOM     18  N   UNL     1      34.744 -19.499 -20.510  0.00  0.00    -0.177 N 
ATOM     19  N   UNL     1      35.940 -19.811 -19.986  0.00  0.00    -0.171 NA
ATOM     20  C   UNL     1      34.367 -21.306 -19.425  0.00  0.00    +0.088 C 
ATOM     21  C   UNL     1      33.755 -20.383 -20.192  0.00  0.00    +0.122 C 
ATOM     22  C   UNL     1      35.692 -20.938 -19.313  0.00  0.00    +0.124 C 
BRANCH  18  24
ATOM     23  F   UNL     1      34.246 -14.973 -23.617  0.00  0.00    -0.204 F 
ATOM     24  C   UNL     1      34.617 -18.353 -21.297  0.00  0.00    +0.075 C 
ATOM     25  C   UNL     1      34.415 -18.480 -22.665  0.00  0.00    +0.019 C 
ATOM     26  C   UNL     1      34.696 -17.102 -20.701  0.00  0.00    +0.019 C 
ATOM     27  C   UNL     1      34.290 -17.335 -23.450  0.00  0.00    +0.031 C 
ATOM     28  C   UNL     1      34.570 -15.956 -21.487  0.00  0.00    +0.031 C 
ATOM     29  C   UNL     1      34.367 -16.073 -22.862  0.00  0.00    +0.140 C 
ENDBRANCH  18  24
BRANCH  21  30
ATOM     30  N   UNL     1      32.485 -20.231 -20.631  0.00  0.00    -0.344 N 
ATOM     31  H   UNL     1      32.312 -20.031 -21.579  0.00  0.00    +0.144 HD
ATOM     32  H   UNL     1      31.733 -20.321 -20.002  0.00  0.00    +0.144 HD
ENDBRANCH  21  30
ENDBRANCH   2  20
TORSDOF 6
ENDMDL
MODEL 2
REMARK VINA RESULT:     -12.3      2.249      3.509
REMARK  Name = 5327066
REMARK  6 active torsions:
REMARK  status: ('A' for Active; 'I' for Inactive)
REMARK    1  A    between atoms: C_2  and  C_6
REMARK    2  A    between atoms: C_2  and  C_20
REMARK    3  A    between atoms: C_3  and  O_9
REMARK    4  A    between atoms: O_9  and  C_11
REMARK    5  A    between atoms: N_18  and  C_24
REMARK    6  A    between atoms: C_21  and  N_30
REMARK                            x       y       z     vdW  Elec       q    Type
REMARK                         _______ _______ _______ _____ _____    ______ ____
ROOT
ATOM      1  O   UNL     1      33.359 -22.982 -19.472  0.00  0.00    -0.286 OA
ATOM      2  C   UNL     1      34.012 -22.141 -18.835  0.00  0.00    +0.200 C 
ENDROOT
BRANCH   2   6
ATOM      3  C   UNL     1      33.313 -23.090 -15.284  0.00  0.00    +0.138 C 
ATOM      4  C   UNL     1      33.154 -22.920 -16.655  0.00  0.00    +0.040 C 
ATOM      5  C   UNL     1      34.476 -22.669 -14.649  0.00  0.00    +0.037 C 
ATOM      6  C   UNL     1      34.171 -22.322 -17.400  0.00  0.00    +0.042 C 
ATOM      7  C   UNL     1      35.493 -22.072 -15.394  0.00  0.00    +0.003 C 
ATOM      8  C   UNL     1      35.340 -21.898 -16.769  0.00  0.00    +0.003 C 
BRANCH   3   9
ATOM      9  O   UNL     1      32.315 -23.678 -14.553  0.00  0.00    -0.479 OA
BRANCH   9  11
ATOM     10  N   UNL     1      29.075 -24.966 -13.750  0.00  0.00    +0.384 N 
ATOM     11  C   UNL     1      31.089 -22.957 -14.446  0.00  0.00    +0.162 C 
ATOM     12  C   UNL     1      30.528 -23.098 -13.030  0.00  0.00    +0.020 C 
ATOM     13  C   UNL     1      30.102 -23.515 -15.471  0.00  0.00    +0.020 C 
ATOM     14  C   UNL     1      30.049 -24.524 -12.752  0.00  0.00    -0.078 C 
ATOM     15  C   UNL     1      29.636 -24.924 -15.100  0.00  0.00    -0.078 C 
ATOM     16  H   UNL     1      28.259 -24.354 -13.711  0.00  0.00    -0.085 HD
ATOM     17  H   UNL     1      28.816 -25.930 -13.540  0.00  0.00    -0.085 HD
ENDBRANCH   9  11
ENDBRANCH   3   9
ENDBRANCH   2   6
BRANCH   2  20
ATOM     18  N   UNL     1      34.858 -19.204 -20.700  0.00  0.00    -0.177 N 
ATOM     19  N   UNL     1      36.096 -19.470 -20.251  0.00  0.00    -0.171 NA
ATOM     20  C   UNL     1      34.602 -20.973 -19.522  0.00  0.00    +0.088 C 
ATOM     21  C   UNL     1      33.915 -20.095 -20.278  0.00  0.00    +0.122 C 
ATOM     22  C   UNL     1      35.922 -20.574 -19.519  0.00  0.00    +0.124 C 
BRANCH  18  24
ATOM     23  F   UNL     1      34.031 -14.818 -23.934  0.00  0.00    -0.204 F 
ATOM     24  C   UNL     1      34.649 -18.093 -21.519  0.00  0.00    +0.075 C 
ATOM     25  C   UNL     1      34.688 -16.819 -20.968  0.00  0.00    +0.019 C 
ATOM     26  C   UNL     1      34.404 -18.278 -22.873  0.00  0.00    +0.019 C 
ATOM     27  C   UNL     1      34.478 -15.710 -21.786  0.00  0.00    +0.031 C 
ATOM     28  C   UNL     1      34.194 -17.168 -23.691  0.00  0.00    +0.031 C 
ATOM     29  C   UNL     1      34.232 -15.884 -23.148  0.00  0.00    +0.140 C 
ENDBRANCH  18  24
BRANCH  21  30
ATOM     30  N   UNL     1      32.614 -19.987 -20.629  0.00  0.00    -0.344 N 
ATOM     31  H   UNL     1      32.122 -20.779 -20.947  0.00  0.00    +0.144 HD
ATOM     32  H   UNL     1      32.158 -19.117 -20.568  0.00  0.00    +0.144 HD
ENDBRANCH  21  30
ENDBRANCH   2  20
TORSDOF 6
ENDMDL
MODEL 3
REMARK VINA RESULT:     -12.0      1.069      1.643
REMARK  Name = 5327066
REMARK  6 active torsions:
REMARK  status: ('A' for Active; 'I' for Inactive)
REMARK    1  A    between atoms: C_2  and  C_6
REMARK    2  A    between atoms: C_2  and  C_20
REMARK    3  A    between atoms: C_3  and  O_9
REMARK    4  A    between atoms: O_9  and  C_11
REMARK    5  A    between atoms: N_18  and  C_24
REMARK    6  A    between atoms: C_21  and  N_30
REMARK                            x       y       z     vdW  Elec       q    Type
REMARK                         _______ _______ _______ _____ _____    ______ ____
ROOT
ATOM      1  O   UNL     1      33.042 -23.554 -19.047  0.00  0.00    -0.286 OA
ATOM      2  C   UNL     1      33.580 -22.653 -18.386  0.00  0.00    +0.200 C 
ENDROOT
BRANCH   2   6
ATOM      3  C   UNL     1      34.562 -23.164 -14.812  0.00  0.00    +0.138 C 
ATOM      4  C   UNL     1      34.635 -23.104 -16.199  0.00  0.00    +0.040 C 
ATOM      5  C   UNL     1      33.383 -22.843 -14.150  0.00  0.00    +0.037 C 
ATOM      6  C   UNL     1      33.513 -22.718 -16.933  0.00  0.00    +0.042 C 
ATOM      7  C   UNL     1      32.262 -22.456 -14.884  0.00  0.00    +0.003 C 
ATOM      8  C   UNL     1      32.326 -22.394 -16.276  0.00  0.00    +0.003 C 
BRANCH   3   9
ATOM      9  O   UNL     1      35.664 -23.543 -14.091  0.00  0.00    -0.479 OA
BRANCH   9  11
ATOM     10  N   UNL     1      38.118 -25.731 -12.679  0.00  0.00    +0.384 N 
ATOM     11  C   UNL     1      36.646 -24.316 -14.778  0.00  0.00    +0.162 C 
ATOM     12  C   UNL     1      36.432 -25.802 -14.488  0.00  0.00    +0.020 C 
ATOM     13  C   UNL     1      38.032 -23.873 -14.311  0.00  0.00    +0.020 C 
ATOM     14  C   UNL     1      36.760 -26.146 -13.034  0.00  0.00    -0.078 C 
ATOM     15  C   UNL     1      38.302 -24.292 -12.864  0.00  0.00    -0.078 C 
ATOM     16  H   UNL     1      38.782 -26.230 -13.271  0.00  0.00    -0.085 HD
ATOM     17  H   UNL     1      38.273 -25.950 -11.695  0.00  0.00    -0.085 HD
ENDBRANCH   9  11
ENDBRANCH   3   9
ENDBRANCH   2   6
BRANCH   2  20
ATOM     18  N   UNL     1      34.675 -19.822 -20.284  0.00  0.00    -0.177 N 
ATOM     19  N   UNL     1      35.860 -20.101 -19.716  0.00  0.00    -0.171 NA
ATOM     20  C   UNL     1      34.263 -21.532 -19.064  0.00  0.00    +0.088 C 
ATOM     21  C   UNL     1      33.672 -20.669 -19.913  0.00  0.00    +0.122 C 
ATOM     22  C   UNL     1      35.589 -21.167 -18.959  0.00  0.00    +0.124 C 
BRANCH  18  24
ATOM     23  F   UNL     1      34.268 -15.558 -23.754  0.00  0.00    -0.204 F 
ATOM     24  C   UNL     1      34.572 -18.742 -21.163  0.00  0.00    +0.075 C 
ATOM     25  C   UNL     1      34.875 -17.463 -20.715  0.00  0.00    +0.019 C 
ATOM     26  C   UNL     1      34.168 -18.962 -22.473  0.00  0.00    +0.019 C 
ATOM     27  C   UNL     1      34.771 -16.385 -21.592  0.00  0.00    +0.031 C 
ATOM     28  C   UNL     1      34.065 -17.883 -23.351  0.00  0.00    +0.031 C 
ATOM     29  C   UNL     1      34.367 -16.594 -22.910  0.00  0.00    +0.140 C 
ENDBRANCH  18  24
BRANCH  21  30
ATOM     30  N   UNL     1      32.411 -20.543 -20.384  0.00  0.00    -0.344 N 
ATOM     31  H   UNL     1      31.902 -21.342 -20.649  0.00  0.00    +0.144 HD
ATOM     32  H   UNL     1      32.002 -19.651 -20.461  0.00  0.00    +0.144 HD
ENDBRANCH  21  30
ENDBRANCH   2  20
TORSDOF 6
ENDMDL
MODEL 4
REMARK VINA RESULT:     -11.6      7.232     10.852
REMARK  Name = 5327066
REMARK  6 active torsions:
REMARK  status: ('A' for Active; 'I' for Inactive)
REMARK    1  A    between atoms: C_2  and  C_6
REMARK    2  A    between atoms: C_2  and  C_20
REMARK    3  A    between atoms: C_3  and  O_9
REMARK    4  A    between atoms: O_9  and  C_11
REMARK    5  A    between atoms: N_18  and  C_24
REMARK    6  A    between atoms: C_21  and  N_30
REMARK                            x       y       z     vdW  Elec       q    Type
REMARK                         _______ _______ _______ _____ _____    ______ ____
ROOT
ATOM      1  O   UNL     1      31.499 -12.857 -20.607  0.00  0.00    -0.286 OA
ATOM      2  C   UNL     1      32.128 -12.527 -21.624  0.00  0.00    +0.200 C 
ENDROOT
BRANCH   2   6
ATOM      3  C   UNL     1      34.264 -15.495 -22.411  0.00  0.00    +0.138 C 
ATOM      4  C   UNL     1      33.588 -14.516 -21.691  0.00  0.00    +0.040 C 
ATOM      5  C   UNL     1      34.201 -15.525 -23.799  0.00  0.00    +0.037 C 
ATOM      6  C   UNL     1      32.839 -13.555 -22.370  0.00  0.00    +0.042 C 
ATOM      7  C   UNL     1      33.451 -14.564 -24.477  0.00  0.00    +0.003 C 
ATOM      8  C   UNL     1      32.770 -13.579 -23.763  0.00  0.00    +0.003 C 
BRANCH   3   9
ATOM      9  O   UNL     1      35.001 -16.439 -21.744  0.00  0.00    -0.479 OA
BRANCH   9  11
ATOM     10  N   UNL     1      35.332 -19.743 -20.411  0.00  0.00    +0.384 N 
ATOM     11  C   UNL     1      35.291 -17.643 -22.451  0.00  0.00    +0.162 C 
ATOM     12  C   UNL     1      34.142 -18.637 -22.277  0.00  0.00    +0.020 C 
ATOM     13  C   UNL     1      36.593 -18.229 -21.907  0.00  0.00    +0.020 C 
ATOM     14  C   UNL     1      34.061 -19.158 -20.840  0.00  0.00    -0.078 C 
ATOM     15  C   UNL     1      36.421 -18.769 -20.486  0.00  0.00    -0.078 C 
ATOM     16  H   UNL     1      35.553 -20.535 -21.014  0.00  0.00    -0.085 HD
ATOM     17  H   UNL     1      35.235 -20.042 -19.440  0.00  0.00    -0.085 HD
ENDBRANCH   9  11
ENDBRANCH   3   9
ENDBRANCH   2   6
BRANCH   2  20
ATOM     18  N   UNL     1      31.835  -9.003 -22.185  0.00  0.00    -0.177 N 
ATOM     19  N   UNL     1      32.641  -9.264 -23.228  0.00  0.00    -0.171 NA
ATOM     20  C   UNL     1      32.162 -11.115 -22.058  0.00  0.00    +0.088 C 
ATOM     21  C   UNL     1      31.518 -10.104 -21.444  0.00  0.00    +0.122 C 
ATOM     22  C   UNL     1      32.837 -10.582 -23.136  0.00  0.00    +0.124 C 
BRANCH  18  24
ATOM     23  F   UNL     1      30.157  -3.830 -21.287  0.00  0.00    -0.204 F 
ATOM     24  C   UNL     1      31.409  -7.693 -21.958  0.00  0.00    +0.075 C 
ATOM     25  C   UNL     1      30.521  -7.098 -22.843  0.00  0.00    +0.019 C 
ATOM     26  C   UNL     1      31.882  -7.003 -20.849  0.00  0.00    +0.019 C 
ATOM     27  C   UNL     1      30.098  -5.789 -22.616  0.00  0.00    +0.031 C 
ATOM     28  C   UNL     1      31.457  -5.694 -20.621  0.00  0.00    +0.031 C 
ATOM     29  C   UNL     1      30.565  -5.087 -21.506  0.00  0.00    +0.140 C 
ENDBRANCH  18  24
BRANCH  21  30
ATOM     30  N   UNL     1      30.718 -10.033 -20.356  0.00  0.00    -0.344 N 
ATOM     31  H   UNL     1      30.264 -10.842 -20.025  0.00  0.00    +0.144 HD
ATOM     32  H   UNL     1      30.589  -9.173 -19.895  0.00  0.00    +0.144 HD
ENDBRANCH  21  30
ENDBRANCH   2  20
TORSDOF 6
ENDMDL
MODEL 5
REMARK VINA RESULT:     -11.3      1.185      1.921
REMARK  Name = 5327066
REMARK  6 active torsions:
REMARK  status: ('A' for Active; 'I' for Inactive)
REMARK    1  A    between atoms: C_2  and  C_6
REMARK    2  A    between atoms: C_2  and  C_20
REMARK    3  A    between atoms: C_3  and  O_9
REMARK    4  A    between atoms: O_9  and  C_11
REMARK    5  A    between atoms: N_18  and  C_24
REMARK    6  A    between atoms: C_21  and  N_30
REMARK                            x       y       z     vdW  Elec       q    Type
REMARK                         _______ _______ _______ _____ _____    ______ ____
ROOT
ATOM      1  O   UNL     1      36.393 -21.590 -18.425  0.00  0.00    -0.286 OA
ATOM      2  C   UNL     1      35.162 -21.443 -18.376  0.00  0.00    +0.200 C 
ENDROOT
BRANCH   2   6
ATOM      3  C   UNL     1      34.359 -22.926 -15.037  0.00  0.00    +0.138 C 
ATOM      4  C   UNL     1      35.068 -22.332 -16.075  0.00  0.00    +0.040 C 
ATOM      5  C   UNL     1      33.017 -23.253 -15.193  0.00  0.00    +0.037 C 
ATOM      6  C   UNL     1      34.427 -22.064 -17.285  0.00  0.00    +0.042 C 
ATOM      7  C   UNL     1      32.376 -22.984 -16.401  0.00  0.00    +0.003 C 
ATOM      8  C   UNL     1      33.080 -22.390 -17.448  0.00  0.00    +0.003 C 
BRANCH   3   9
ATOM      9  O   UNL     1      34.989 -23.189 -13.850  0.00  0.00    -0.479 OA
BRANCH   9  11
ATOM     10  N   UNL     1      37.262 -24.934 -11.707  0.00  0.00    +0.384 N 
ATOM     11  C   UNL     1      36.414 -23.130 -13.851  0.00  0.00    +0.162 C 
ATOM     12  C   UNL     1      36.990 -24.518 -14.130  0.00  0.00    +0.020 C 
ATOM     13  C   UNL     1      36.884 -22.618 -12.490  0.00  0.00    +0.020 C 
ATOM     14  C   UNL     1      36.743 -25.477 -12.963  0.00  0.00    -0.078 C 
ATOM     15  C   UNL     1      36.645 -23.648 -11.384  0.00  0.00    -0.078 C 
ATOM     16  H   UNL     1      38.271 -24.807 -11.793  0.00  0.00    -0.085 HD
ATOM     17  H   UNL     1      37.042 -25.592 -10.959  0.00  0.00    -0.085 HD
ENDBRANCH   9  11
ENDBRANCH   3   9
ENDBRANCH   2   6
BRANCH   2  20
ATOM     18  N   UNL     1      34.019 -19.292 -21.002  0.00  0.00    -0.177 N 
ATOM     19  N   UNL     1      32.838 -19.880 -20.750  0.00  0.00    -0.171 NA
ATOM     20  C   UNL     1      34.460 -20.664 -19.417  0.00  0.00    +0.088 C 
ATOM     21  C   UNL     1      35.037 -19.742 -20.212  0.00  0.00    +0.122 C 
ATOM     22  C   UNL     1      33.126 -20.732 -19.763  0.00  0.00    +0.124 C 
BRANCH  18  24
ATOM     23  F   UNL     1      34.356 -15.453 -24.941  0.00  0.00    -0.204 F 
ATOM     24  C   UNL     1      34.104 -18.320 -21.999  0.00  0.00    +0.075 C 
ATOM     25  C   UNL     1      33.732 -18.638 -23.298  0.00  0.00    +0.019 C 
ATOM     26  C   UNL     1      34.561 -17.049 -21.678  0.00  0.00    +0.019 C 
ATOM     27  C   UNL     1      33.818 -17.667 -24.295  0.00  0.00    +0.031 C 
ATOM     28  C   UNL     1      34.646 -16.077 -22.675  0.00  0.00    +0.031 C 
ATOM     29  C   UNL     1      34.274 -16.386 -23.984  0.00  0.00    +0.140 C 
ENDBRANCH  18  24
BRANCH  21  30
ATOM     30  N   UNL     1      36.297 -19.265 -20.322  0.00  0.00    -0.344 N 
ATOM     31  H   UNL     1      36.935 -19.696 -20.936  0.00  0.00    +0.144 HD
ATOM     32  H   UNL     1      36.578 -18.488 -19.787  0.00  0.00    +0.144 HD
ENDBRANCH  21  30
ENDBRANCH   2  20
TORSDOF 6
ENDMDL
MODEL 6
REMARK VINA RESULT:     -11.0      9.141     14.759
REMARK  Name = 5327066
REMARK  6 active torsions:
REMARK  status: ('A' for Active; 'I' for Inactive)
REMARK    1  A    between atoms: C_2  and  C_6
REMARK    2  A    between atoms: C_2  and  C_20
REMARK    3  A    between atoms: C_3  and  O_9
REMARK    4  A    between atoms: O_9  and  C_11
REMARK    5  A    between atoms: N_18  and  C_24
REMARK    6  A    between atoms: C_21  and  N_30
REMARK                            x       y       z     vdW  Elec       q    Type
REMARK                         _______ _______ _______ _____ _____    ______ ____
ROOT
ATOM      1  O   UNL     1      29.905 -10.342 -21.018  0.00  0.00    -0.286 OA
ATOM      2  C   UNL     1      30.981  -9.952 -21.495  0.00  0.00    +0.200 C 
ENDROOT
BRANCH   2   6
ATOM      3  C   UNL     1      31.588  -6.347 -22.289  0.00  0.00    +0.138 C 
ATOM      4  C   UNL     1      31.241  -7.685 -22.438  0.00  0.00    +0.040 C 
ATOM      5  C   UNL     1      32.036  -5.863 -21.066  0.00  0.00    +0.037 C 
ATOM      6  C   UNL     1      31.343  -8.550 -21.348  0.00  0.00    +0.042 C 
ATOM      7  C   UNL     1      32.137  -6.728 -19.976  0.00  0.00    +0.003 C 
ATOM      8  C   UNL     1      31.791  -8.071 -20.117  0.00  0.00    +0.003 C 
BRANCH   3   9
ATOM      9  O   UNL     1      31.487  -5.498 -23.359  0.00  0.00    -0.479 OA
BRANCH   9  11
ATOM     10  N   UNL     1      33.189  -4.693 -26.403  0.00  0.00    +0.384 N 
ATOM     11  C   UNL     1      32.556  -4.571 -23.546  0.00  0.00    +0.162 C 
ATOM     12  C   UNL     1      32.128  -3.479 -24.527  0.00  0.00    +0.020 C 
ATOM     13  C   UNL     1      33.771  -5.327 -24.083  0.00  0.00    +0.020 C 
ATOM     14  C   UNL     1      31.969  -4.025 -25.947  0.00  0.00    -0.078 C 
ATOM     15  C   UNL     1      33.553  -5.802 -25.521  0.00  0.00    -0.078 C 
ATOM     16  H   UNL     1      33.952  -4.016 -26.417  0.00  0.00    -0.085 HD
ATOM     17  H   UNL     1      33.020  -5.068 -27.336  0.00  0.00    -0.085 HD
ENDBRANCH   9  11
ENDBRANCH   3   9
ENDBRANCH   2   6
BRANCH   2  20
ATOM     18  N   UNL     1      32.929 -12.654 -22.809  0.00  0.00    -0.177 N 
ATOM     19  N   UNL     1      33.338 -11.721 -23.685  0.00  0.00    -0.171 NA
ATOM     20  C   UNL     1      31.869 -10.893 -22.209  0.00  0.00    +0.088 C 
ATOM     21  C   UNL     1      32.031 -12.192 -21.892  0.00  0.00    +0.122 C 
ATOM     22  C   UNL     1      32.670 -10.630 -23.300  0.00  0.00    +0.124 C 
BRANCH  18  24
ATOM     23  F   UNL     1      34.910 -17.784 -23.187  0.00  0.00    -0.204 F 
ATOM     24  C   UNL     1      33.431 -13.953 -22.905  0.00  0.00    +0.075 C 
ATOM     25  C   UNL     1      33.342 -14.634 -24.111  0.00  0.00    +0.019 C 
ATOM     26  C   UNL     1      34.012 -14.546 -21.792  0.00  0.00    +0.019 C 
ATOM     27  C   UNL     1      33.842 -15.932 -24.206  0.00  0.00    +0.031 C 
ATOM     28  C   UNL     1      34.513 -15.844 -21.887  0.00  0.00    +0.031 C 
ATOM     29  C   UNL     1      34.428 -16.537 -23.095  0.00  0.00    +0.140 C 
ENDBRANCH  18  24
BRANCH  21  30
ATOM     30  N   UNL     1      31.509 -12.988 -20.932  0.00  0.00    -0.344 N 
ATOM     31  H   UNL     1      31.914 -13.866 -20.746  0.00  0.00    +0.144 HD
ATOM     32  H   UNL     1      30.723 -12.690 -20.419  0.00  0.00    +0.144 HD
ENDBRANCH  21  30
ENDBRANCH   2  20
TORSDOF 6
ENDMDL
MODEL 7
REMARK VINA RESULT:     -10.8      1.592      2.757
REMARK  Name = 5327066
REMARK  6 active torsions:
REMARK  status: ('A' for Active; 'I' for Inactive)
REMARK    1  A    between atoms: C_2  and  C_6
REMARK    2  A    between atoms: C_2  and  C_20
REMARK    3  A    between atoms: C_3  and  O_9
REMARK    4  A    between atoms: O_9  and  C_11
REMARK    5  A    between atoms: N_18  and  C_24
REMARK    6  A    between atoms: C_21  and  N_30
REMARK                            x       y       z     vdW  Elec       q    Type
REMARK                         _______ _______ _______ _____ _____    ______ ____
ROOT
ATOM      1  O   UNL     1      33.475 -23.377 -18.177  0.00  0.00    -0.286 OA
ATOM      2  C   UNL     1      34.011 -22.259 -18.162  0.00  0.00    +0.200 C 
ENDROOT
BRANCH   2   6
ATOM      3  C   UNL     1      36.171 -22.483 -15.117  0.00  0.00    +0.138 C 
ATOM      4  C   UNL     1      35.139 -22.724 -16.016  0.00  0.00    +0.040 C 
ATOM      5  C   UNL     1      37.152 -21.540 -15.401  0.00  0.00    +0.037 C 
ATOM      6  C   UNL     1      35.088 -22.012 -17.215  0.00  0.00    +0.042 C 
ATOM      7  C   UNL     1      37.101 -20.829 -16.599  0.00  0.00    +0.003 C 
ATOM      8  C   UNL     1      36.069 -21.065 -17.507  0.00  0.00    +0.003 C 
BRANCH   3   9
ATOM      9  O   UNL     1      36.222 -23.182 -13.940  0.00  0.00    -0.479 OA
BRANCH   9  11
ATOM     10  N   UNL     1      36.818 -26.509 -12.764  0.00  0.00    +0.384 N 
ATOM     11  C   UNL     1      37.472 -23.780 -13.601  0.00  0.00    +0.162 C 
ATOM     12  C   UNL     1      37.725 -24.993 -14.496  0.00  0.00    +0.020 C 
ATOM     13  C   UNL     1      37.433 -24.197 -12.131  0.00  0.00    +0.020 C 
ATOM     14  C   UNL     1      36.762 -26.140 -14.179  0.00  0.00    -0.078 C 
ATOM     15  C   UNL     1      36.483 -25.375 -11.902  0.00  0.00    -0.078 C 
ATOM     16  H   UNL     1      37.761 -26.828 -12.542  0.00  0.00    -0.085 HD
ATOM     17  H   UNL     1      36.135 -27.249 -12.599  0.00  0.00    -0.085 HD
ENDBRANCH   9  11
ENDBRANCH   3   9
ENDBRANCH   2   6
BRANCH   2  20
ATOM     18  N   UNL     1      33.496 -19.649 -20.559  0.00  0.00    -0.177 N 
ATOM     19  N   UNL     1      32.217 -19.756 -20.163  0.00  0.00    -0.171 NA
ATOM     20  C   UNL     1      33.550 -21.196 -19.081  0.00  0.00    +0.088 C 
ATOM     21  C   UNL     1      34.344 -20.510 -19.925  0.00  0.00    +0.122 C 
ATOM     22  C   UNL     1      32.265 -20.723 -19.243  0.00  0.00    +0.124 C 
BRANCH  18  24
ATOM     23  F   UNL     1      34.834 -15.952 -24.422  0.00  0.00    -0.204 F 
ATOM     24  C   UNL     1      33.836 -18.712 -21.538  0.00  0.00    +0.075 C 
ATOM     25  C   UNL     1      34.470 -17.535 -21.167  0.00  0.00    +0.019 C 
ATOM     26  C   UNL     1      33.532 -18.973 -22.867  0.00  0.00    +0.019 C 
ATOM     27  C   UNL     1      34.808 -16.599 -22.144  0.00  0.00    +0.031 C 
ATOM     28  C   UNL     1      33.871 -18.037 -23.845  0.00  0.00    +0.031 C 
ATOM     29  C   UNL     1      34.509 -16.850 -23.483  0.00  0.00    +0.140 C 
ENDBRANCH  18  24
BRANCH  21  30
ATOM     30  N   UNL     1      35.668 -20.545 -20.195  0.00  0.00    -0.344 N 
ATOM     31  H   UNL     1      36.106 -21.402 -20.402  0.00  0.00    +0.144 HD
ATOM     32  H   UNL     1      36.195 -19.713 -20.184  0.00  0.00    +0.144 HD
ENDBRANCH  21  30
ENDBRANCH   2  20
TORSDOF 6
ENDMDL
MODEL 8
REMARK VINA RESULT:     -10.7      1.490      2.340
REMARK  Name = 5327066
REMARK  6 active torsions:
REMARK  status: ('A' for Active; 'I' for Inactive)
REMARK    1  A    between atoms: C_2  and  C_6
REMARK    2  A    between atoms: C_2  and  C_20
REMARK    3  A    between atoms: C_3  and  O_9
REMARK    4  A    between atoms: O_9  and  C_11
REMARK    5  A    between atoms: N_18  and  C_24
REMARK    6  A    between atoms: C_21  and  N_30
REMARK                            x       y       z     vdW  Elec       q    Type
REMARK                         _______ _______ _______ _____ _____    ______ ____
ROOT
ATOM      1  O   UNL     1      34.050 -22.350 -19.460  0.00  0.00    -0.286 OA
ATOM      2  C   UNL     1      34.824 -21.461 -19.076  0.00  0.00    +0.200 C 
ENDROOT
BRANCH   2   6
ATOM      3  C   UNL     1      35.111 -22.078 -15.398  0.00  0.00    +0.138 C 
ATOM      4  C   UNL     1      34.578 -21.999 -16.679  0.00  0.00    +0.040 C 
ATOM      5  C   UNL     1      36.430 -21.711 -15.156  0.00  0.00    +0.037 C 
ATOM      6  C   UNL     1      35.375 -21.547 -17.732  0.00  0.00    +0.042 C 
ATOM      7  C   UNL     1      37.226 -21.260 -16.208  0.00  0.00    +0.003 C 
ATOM      8  C   UNL     1      36.699 -21.177 -17.496  0.00  0.00    +0.003 C 
BRANCH   3   9
ATOM      9  O   UNL     1      34.329 -22.522 -14.364  0.00  0.00    -0.479 OA
BRANCH   9  11
ATOM     10  N   UNL     1      35.734 -24.977 -12.173  0.00  0.00    +0.384 N 
ATOM     11  C   UNL     1      34.052 -23.921 -14.324  0.00  0.00    +0.162 C 
ATOM     12  C   UNL     1      33.487 -24.297 -12.954  0.00  0.00    +0.020 C 
ATOM     13  C   UNL     1      35.346 -24.685 -14.599  0.00  0.00    +0.020 C 
ATOM     14  C   UNL     1      34.547 -24.182 -11.856  0.00  0.00    -0.078 C 
ATOM     15  C   UNL     1      36.336 -24.558 -13.438  0.00  0.00    -0.078 C 
ATOM     16  H   UNL     1      35.466 -25.960 -12.241  0.00  0.00    -0.085 HD
ATOM     17  H   UNL     1      36.419 -24.839 -11.430  0.00  0.00    -0.085 HD
ENDBRANCH   9  11
ENDBRANCH   3   9
ENDBRANCH   2   6
BRANCH   2  20
ATOM     18  N   UNL     1      35.042 -18.716 -21.365  0.00  0.00    -0.177 N 
ATOM     19  N   UNL     1      36.348 -18.766 -21.051  0.00  0.00    -0.171 NA
ATOM     20  C   UNL     1      35.167 -20.331 -19.965  0.00  0.00    +0.088 C 
ATOM     21  C   UNL     1      34.285 -19.653 -20.724  0.00  0.00    +0.122 C 
ATOM     22  C   UNL     1      36.411 -19.776 -20.179  0.00  0.00    +0.124 C 
BRANCH  18  24
ATOM     23  F   UNL     1      33.261 -14.934 -24.957  0.00  0.00    -0.204 F 
ATOM     24  C   UNL     1      34.591 -17.758 -22.275  0.00  0.00    +0.075 C 
ATOM     25  C   UNL     1      34.711 -16.410 -21.965  0.00  0.00    +0.019 C 
ATOM     26  C   UNL     1      34.030 -18.167 -23.477  0.00  0.00    +0.019 C 
ATOM     27  C   UNL     1      34.259 -15.454 -22.874  0.00  0.00    +0.031 C 
ATOM     28  C   UNL     1      33.579 -17.210 -24.386  0.00  0.00    +0.031 C 
ATOM     29  C   UNL     1      33.694 -15.853 -24.084  0.00  0.00    +0.140 C 
ENDBRANCH  18  24
BRANCH  21  30
ATOM     30  N   UNL     1      32.950 -19.753 -20.916  0.00  0.00    -0.344 N 
ATOM     31  H   UNL     1      32.409 -18.940 -21.045  0.00  0.00    +0.144 HD
ATOM     32  H   UNL     1      32.520 -20.638 -20.929  0.00  0.00    +0.144 HD
ENDBRANCH  21  30
ENDBRANCH   2  20
TORSDOF 6
ENDMDL
MODEL 9
REMARK VINA RESULT:     -10.7      2.519      4.596
REMARK  Name = 5327066
REMARK  6 active torsions:
REMARK  status: ('A' for Active; 'I' for Inactive)
REMARK    1  A    between atoms: C_2  and  C_6
REMARK    2  A    between atoms: C_2  and  C_20
REMARK    3  A    between atoms: C_3  and  O_9
REMARK    4  A    between atoms: O_9  and  C_11
REMARK    5  A    between atoms: N_18  and  C_24
REMARK    6  A    between atoms: C_21  and  N_30
REMARK                            x       y       z     vdW  Elec       q    Type
REMARK                         _______ _______ _______ _____ _____    ______ ____
ROOT
ATOM      1  O   UNL     1      33.489 -23.480 -19.651  0.00  0.00    -0.286 OA
ATOM      2  C   UNL     1      33.676 -22.475 -18.947  0.00  0.00    +0.200 C 
ENDROOT
BRANCH   2   6
ATOM      3  C   UNL     1      31.436 -22.285 -15.957  0.00  0.00    +0.138 C 
ATOM      4  C   UNL     1      31.869 -22.266 -17.278  0.00  0.00    +0.040 C 
ATOM      5  C   UNL     1      32.332 -22.528 -14.922  0.00  0.00    +0.037 C 
ATOM      6  C   UNL     1      33.215 -22.493 -17.567  0.00  0.00    +0.042 C 
ATOM      7  C   UNL     1      33.677 -22.757 -15.211  0.00  0.00    +0.003 C 
ATOM      8  C   UNL     1      34.119 -22.739 -16.534  0.00  0.00    +0.003 C 
BRANCH   3   9
ATOM      9  O   UNL     1      30.115 -22.062 -15.673  0.00  0.00    -0.479 OA
BRANCH   9  11
ATOM     10  N   UNL     1      26.544 -22.229 -15.823  0.00  0.00    +0.384 N 
ATOM     11  C   UNL     1      29.285 -23.214 -15.530  0.00  0.00    +0.162 C 
ATOM     12  C   UNL     1      28.471 -23.428 -16.806  0.00  0.00    +0.020 C 
ATOM     13  C   UNL     1      28.359 -23.004 -14.332  0.00  0.00    +0.020 C 
ATOM     14  C   UNL     1      27.417 -22.335 -16.993  0.00  0.00    -0.078 C 
ATOM     15  C   UNL     1      27.307 -21.929 -14.612  0.00  0.00    -0.078 C 
ATOM     16  H   UNL     1      26.051 -23.113 -15.696  0.00  0.00    -0.085 HD
ATOM     17  H   UNL     1      25.885 -21.467 -15.983  0.00  0.00    -0.085 HD
ENDBRANCH   9  11
ENDBRANCH   3   9
ENDBRANCH   2   6
BRANCH   2  20
ATOM     18  N   UNL     1      34.726 -19.451 -20.552  0.00  0.00    -0.177 N 
ATOM     19  N   UNL     1      35.916 -19.769 -20.014  0.00  0.00    -0.171 NA
ATOM     20  C   UNL     1      34.341 -21.281 -19.509  0.00  0.00    +0.088 C 
ATOM     21  C   UNL     1      33.737 -20.346 -20.267  0.00  0.00    +0.122 C 
ATOM     22  C   UNL     1      35.662 -20.910 -19.368  0.00  0.00    +0.124 C 
BRANCH  18  24
ATOM     23  F   UNL     1      34.256 -14.866 -23.574  0.00  0.00    -0.204 F 
ATOM     24  C   UNL     1      34.607 -18.290 -21.317  0.00  0.00    +0.075 C 
ATOM     25  C   UNL     1      34.420 -18.391 -22.689  0.00  0.00    +0.019 C 
ATOM     26  C   UNL     1      34.677 -17.051 -20.695  0.00  0.00    +0.019 C 
ATOM     27  C   UNL     1      34.303 -17.231 -23.453  0.00  0.00    +0.031 C 
ATOM     28  C   UNL     1      34.558 -15.890 -21.460  0.00  0.00    +0.031 C 
ATOM     29  C   UNL     1      34.371 -15.980 -22.839  0.00  0.00    +0.140 C 
ENDBRANCH  18  24
BRANCH  21  30
ATOM     30  N   UNL     1      32.474 -20.191 -20.723  0.00  0.00    -0.344 N 
ATOM     31  H   UNL     1      31.889 -20.976 -20.833  0.00  0.00    +0.144 HD
ATOM     32  H   UNL     1      32.137 -19.293 -20.945  0.00  0.00    +0.144 HD
ENDBRANCH  21  30
ENDBRANCH   2  20
TORSDOF 6
ENDMDL
