MODEL 1
REMARK VINA RESULT:     -11.1      0.000      0.000
REMARK  Name = 5326924
REMARK  6 active torsions:
REMARK  status: ('A' for Active; 'I' for Inactive)
REMARK    1  A    between atoms: C_5  and  O_9
REMARK    2  A    between atoms: C_6  and  O_22
REMARK    3  A    between atoms: O_9  and  C_10
REMARK    4  A    between atoms: C_13  and  C_18
REMARK    5  A    between atoms: O_22  and  C_23
REMARK    6  A    between atoms: C_26  and  C_31
REMARK                            x       y       z     vdW  Elec       q    Type
REMARK                         _______ _______ _______ _____ _____    ______ ____
ROOT
ATOM      1  O   UNL     1      33.868 -19.241 -22.228  0.00  0.00    -0.346 OA
ATOM      2  O   UNL     1      36.303 -18.516 -20.526  0.00  0.00    -0.346 OA
ATOM      3  C   UNL     1      34.092 -18.158 -21.306  0.00  0.00    +0.188 C 
ATOM      4  C   UNL     1      34.924 -18.716 -20.168  0.00  0.00    +0.188 C 
ATOM      5  C   UNL     1      34.993 -17.118 -21.922  0.00  0.00    +0.225 C 
ATOM      6  C   UNL     1      34.550 -20.178 -20.179  0.00  0.00    +0.225 C 
ATOM      7  C   UNL     1      34.385 -20.452 -21.658  0.00  0.00    +0.188 C 
ATOM      8  C   UNL     1      36.372 -17.713 -21.716  0.00  0.00    +0.188 C 
ENDROOT
BRANCH   5   9
ATOM      9  O   UNL     1      34.906 -15.905 -21.186  0.00  0.00    -0.474 OA
BRANCH   9  10
ATOM     10  C   UNL     1      34.105 -14.923 -21.708  0.00  0.00    +0.139 C 
ATOM     11  C   UNL     1      33.923 -14.841 -23.083  0.00  0.00    +0.040 C 
ATOM     12  C   UNL     1      33.483 -14.017 -20.855  0.00  0.00    +0.037 C 
ATOM     13  C   UNL     1      33.108 -13.841 -23.614  0.00  0.00    +0.034 C 
ATOM     14  C   UNL     1      32.668 -13.017 -21.386  0.00  0.00    +0.003 C 
ATOM     15  C   UNL     1      32.482 -12.928 -22.765  0.00  0.00    +0.003 C 
BRANCH  13  18
ATOM     16  N   UNL     1      32.580 -12.540 -25.662  0.00  0.00    -0.343 N 
ATOM     17  N   UNL     1      33.051 -14.824 -25.806  0.00  0.00    -0.285 NA
ATOM     18  C   UNL     1      32.914 -13.749 -25.052  0.00  0.00    +0.117 C 
ATOM     19  H   UNL     1      32.452 -12.501 -26.638  0.00  0.00    +0.144 HD
ATOM     20  H   UNL     1      32.470 -11.727 -25.117  0.00  0.00    +0.144 HD
ATOM     21  H   UNL     1      32.921 -14.764 -26.779  0.00  0.00    +0.188 HD
ENDBRANCH  13  18
ENDBRANCH   9  10
ENDBRANCH   5   9
BRANCH   6  22
ATOM     22  O   UNL     1      35.528 -20.996 -19.576  0.00  0.00    -0.474 OA
BRANCH  22  23
ATOM     23  C   UNL     1      35.211 -21.566 -18.364  0.00  0.00    +0.139 C 
ATOM     24  C   UNL     1      36.206 -21.750 -17.415  0.00  0.00    +0.040 C 
ATOM     25  C   UNL     1      33.901 -21.949 -18.112  0.00  0.00    +0.037 C 
ATOM     26  C   UNL     1      35.885 -22.330 -16.187  0.00  0.00    +0.034 C 
ATOM     27  C   UNL     1      33.580 -22.528 -16.883  0.00  0.00    +0.003 C 
ATOM     28  C   UNL     1      34.571 -22.718 -15.922  0.00  0.00    +0.003 C 
BRANCH  26  31
ATOM     29  N   UNL     1      36.633 -22.447 -13.823  0.00  0.00    -0.343 N 
ATOM     30  N   UNL     1      38.159 -22.788 -15.560  0.00  0.00    -0.285 NA
ATOM     31  C   UNL     1      36.919 -22.528 -15.184  0.00  0.00    +0.117 C 
ATOM     32  H   UNL     1      37.348 -22.585 -13.160  0.00  0.00    +0.144 HD
ATOM     33  H   UNL     1      35.716 -22.251 -13.523  0.00  0.00    +0.144 HD
ATOM     34  H   UNL     1      38.860 -22.923 -14.882  0.00  0.00    +0.188 HD
ENDBRANCH  26  31
ENDBRANCH  22  23
ENDBRANCH   6  22
TORSDOF 6
ENDMDL
MODEL 2
REMARK VINA RESULT:     -11.1      4.874     11.285
REMARK  Name = 5326924
REMARK  6 active torsions:
REMARK  status: ('A' for Active; 'I' for Inactive)
REMARK    1  A    between atoms: C_5  and  O_9
REMARK    2  A    between atoms: C_6  and  O_22
REMARK    3  A    between atoms: O_9  and  C_10
REMARK    4  A    between atoms: C_13  and  C_18
REMARK    5  A    between atoms: O_22  and  C_23
REMARK    6  A    between atoms: C_26  and  C_31
REMARK                            x       y       z     vdW  Elec       q    Type
REMARK                         _______ _______ _______ _____ _____    ______ ____
ROOT
ATOM      1  O   UNL     1      31.266 -12.725 -22.480  0.00  0.00    -0.346 OA
ATOM      2  O   UNL     1      34.222 -11.980 -22.232  0.00  0.00    -0.346 OA
ATOM      3  C   UNL     1      32.412 -13.124 -23.254  0.00  0.00    +0.188 C 
ATOM      4  C   UNL     1      33.319 -11.913 -23.350  0.00  0.00    +0.188 C 
ATOM      5  C   UNL     1      33.243 -14.124 -22.490  0.00  0.00    +0.225 C 
ATOM      6  C   UNL     1      32.346 -10.767 -23.215  0.00  0.00    +0.225 C 
ATOM      7  C   UNL     1      31.346 -11.316 -22.220  0.00  0.00    +0.188 C 
ATOM      8  C   UNL     1      34.051 -13.240 -21.561  0.00  0.00    +0.188 C 
ENDROOT
BRANCH   5   9
ATOM      9  O   UNL     1      34.135 -14.789 -23.376  0.00  0.00    -0.474 OA
BRANCH   9  10
ATOM     10  C   UNL     1      34.210 -16.153 -23.267  0.00  0.00    +0.139 C 
ATOM     11  C   UNL     1      34.891 -16.721 -22.197  0.00  0.00    +0.040 C 
ATOM     12  C   UNL     1      33.605 -16.955 -24.228  0.00  0.00    +0.037 C 
ATOM     13  C   UNL     1      34.968 -18.110 -22.086  0.00  0.00    +0.034 C 
ATOM     14  C   UNL     1      33.682 -18.343 -24.118  0.00  0.00    +0.003 C 
ATOM     15  C   UNL     1      34.364 -18.920 -23.047  0.00  0.00    +0.003 C 
BRANCH  13  18
ATOM     16  N   UNL     1      35.110 -19.737 -20.215  0.00  0.00    -0.343 N 
ATOM     17  N   UNL     1      36.887 -18.285 -20.651  0.00  0.00    -0.285 NA
ATOM     18  C   UNL     1      35.679 -18.712 -20.969  0.00  0.00    +0.117 C 
ATOM     19  H   UNL     1      35.609 -20.130 -19.463  0.00  0.00    +0.144 HD
ATOM     20  H   UNL     1      34.208 -20.067 -20.434  0.00  0.00    +0.144 HD
ATOM     21  H   UNL     1      37.371 -18.691 -19.896  0.00  0.00    +0.188 HD
ENDBRANCH  13  18
ENDBRANCH   9  10
ENDBRANCH   5   9
BRANCH   6  22
ATOM     22  O   UNL     1      32.961  -9.578 -22.773  0.00  0.00    -0.474 OA
BRANCH  22  23
ATOM     23  C   UNL     1      32.178  -8.448 -22.717  0.00  0.00    +0.139 C 
ATOM     24  C   UNL     1      32.242  -7.629 -21.599  0.00  0.00    +0.040 C 
ATOM     25  C   UNL     1      31.337  -8.146 -23.779  0.00  0.00    +0.037 C 
ATOM     26  C   UNL     1      31.446  -6.484 -21.541  0.00  0.00    +0.034 C 
ATOM     27  C   UNL     1      30.543  -7.000 -23.721  0.00  0.00    +0.003 C 
ATOM     28  C   UNL     1      30.597  -6.170 -22.603  0.00  0.00    +0.003 C 
BRANCH  26  31
ATOM     29  N   UNL     1      30.789  -4.422 -20.324  0.00  0.00    -0.343 N 
ATOM     30  N   UNL     1      32.246  -5.958 -19.336  0.00  0.00    -0.285 NA
ATOM     31  C   UNL     1      31.503  -5.617 -20.374  0.00  0.00    +0.117 C 
ATOM     32  H   UNL     1      30.841  -3.850 -19.524  0.00  0.00    +0.144 HD
ATOM     33  H   UNL     1      30.232  -4.148 -21.089  0.00  0.00    +0.144 HD
ATOM     34  H   UNL     1      32.285  -5.373 -18.546  0.00  0.00    +0.188 HD
ENDBRANCH  26  31
ENDBRANCH  22  23
ENDBRANCH   6  22
TORSDOF 6
ENDMDL
MODEL 3
REMARK VINA RESULT:     -10.9      1.263      1.773
REMARK  Name = 5326924
REMARK  6 active torsions:
REMARK  status: ('A' for Active; 'I' for Inactive)
REMARK    1  A    between atoms: C_5  and  O_9
REMARK    2  A    between atoms: C_6  and  O_22
REMARK    3  A    between atoms: O_9  and  C_10
REMARK    4  A    between atoms: C_13  and  C_18
REMARK    5  A    between atoms: O_22  and  C_23
REMARK    6  A    between atoms: C_26  and  C_31
REMARK                            x       y       z     vdW  Elec       q    Type
REMARK                         _______ _______ _______ _____ _____    ______ ____
ROOT
ATOM      1  O   UNL     1      34.035 -19.595 -22.172  0.00  0.00    -0.346 OA
ATOM      2  O   UNL     1      36.500 -18.427 -20.791  0.00  0.00    -0.346 OA
ATOM      3  C   UNL     1      34.257 -18.314 -21.553  0.00  0.00    +0.188 C 
ATOM      4  C   UNL     1      35.139 -18.559 -20.345  0.00  0.00    +0.188 C 
ATOM      5  C   UNL     1      35.110 -17.442 -22.439  0.00  0.00    +0.225 C 
ATOM      6  C   UNL     1      34.805 -19.985 -19.982  0.00  0.00    +0.225 C 
ATOM      7  C   UNL     1      34.602 -20.619 -21.341  0.00  0.00    +0.188 C 
ATOM      8  C   UNL     1      36.510 -17.941 -22.144  0.00  0.00    +0.188 C 
ENDROOT
BRANCH   5   9
ATOM      9  O   UNL     1      35.012 -16.086 -22.021  0.00  0.00    -0.474 OA
BRANCH   9  10
ATOM     10  C   UNL     1      34.246 -15.255 -22.796  0.00  0.00    +0.139 C 
ATOM     11  C   UNL     1      33.618 -14.159 -22.218  0.00  0.00    +0.040 C 
ATOM     12  C   UNL     1      34.104 -15.519 -24.154  0.00  0.00    +0.037 C 
ATOM     13  C   UNL     1      32.838 -13.314 -23.008  0.00  0.00    +0.034 C 
ATOM     14  C   UNL     1      33.325 -14.674 -24.944  0.00  0.00    +0.003 C 
ATOM     15  C   UNL     1      32.691 -13.572 -24.370  0.00  0.00    +0.003 C 
BRANCH  13  18
ATOM     16  N   UNL     1      32.335 -10.883 -22.935  0.00  0.00    -0.343 N 
ATOM     17  N   UNL     1      31.412 -12.325 -21.345  0.00  0.00    -0.285 NA
ATOM     18  C   UNL     1      32.177 -12.165 -22.410  0.00  0.00    +0.117 C 
ATOM     19  H   UNL     1      31.878 -10.119 -22.514  0.00  0.00    +0.144 HD
ATOM     20  H   UNL     1      32.904 -10.742 -23.726  0.00  0.00    +0.144 HD
ATOM     21  H   UNL     1      30.963 -11.549 -20.939  0.00  0.00    +0.188 HD
ENDBRANCH  13  18
ENDBRANCH   9  10
ENDBRANCH   5   9
BRANCH   6  22
ATOM     22  O   UNL     1      35.822 -20.611 -19.233  0.00  0.00    -0.474 OA
BRANCH  22  23
ATOM     23  C   UNL     1      35.434 -21.351 -18.140  0.00  0.00    +0.139 C 
ATOM     24  C   UNL     1      36.362 -21.645 -17.150  0.00  0.00    +0.040 C 
ATOM     25  C   UNL     1      34.122 -21.792 -18.045  0.00  0.00    +0.037 C 
ATOM     26  C   UNL     1      35.968 -22.398 -16.043  0.00  0.00    +0.034 C 
ATOM     27  C   UNL     1      33.729 -22.544 -16.937  0.00  0.00    +0.003 C 
ATOM     28  C   UNL     1      34.652 -22.846 -15.937  0.00  0.00    +0.003 C 
BRANCH  26  31
ATOM     29  N   UNL     1      36.581 -22.661 -13.652  0.00  0.00    -0.343 N 
ATOM     30  N   UNL     1      38.166 -23.055 -15.324  0.00  0.00    -0.285 NA
ATOM     31  C   UNL     1      36.931 -22.713 -14.999  0.00  0.00    +0.117 C 
ATOM     32  H   UNL     1      37.248 -22.879 -12.961  0.00  0.00    +0.144 HD
ATOM     33  H   UNL     1      35.668 -22.405 -13.389  0.00  0.00    +0.144 HD
ATOM     34  H   UNL     1      38.818 -23.269 -14.619  0.00  0.00    +0.188 HD
ENDBRANCH  26  31
ENDBRANCH  22  23
ENDBRANCH   6  22
TORSDOF 6
ENDMDL
MODEL 4
REMARK VINA RESULT:     -10.9      1.361      1.907
REMARK  Name = 5326924
REMARK  6 active torsions:
REMARK  status: ('A' for Active; 'I' for Inactive)
REMARK    1  A    between atoms: C_5  and  O_9
REMARK    2  A    between atoms: C_6  and  O_22
REMARK    3  A    between atoms: O_9  and  C_10
REMARK    4  A    between atoms: C_13  and  C_18
REMARK    5  A    between atoms: O_22  and  C_23
REMARK    6  A    between atoms: C_26  and  C_31
REMARK                            x       y       z     vdW  Elec       q    Type
REMARK                         _______ _______ _______ _____ _____    ______ ____
ROOT
ATOM      1  O   UNL     1      33.939 -19.459 -22.011  0.00  0.00    -0.346 OA
ATOM      2  O   UNL     1      36.406 -18.636 -20.401  0.00  0.00    -0.346 OA
ATOM      3  C   UNL     1      34.155 -18.366 -21.098  0.00  0.00    +0.188 C 
ATOM      4  C   UNL     1      35.050 -18.889 -19.992  0.00  0.00    +0.188 C 
ATOM      5  C   UNL     1      34.992 -17.293 -21.749  0.00  0.00    +0.225 C 
ATOM      6  C   UNL     1      34.733 -20.364 -19.988  0.00  0.00    +0.225 C 
ATOM      7  C   UNL     1      34.523 -20.648 -21.459  0.00  0.00    +0.188 C 
ATOM      8  C   UNL     1      36.399 -17.834 -21.594  0.00  0.00    +0.188 C 
ENDROOT
BRANCH   5   9
ATOM      9  O   UNL     1      34.885 -16.083 -21.011  0.00  0.00    -0.474 OA
BRANCH   9  10
ATOM     10  C   UNL     1      34.170 -15.068 -21.591  0.00  0.00    +0.139 C 
ATOM     11  C   UNL     1      33.940 -15.084 -22.961  0.00  0.00    +0.040 C 
ATOM     12  C   UNL     1      33.684 -14.031 -20.802  0.00  0.00    +0.037 C 
ATOM     13  C   UNL     1      33.212 -14.050 -23.552  0.00  0.00    +0.034 C 
ATOM     14  C   UNL     1      32.956 -12.998 -21.392  0.00  0.00    +0.003 C 
ATOM     15  C   UNL     1      32.721 -13.007 -22.766  0.00  0.00    +0.003 C 
BRANCH  13  18
ATOM     16  N   UNL     1      32.595 -12.900 -25.664  0.00  0.00    -0.343 N 
ATOM     17  N   UNL     1      33.093 -15.183 -25.667  0.00  0.00    -0.285 NA
ATOM     18  C   UNL     1      32.967 -14.059 -24.985  0.00  0.00    +0.117 C 
ATOM     19  H   UNL     1      32.433 -12.929 -26.635  0.00  0.00    +0.144 HD
ATOM     20  H   UNL     1      32.492 -12.053 -25.173  0.00  0.00    +0.144 HD
ATOM     21  H   UNL     1      32.928 -15.192 -26.638  0.00  0.00    +0.188 HD
ENDBRANCH  13  18
ENDBRANCH   9  10
ENDBRANCH   5   9
BRANCH   6  22
ATOM     22  O   UNL     1      35.763 -21.143 -19.421  0.00  0.00    -0.474 OA
BRANCH  22  23
ATOM     23  C   UNL     1      35.631 -21.493 -18.097  0.00  0.00    +0.139 C 
ATOM     24  C   UNL     1      34.440 -22.052 -17.654  0.00  0.00    +0.040 C 
ATOM     25  C   UNL     1      36.690 -21.280 -17.226  0.00  0.00    +0.037 C 
ATOM     26  C   UNL     1      34.307 -22.405 -16.311  0.00  0.00    +0.034 C 
ATOM     27  C   UNL     1      36.556 -21.635 -15.883  0.00  0.00    +0.003 C 
ATOM     28  C   UNL     1      35.365 -22.197 -15.426  0.00  0.00    +0.003 C 
BRANCH  26  31
ATOM     29  N   UNL     1      31.888 -22.899 -16.574  0.00  0.00    -0.343 N 
ATOM     30  N   UNL     1      33.038 -23.624 -14.673  0.00  0.00    -0.285 NA
ATOM     31  C   UNL     1      33.064 -22.992 -15.833  0.00  0.00    +0.117 C 
ATOM     32  H   UNL     1      31.058 -23.304 -16.233  0.00  0.00    +0.144 HD
ATOM     33  H   UNL     1      31.886 -22.429 -17.439  0.00  0.00    +0.144 HD
ATOM     34  H   UNL     1      32.198 -24.022 -14.349  0.00  0.00    +0.188 HD
ENDBRANCH  26  31
ENDBRANCH  22  23
ENDBRANCH   6  22
TORSDOF 6
ENDMDL
MODEL 5
REMARK VINA RESULT:     -10.9      4.713      7.418
REMARK  Name = 5326924
REMARK  6 active torsions:
REMARK  status: ('A' for Active; 'I' for Inactive)
REMARK    1  A    between atoms: C_5  and  O_9
REMARK    2  A    between atoms: C_6  and  O_22
REMARK    3  A    between atoms: O_9  and  C_10
REMARK    4  A    between atoms: C_13  and  C_18
REMARK    5  A    between atoms: O_22  and  C_23
REMARK    6  A    between atoms: C_26  and  C_31
REMARK                            x       y       z     vdW  Elec       q    Type
REMARK                         _______ _______ _______ _____ _____    ______ ____
ROOT
ATOM      1  O   UNL     1      32.180 -12.730 -25.055  0.00  0.00    -0.346 OA
ATOM      2  O   UNL     1      33.990 -12.236 -22.639  0.00  0.00    -0.346 OA
ATOM      3  C   UNL     1      31.874 -12.318 -23.709  0.00  0.00    +0.188 C 
ATOM      4  C   UNL     1      32.825 -13.066 -22.796  0.00  0.00    +0.188 C 
ATOM      5  C   UNL     1      32.253 -10.873 -23.501  0.00  0.00    +0.225 C 
ATOM      6  C   UNL     1      33.129 -14.311 -23.592  0.00  0.00    +0.225 C 
ATOM      7  C   UNL     1      33.154 -13.783 -25.010  0.00  0.00    +0.188 C 
ATOM      8  C   UNL     1      33.744 -10.956 -23.245  0.00  0.00    +0.188 C 
ENDROOT
BRANCH   5   9
ATOM      9  O   UNL     1      31.617 -10.371 -22.333  0.00  0.00    -0.474 OA
BRANCH   9  10
ATOM     10  C   UNL     1      31.315  -9.034 -22.321  0.00  0.00    +0.139 C 
ATOM     11  C   UNL     1      31.800  -8.227 -21.298  0.00  0.00    +0.040 C 
ATOM     12  C   UNL     1      30.526  -8.498 -23.333  0.00  0.00    +0.037 C 
ATOM     13  C   UNL     1      31.492  -6.866 -21.287  0.00  0.00    +0.034 C 
ATOM     14  C   UNL     1      30.218  -7.138 -23.321  0.00  0.00    +0.003 C 
ATOM     15  C   UNL     1      30.701  -6.322 -22.298  0.00  0.00    +0.003 C 
BRANCH  13  18
ATOM     16  N   UNL     1      31.589  -4.688 -20.099  0.00  0.00    -0.343 N 
ATOM     17  N   UNL     1      32.856  -6.500 -19.343  0.00  0.00    -0.285 NA
ATOM     18  C   UNL     1      31.995  -6.017 -20.219  0.00  0.00    +0.117 C 
ATOM     19  H   UNL     1      31.943  -4.130 -19.368  0.00  0.00    +0.144 HD
ATOM     20  H   UNL     1      30.951  -4.308 -20.745  0.00  0.00    +0.144 HD
ATOM     21  H   UNL     1      33.197  -5.927 -18.619  0.00  0.00    +0.188 HD
ENDBRANCH  13  18
ENDBRANCH   9  10
ENDBRANCH   5   9
BRANCH   6  22
ATOM     22  O   UNL     1      34.343 -14.920 -23.212  0.00  0.00    -0.474 OA
BRANCH  22  23
ATOM     23  C   UNL     1      34.347 -16.290 -23.088  0.00  0.00    +0.139 C 
ATOM     24  C   UNL     1      34.985 -16.875 -22.002  0.00  0.00    +0.040 C 
ATOM     25  C   UNL     1      33.716 -17.065 -24.050  0.00  0.00    +0.037 C 
ATOM     26  C   UNL     1      34.991 -18.265 -21.877  0.00  0.00    +0.034 C 
ATOM     27  C   UNL     1      33.721 -18.455 -23.923  0.00  0.00    +0.003 C 
ATOM     28  C   UNL     1      34.359 -19.054 -22.838  0.00  0.00    +0.003 C 
BRANCH  26  31
ATOM     29  N   UNL     1      35.066 -19.943 -20.049  0.00  0.00    -0.343 N 
ATOM     30  N   UNL     1      36.843 -18.456 -20.357  0.00  0.00    -0.285 NA
ATOM     31  C   UNL     1      35.656 -18.890 -20.745  0.00  0.00    +0.117 C 
ATOM     32  H   UNL     1      35.534 -20.352 -19.286  0.00  0.00    +0.144 HD
ATOM     33  H   UNL     1      34.181 -20.278 -20.320  0.00  0.00    +0.144 HD
ATOM     34  H   UNL     1      37.294 -18.878 -19.591  0.00  0.00    +0.188 HD
ENDBRANCH  26  31
ENDBRANCH  22  23
ENDBRANCH   6  22
TORSDOF 6
ENDMDL
MODEL 6
REMARK VINA RESULT:     -10.8      4.991     10.633
REMARK  Name = 5326924
REMARK  6 active torsions:
REMARK  status: ('A' for Active; 'I' for Inactive)
REMARK    1  A    between atoms: C_5  and  O_9
REMARK    2  A    between atoms: C_6  and  O_22
REMARK    3  A    between atoms: O_9  and  C_10
REMARK    4  A    between atoms: C_13  and  C_18
REMARK    5  A    between atoms: O_22  and  C_23
REMARK    6  A    between atoms: C_26  and  C_31
REMARK                            x       y       z     vdW  Elec       q    Type
REMARK                         _______ _______ _______ _____ _____    ______ ____
ROOT
ATOM      1  O   UNL     1      33.024 -12.958 -20.774  0.00  0.00    -0.346 OA
ATOM      2  O   UNL     1      32.400 -11.744 -23.511  0.00  0.00    -0.346 OA
ATOM      3  C   UNL     1      32.611 -13.569 -22.010  0.00  0.00    +0.188 C 
ATOM      4  C   UNL     1      31.630 -12.616 -22.664  0.00  0.00    +0.188 C 
ATOM      5  C   UNL     1      33.760 -13.613 -22.986  0.00  0.00    +0.225 C 
ATOM      6  C   UNL     1      31.054 -11.880 -21.479  0.00  0.00    +0.225 C 
ATOM      7  C   UNL     1      32.253 -11.766 -20.563  0.00  0.00    +0.188 C 
ATOM      8  C   UNL     1      33.758 -12.211 -23.561  0.00  0.00    +0.188 C 
ENDROOT
BRANCH   5   9
ATOM      9  O   UNL     1      33.471 -14.534 -24.031  0.00  0.00    -0.474 OA
BRANCH   9  10
ATOM     10  C   UNL     1      33.789 -15.847 -23.800  0.00  0.00    +0.139 C 
ATOM     11  C   UNL     1      34.743 -16.167 -22.841  0.00  0.00    +0.040 C 
ATOM     12  C   UNL     1      33.154 -16.847 -24.529  0.00  0.00    +0.037 C 
ATOM     13  C   UNL     1      35.066 -17.504 -22.607  0.00  0.00    +0.034 C 
ATOM     14  C   UNL     1      33.477 -18.183 -24.296  0.00  0.00    +0.003 C 
ATOM     15  C   UNL     1      34.433 -18.512 -23.335  0.00  0.00    +0.003 C 
BRANCH  13  18
ATOM     16  N   UNL     1      37.380 -18.136 -21.964  0.00  0.00    -0.343 N 
ATOM     17  N   UNL     1      35.727 -17.890 -20.330  0.00  0.00    -0.285 NA
ATOM     18  C   UNL     1      36.063 -17.846 -21.606  0.00  0.00    +0.117 C 
ATOM     19  H   UNL     1      38.039 -18.366 -21.269  0.00  0.00    +0.144 HD
ATOM     20  H   UNL     1      37.649 -18.112 -22.911  0.00  0.00    +0.144 HD
ATOM     21  H   UNL     1      36.401 -18.121 -19.650  0.00  0.00    +0.188 HD
ENDBRANCH  13  18
ENDBRANCH   9  10
ENDBRANCH   5   9
BRANCH   6  22
ATOM     22  O   UNL     1      30.509 -10.626 -21.827  0.00  0.00    -0.474 OA
BRANCH  22  23
ATOM     23  C   UNL     1      31.028  -9.518 -21.198  0.00  0.00    +0.139 C 
ATOM     24  C   UNL     1      31.693  -8.558 -21.947  0.00  0.00    +0.040 C 
ATOM     25  C   UNL     1      30.879  -9.380 -19.826  0.00  0.00    +0.037 C 
ATOM     26  C   UNL     1      32.221  -7.434 -21.309  0.00  0.00    +0.034 C 
ATOM     27  C   UNL     1      31.406  -8.256 -19.188  0.00  0.00    +0.003 C 
ATOM     28  C   UNL     1      32.076  -7.284 -19.929  0.00  0.00    +0.003 C 
BRANCH  26  31
ATOM     29  N   UNL     1      34.091  -6.718 -22.775  0.00  0.00    -0.343 N 
ATOM     30  N   UNL     1      32.447  -5.187 -22.131  0.00  0.00    -0.285 NA
ATOM     31  C   UNL     1      32.921  -6.420 -22.082  0.00  0.00    +0.117 C 
ATOM     32  H   UNL     1      34.549  -6.016 -23.293  0.00  0.00    +0.144 HD
ATOM     33  H   UNL     1      34.462  -7.629 -22.748  0.00  0.00    +0.144 HD
ATOM     34  H   UNL     1      32.919  -4.500 -22.654  0.00  0.00    +0.188 HD
ENDBRANCH  26  31
ENDBRANCH  22  23
ENDBRANCH   6  22
TORSDOF 6
ENDMDL
MODEL 7
REMARK VINA RESULT:     -10.7      4.309      9.339
REMARK  Name = 5326924
REMARK  6 active torsions:
REMARK  status: ('A' for Active; 'I' for Inactive)
REMARK    1  A    between atoms: C_5  and  O_9
REMARK    2  A    between atoms: C_6  and  O_22
REMARK    3  A    between atoms: O_9  and  C_10
REMARK    4  A    between atoms: C_13  and  C_18
REMARK    5  A    between atoms: O_22  and  C_23
REMARK    6  A    between atoms: C_26  and  C_31
REMARK                            x       y       z     vdW  Elec       q    Type
REMARK                         _______ _______ _______ _____ _____    ______ ____
ROOT
ATOM      1  O   UNL     1      36.413 -22.545 -14.637  0.00  0.00    -0.346 OA
ATOM      2  O   UNL     1      34.118 -23.039 -16.598  0.00  0.00    -0.346 OA
ATOM      3  C   UNL     1      35.081 -22.001 -14.693  0.00  0.00    +0.188 C 
ATOM      4  C   UNL     1      34.744 -21.819 -16.161  0.00  0.00    +0.188 C 
ATOM      5  C   UNL     1      34.075 -23.023 -14.227  0.00  0.00    +0.225 C 
ATOM      6  C   UNL     1      36.105 -21.634 -16.786  0.00  0.00    +0.225 C 
ATOM      7  C   UNL     1      36.963 -22.571 -15.963  0.00  0.00    +0.188 C 
ATOM      8  C   UNL     1      33.885 -23.885 -15.460  0.00  0.00    +0.188 C 
ENDROOT
BRANCH   5   9
ATOM      9  O   UNL     1      32.841 -22.383 -13.924  0.00  0.00    -0.474 OA
BRANCH   9  10
ATOM     10  C   UNL     1      31.702 -23.124 -14.101  0.00  0.00    +0.139 C 
ATOM     11  C   UNL     1      30.751 -22.714 -15.028  0.00  0.00    +0.040 C 
ATOM     12  C   UNL     1      31.509 -24.278 -13.350  0.00  0.00    +0.037 C 
ATOM     13  C   UNL     1      29.591 -23.469 -15.207  0.00  0.00    +0.034 C 
ATOM     14  C   UNL     1      30.350 -25.033 -13.529  0.00  0.00    +0.003 C 
ATOM     15  C   UNL     1      29.391 -24.628 -14.457  0.00  0.00    +0.003 C 
BRANCH  13  18
ATOM     16  N   UNL     1      27.678 -23.951 -16.715  0.00  0.00    -0.343 N 
ATOM     17  N   UNL     1      28.539 -21.784 -16.559  0.00  0.00    -0.285 NA
ATOM     18  C   UNL     1      28.591 -23.046 -16.174  0.00  0.00    +0.117 C 
ATOM     19  H   UNL     1      27.010 -23.643 -17.370  0.00  0.00    +0.144 HD
ATOM     20  H   UNL     1      27.704 -24.897 -16.444  0.00  0.00    +0.144 HD
ATOM     21  H   UNL     1      27.862 -21.496 -17.213  0.00  0.00    +0.188 HD
ENDBRANCH  13  18
ENDBRANCH   9  10
ENDBRANCH   5   9
BRANCH   6  22
ATOM     22  O   UNL     1      36.121 -21.943 -18.161  0.00  0.00    -0.474 OA
BRANCH  22  23
ATOM     23  C   UNL     1      35.359 -21.154 -18.992  0.00  0.00    +0.139 C 
ATOM     24  C   UNL     1      35.964 -20.126 -19.701  0.00  0.00    +0.040 C 
ATOM     25  C   UNL     1      33.998 -21.399 -19.107  0.00  0.00    +0.037 C 
ATOM     26  C   UNL     1      35.191 -19.325 -20.543  0.00  0.00    +0.034 C 
ATOM     27  C   UNL     1      33.226 -20.599 -19.950  0.00  0.00    +0.003 C 
ATOM     28  C   UNL     1      33.822 -19.563 -20.667  0.00  0.00    +0.003 C 
BRANCH  26  31
ATOM     29  N   UNL     1      35.047 -17.264 -21.919  0.00  0.00    -0.343 N 
ATOM     30  N   UNL     1      37.129 -18.182 -21.387  0.00  0.00    -0.285 NA
ATOM     31  C   UNL     1      35.813 -18.244 -21.291  0.00  0.00    +0.117 C 
ATOM     32  H   UNL     1      35.489 -16.540 -22.420  0.00  0.00    +0.144 HD
ATOM     33  H   UNL     1      34.065 -17.294 -21.862  0.00  0.00    +0.144 HD
ATOM     34  H   UNL     1      37.552 -17.452 -21.893  0.00  0.00    +0.188 HD
ENDBRANCH  26  31
ENDBRANCH  22  23
ENDBRANCH   6  22
TORSDOF 6
ENDMDL
MODEL 8
REMARK VINA RESULT:     -10.6      3.633      5.351
REMARK  Name = 5326924
REMARK  6 active torsions:
REMARK  status: ('A' for Active; 'I' for Inactive)
REMARK    1  A    between atoms: C_5  and  O_9
REMARK    2  A    between atoms: C_6  and  O_22
REMARK    3  A    between atoms: O_9  and  C_10
REMARK    4  A    between atoms: C_13  and  C_18
REMARK    5  A    between atoms: O_22  and  C_23
REMARK    6  A    between atoms: C_26  and  C_31
REMARK                            x       y       z     vdW  Elec       q    Type
REMARK                         _______ _______ _______ _____ _____    ______ ____
ROOT
ATOM      1  O   UNL     1      33.761 -22.795 -19.885  0.00  0.00    -0.346 OA
ATOM      2  O   UNL     1      35.102 -21.423 -17.503  0.00  0.00    -0.346 OA
ATOM      3  C   UNL     1      33.879 -21.403 -19.536  0.00  0.00    +0.188 C 
ATOM      4  C   UNL     1      33.765 -21.319 -18.026  0.00  0.00    +0.188 C 
ATOM      5  C   UNL     1      35.276 -20.907 -19.810  0.00  0.00    +0.225 C 
ATOM      6  C   UNL     1      32.938 -22.537 -17.694  0.00  0.00    +0.225 C 
ATOM      7  C   UNL     1      33.439 -23.546 -18.704  0.00  0.00    +0.188 C 
ATOM      8  C   UNL     1      36.040 -21.383 -18.591  0.00  0.00    +0.188 C 
ENDROOT
BRANCH   5   9
ATOM      9  O   UNL     1      35.289 -19.486 -19.831  0.00  0.00    -0.474 OA
BRANCH   9  10
ATOM     10  C   UNL     1      34.918 -18.882 -21.004  0.00  0.00    +0.139 C 
ATOM     11  C   UNL     1      34.872 -17.496 -21.081  0.00  0.00    +0.040 C 
ATOM     12  C   UNL     1      34.589 -19.665 -22.106  0.00  0.00    +0.037 C 
ATOM     13  C   UNL     1      34.494 -16.882 -22.275  0.00  0.00    +0.034 C 
ATOM     14  C   UNL     1      34.211 -19.052 -23.300  0.00  0.00    +0.003 C 
ATOM     15  C   UNL     1      34.163 -17.660 -23.384  0.00  0.00    +0.003 C 
BRANCH  13  18
ATOM     16  N   UNL     1      34.029 -14.654 -21.283  0.00  0.00    -0.343 N 
ATOM     17  N   UNL     1      34.791 -14.827 -23.485  0.00  0.00    -0.285 NA
ATOM     18  C   UNL     1      34.443 -15.432 -22.363  0.00  0.00    +0.117 C 
ATOM     19  H   UNL     1      34.002 -13.673 -21.364  0.00  0.00    +0.144 HD
ATOM     20  H   UNL     1      33.762 -15.086 -20.439  0.00  0.00    +0.144 HD
ATOM     21  H   UNL     1      34.758 -13.845 -23.546  0.00  0.00    +0.188 HD
ENDBRANCH  13  18
ENDBRANCH   9  10
ENDBRANCH   5   9
BRANCH   6  22
ATOM     22  O   UNL     1      33.108 -22.965 -16.361  0.00  0.00    -0.474 OA
BRANCH  22  23
ATOM     23  C   UNL     1      31.995 -22.960 -15.552  0.00  0.00    +0.139 C 
ATOM     24  C   UNL     1      30.750 -22.695 -16.106  0.00  0.00    +0.040 C 
ATOM     25  C   UNL     1      32.135 -23.219 -14.197  0.00  0.00    +0.037 C 
ATOM     26  C   UNL     1      29.621 -22.689 -15.285  0.00  0.00    +0.034 C 
ATOM     27  C   UNL     1      31.006 -23.214 -13.377  0.00  0.00    +0.003 C 
ATOM     28  C   UNL     1      29.750 -22.949 -13.921  0.00  0.00    +0.003 C 
BRANCH  26  31
ATOM     29  N   UNL     1      27.889 -23.022 -17.031  0.00  0.00    -0.343 N 
ATOM     30  N   UNL     1      27.497 -21.565 -15.247  0.00  0.00    -0.285 NA
ATOM     31  C   UNL     1      28.311 -22.412 -15.852  0.00  0.00    +0.117 C 
ATOM     32  H   UNL     1      26.997 -22.821 -17.398  0.00  0.00    +0.144 HD
ATOM     33  H   UNL     1      28.481 -23.654 -17.499  0.00  0.00    +0.144 HD
ATOM     34  H   UNL     1      26.610 -21.376 -15.629  0.00  0.00    +0.188 HD
ENDBRANCH  26  31
ENDBRANCH  22  23
ENDBRANCH   6  22
TORSDOF 6
ENDMDL
MODEL 9
REMARK VINA RESULT:     -10.6      2.442      4.057
REMARK  Name = 5326924
REMARK  6 active torsions:
REMARK  status: ('A' for Active; 'I' for Inactive)
REMARK    1  A    between atoms: C_5  and  O_9
REMARK    2  A    between atoms: C_6  and  O_22
REMARK    3  A    between atoms: O_9  and  C_10
REMARK    4  A    between atoms: C_13  and  C_18
REMARK    5  A    between atoms: O_22  and  C_23
REMARK    6  A    between atoms: C_26  and  C_31
REMARK                            x       y       z     vdW  Elec       q    Type
REMARK                         _______ _______ _______ _____ _____    ______ ____
ROOT
ATOM      1  O   UNL     1      32.998 -22.258 -19.290  0.00  0.00    -0.346 OA
ATOM      2  O   UNL     1      35.889 -21.696 -18.465  0.00  0.00    -0.346 OA
ATOM      3  C   UNL     1      33.683 -21.021 -19.017  0.00  0.00    +0.188 C 
ATOM      4  C   UNL     1      34.641 -21.294 -17.874  0.00  0.00    +0.188 C 
ATOM      5  C   UNL     1      34.596 -20.660 -20.161  0.00  0.00    +0.225 C 
ATOM      6  C   UNL     1      33.970 -22.437 -17.153  0.00  0.00    +0.225 C 
ATOM      7  C   UNL     1      33.371 -23.226 -18.297  0.00  0.00    +0.188 C 
ATOM      8  C   UNL     1      35.819 -21.514 -19.889  0.00  0.00    +0.188 C 
ENDROOT
BRANCH   5   9
ATOM      9  O   UNL     1      34.968 -19.290 -20.069  0.00  0.00    -0.474 OA
BRANCH   9  10
ATOM     10  C   UNL     1      34.716 -18.508 -21.165  0.00  0.00    +0.139 C 
ATOM     11  C   UNL     1      34.571 -17.134 -21.013  0.00  0.00    +0.040 C 
ATOM     12  C   UNL     1      34.608 -19.097 -22.421  0.00  0.00    +0.037 C 
ATOM     13  C   UNL     1      34.314 -16.338 -22.130  0.00  0.00    +0.034 C 
ATOM     14  C   UNL     1      34.352 -18.302 -23.537  0.00  0.00    +0.003 C 
ATOM     15  C   UNL     1      34.204 -16.923 -23.391  0.00  0.00    +0.003 C 
BRANCH  13  18
ATOM     16  N   UNL     1      34.098 -14.057 -23.086  0.00  0.00    -0.343 N 
ATOM     17  N   UNL     1      34.081 -14.371 -20.771  0.00  0.00    -0.285 NA
ATOM     18  C   UNL     1      34.161 -14.901 -21.978  0.00  0.00    +0.117 C 
ATOM     19  H   UNL     1      33.994 -13.086 -22.960  0.00  0.00    +0.144 HD
ATOM     20  H   UNL     1      34.159 -14.433 -23.995  0.00  0.00    +0.144 HD
ATOM     21  H   UNL     1      33.976 -13.397 -20.666  0.00  0.00    +0.188 HD
ENDBRANCH  13  18
ENDBRANCH   9  10
ENDBRANCH   5   9
BRANCH   6  22
ATOM     22  O   UNL     1      34.869 -23.196 -16.376  0.00  0.00    -0.474 OA
BRANCH  22  23
ATOM     23  C   UNL     1      34.540 -23.404 -15.057  0.00  0.00    +0.139 C 
ATOM     24  C   UNL     1      35.523 -23.811 -14.165  0.00  0.00    +0.040 C 
ATOM     25  C   UNL     1      33.232 -23.204 -14.639  0.00  0.00    +0.037 C 
ATOM     26  C   UNL     1      35.189 -24.023 -12.826  0.00  0.00    +0.034 C 
ATOM     27  C   UNL     1      32.899 -23.415 -13.300  0.00  0.00    +0.003 C 
ATOM     28  C   UNL     1      33.877 -23.824 -12.395  0.00  0.00    +0.003 C 
BRANCH  26  31
ATOM     29  N   UNL     1      37.059 -23.533 -11.269  0.00  0.00    -0.343 N 
ATOM     30  N   UNL     1      36.342 -25.733 -11.592  0.00  0.00    -0.285 NA
ATOM     31  C   UNL     1      36.208 -24.450 -11.881  0.00  0.00    +0.117 C 
ATOM     32  H   UNL     1      37.742 -23.843 -10.632  0.00  0.00    +0.144 HD
ATOM     33  H   UNL     1      36.978 -22.573 -11.474  0.00  0.00    +0.144 HD
ATOM     34  H   UNL     1      37.031 -26.024 -10.953  0.00  0.00    +0.188 HD
ENDBRANCH  26  31
ENDBRANCH  22  23
ENDBRANCH   6  22
TORSDOF 6
ENDMDL
