MODEL 1
REMARK VINA RESULT:     -10.7      0.000      0.000
REMARK  Name = 3037233
REMARK  12 active torsions:
REMARK  status: ('A' for Active; 'I' for Inactive)
REMARK    1  A    between atoms: C_2  and  C_22
REMARK    2  A    between atoms: C_4  and  C_10
REMARK    3  A    between atoms: C_11  and  C_15
REMARK    4  A    between atoms: N_14  and  C_17
REMARK    5  A    between atoms: C_17  and  C_18
REMARK    6  A    between atoms: C_18  and  C_19
REMARK    7  A    between atoms: C_19  and  C_20
REMARK    8  A    between atoms: C_22  and  C_23
REMARK    9  A    between atoms: C_24  and  C_29
REMARK   10  A    between atoms: C_29  and  C_30
REMARK   11  A    between atoms: C_30  and  C_32
REMARK   12  A    between atoms: C_32  and  O_33
REMARK                            x       y       z     vdW  Elec       q    Type
REMARK                         _______ _______ _______ _____ _____    ______ ____
ROOT
ATOM      1  O   UNL     1      30.441 -22.019 -14.568  0.00  0.00    -0.358 OA
ATOM      2  C   UNL     1      32.239 -23.469 -14.467  0.00  0.00    +0.044 C 
ATOM      3  C   UNL     1      31.127 -22.847 -13.602  0.00  0.00    +0.116 C 
ATOM      4  C   UNL     1      31.499 -23.674 -15.816  0.00  0.00    +0.119 C 
ATOM      5  C   UNL     1      30.113 -23.070 -15.509  0.00  0.00    +0.125 C 
ATOM      6  C   UNL     1      30.045 -23.876 -13.274  0.00  0.00    +0.032 C 
ATOM      7  C   UNL     1      29.311 -24.010 -14.607  0.00  0.00    +0.033 C 
ENDROOT
BRANCH   4  10
ATOM      8  O   UNL     1      33.224 -23.594 -17.500  0.00  0.00    -0.447 OA
ATOM      9  N   UNL     1      31.740 -21.889 -17.578  0.00  0.00    -0.367 NA
ATOM     10  C   UNL     1      32.118 -22.996 -16.980  0.00  0.00    +0.255 C 
ATOM     11  C   UNL     1      32.670 -21.742 -18.576  0.00  0.00    +0.209 C 
ATOM     12  C   UNL     1      33.572 -22.776 -18.532  0.00  0.00    +0.271 C 
BRANCH  11  15
ATOM     13  O   UNL     1      31.622 -20.009 -19.782  0.00  0.00    -0.268 OA
ATOM     14  N   UNL     1      33.890 -20.300 -20.086  0.00  0.00    -0.299 N 
ATOM     15  C   UNL     1      32.659 -20.654 -19.503  0.00  0.00    +0.275 C 
ATOM     16  H   UNL     1      34.687 -20.826 -19.848  0.00  0.00    +0.150 HD
BRANCH  14  17
ATOM     17  C   UNL     1      34.047 -19.206 -21.018  0.00  0.00    +0.090 C 
BRANCH  17  18
ATOM     18  C   UNL     1      35.510 -18.814 -21.180  0.00  0.00    +0.021 C 
BRANCH  18  19
ATOM     19  C   UNL     1      35.652 -17.484 -21.919  0.00  0.00    +0.002 C 
BRANCH  19  20
ATOM     20  C   UNL     1      34.671 -16.442 -21.384  0.00  0.00    +0.000 C 
ATOM     21  C   UNL     1      34.334 -15.399 -22.438  0.00  0.00    +0.000 C 
ENDBRANCH  19  20
ENDBRANCH  18  19
ENDBRANCH  17  18
ENDBRANCH  14  17
ENDBRANCH  11  15
ENDBRANCH   4  10
BRANCH   2  22
ATOM     22  C   UNL     1      33.470 -22.565 -14.507  0.00  0.00    +0.029 C 
BRANCH  22  23
ATOM     23  C   UNL     1      34.647 -23.205 -13.823  0.00  0.00    -0.026 C 
ATOM     24  C   UNL     1      35.897 -23.253 -14.442  0.00  0.00    -0.026 C 
ATOM     25  C   UNL     1      34.477 -23.752 -12.552  0.00  0.00    -0.005 C 
ATOM     26  C   UNL     1      36.976 -23.850 -13.789  0.00  0.00    -0.005 C 
ATOM     27  C   UNL     1      35.556 -24.349 -11.899  0.00  0.00    -0.000 C 
ATOM     28  C   UNL     1      36.804 -24.398 -12.517  0.00  0.00    -0.000 C 
BRANCH  24  29
ATOM     29  C   UNL     1      36.104 -22.673 -15.802  0.00  0.00    +0.038 C 
BRANCH  29  30
ATOM     30  C   UNL     1      37.116 -21.524 -15.833  0.00  0.00    +0.114 C 
BRANCH  30  32
ATOM     31  O   UNL     1      36.131 -20.844 -17.932  0.00  0.00    -0.250 OA
ATOM     32  C   UNL     1      36.846 -20.574 -16.975  0.00  0.00    +0.314 C 
BRANCH  32  33
ATOM     33  O   UNL     1      37.503 -19.395 -16.848  0.00  0.00    -0.480 OA
ATOM     34  H   UNL     1      37.030 -18.619 -16.617  0.00  0.00    +0.295 HD
ENDBRANCH  32  33
ENDBRANCH  30  32
ENDBRANCH  29  30
ENDBRANCH  24  29
ENDBRANCH  22  23
ENDBRANCH   2  22
TORSDOF 12
ENDMDL
MODEL 2
REMARK VINA RESULT:     -10.5      2.037      2.875
REMARK  Name = 3037233
REMARK  12 active torsions:
REMARK  status: ('A' for Active; 'I' for Inactive)
REMARK    1  A    between atoms: C_2  and  C_22
REMARK    2  A    between atoms: C_4  and  C_10
REMARK    3  A    between atoms: C_11  and  C_15
REMARK    4  A    between atoms: N_14  and  C_17
REMARK    5  A    between atoms: C_17  and  C_18
REMARK    6  A    between atoms: C_18  and  C_19
REMARK    7  A    between atoms: C_19  and  C_20
REMARK    8  A    between atoms: C_22  and  C_23
REMARK    9  A    between atoms: C_24  and  C_29
REMARK   10  A    between atoms: C_29  and  C_30
REMARK   11  A    between atoms: C_30  and  C_32
REMARK   12  A    between atoms: C_32  and  O_33
REMARK                            x       y       z     vdW  Elec       q    Type
REMARK                         _______ _______ _______ _____ _____    ______ ____
ROOT
ATOM      1  O   UNL     1      31.519 -21.993 -14.283  0.00  0.00    -0.358 OA
ATOM      2  C   UNL     1      32.931 -23.765 -14.744  0.00  0.00    +0.044 C 
ATOM      3  C   UNL     1      32.100 -23.134 -13.612  0.00  0.00    +0.116 C 
ATOM      4  C   UNL     1      32.014 -23.515 -15.972  0.00  0.00    +0.119 C 
ATOM      5  C   UNL     1      30.851 -22.723 -15.340  0.00  0.00    +0.125 C 
ATOM      6  C   UNL     1      30.853 -23.967 -13.314  0.00  0.00    +0.032 C 
ATOM      7  C   UNL     1      29.960 -23.654 -14.515  0.00  0.00    +0.033 C 
ENDROOT
BRANCH   4  10
ATOM      8  O   UNL     1      33.983 -22.884 -17.216  0.00  0.00    -0.447 OA
ATOM      9  N   UNL     1      32.062 -21.927 -17.928  0.00  0.00    -0.367 NA
ATOM     10  C   UNL     1      32.637 -22.739 -17.072  0.00  0.00    +0.255 C 
ATOM     11  C   UNL     1      33.110 -21.499 -18.703  0.00  0.00    +0.209 C 
ATOM     12  C   UNL     1      34.278 -22.079 -18.274  0.00  0.00    +0.271 C 
BRANCH  11  15
ATOM     13  O   UNL     1      31.839 -20.226 -20.226  0.00  0.00    -0.268 OA
ATOM     14  N   UNL     1      34.136 -20.055 -20.349  0.00  0.00    -0.299 N 
ATOM     15  C   UNL     1      32.957 -20.582 -19.789  0.00  0.00    +0.275 C 
ATOM     16  H   UNL     1      35.000 -20.354 -19.985  0.00  0.00    +0.150 HD
BRANCH  14  17
ATOM     17  C   UNL     1      34.147 -19.096 -21.431  0.00  0.00    +0.090 C 
BRANCH  17  18
ATOM     18  C   UNL     1      35.264 -18.074 -21.263  0.00  0.00    +0.021 C 
BRANCH  18  19
ATOM     19  C   UNL     1      34.714 -16.649 -21.234  0.00  0.00    +0.002 C 
BRANCH  19  20
ATOM     20  C   UNL     1      34.471 -16.116 -22.645  0.00  0.00    +0.000 C 
ATOM     21  C   UNL     1      34.128 -14.635 -22.631  0.00  0.00    +0.000 C 
ENDBRANCH  19  20
ENDBRANCH  18  19
ENDBRANCH  17  18
ENDBRANCH  14  17
ENDBRANCH  11  15
ENDBRANCH   4  10
BRANCH   2  22
ATOM     22  C   UNL     1      34.326 -23.145 -14.809  0.00  0.00    +0.029 C 
BRANCH  22  23
ATOM     23  C   UNL     1      35.396 -24.161 -14.521  0.00  0.00    -0.026 C 
ATOM     24  C   UNL     1      36.401 -23.900 -13.588  0.00  0.00    -0.026 C 
ATOM     25  C   UNL     1      35.373 -25.380 -15.199  0.00  0.00    -0.005 C 
ATOM     26  C   UNL     1      37.382 -24.858 -13.335  0.00  0.00    -0.005 C 
ATOM     27  C   UNL     1      36.356 -26.338 -14.945  0.00  0.00    -0.000 C 
ATOM     28  C   UNL     1      37.359 -26.077 -14.014  0.00  0.00    -0.000 C 
BRANCH  24  29
ATOM     29  C   UNL     1      36.445 -22.604 -12.849  0.00  0.00    +0.038 C 
BRANCH  29  30
ATOM     30  C   UNL     1      36.749 -22.757 -11.356  0.00  0.00    +0.114 C 
BRANCH  30  32
ATOM     31  O   UNL     1      34.439 -23.395 -11.052  0.00  0.00    -0.250 OA
ATOM     32  C   UNL     1      35.578 -23.341 -10.604  0.00  0.00    +0.314 C 
BRANCH  32  33
ATOM     33  O   UNL     1      35.909 -23.778  -9.365  0.00  0.00    -0.480 OA
ATOM     34  H   UNL     1      35.634 -23.295  -8.609  0.00  0.00    +0.295 HD
ENDBRANCH  32  33
ENDBRANCH  30  32
ENDBRANCH  29  30
ENDBRANCH  24  29
ENDBRANCH  22  23
ENDBRANCH   2  22
TORSDOF 12
ENDMDL
MODEL 3
REMARK VINA RESULT:     -10.4      2.163      3.356
REMARK  Name = 3037233
REMARK  12 active torsions:
REMARK  status: ('A' for Active; 'I' for Inactive)
REMARK    1  A    between atoms: C_2  and  C_22
REMARK    2  A    between atoms: C_4  and  C_10
REMARK    3  A    between atoms: C_11  and  C_15
REMARK    4  A    between atoms: N_14  and  C_17
REMARK    5  A    between atoms: C_17  and  C_18
REMARK    6  A    between atoms: C_18  and  C_19
REMARK    7  A    between atoms: C_19  and  C_20
REMARK    8  A    between atoms: C_22  and  C_23
REMARK    9  A    between atoms: C_24  and  C_29
REMARK   10  A    between atoms: C_29  and  C_30
REMARK   11  A    between atoms: C_30  and  C_32
REMARK   12  A    between atoms: C_32  and  O_33
REMARK                            x       y       z     vdW  Elec       q    Type
REMARK                         _______ _______ _______ _____ _____    ______ ____
ROOT
ATOM      1  O   UNL     1      31.036 -22.083 -14.825  0.00  0.00    -0.358 OA
ATOM      2  C   UNL     1      33.077 -23.148 -15.044  0.00  0.00    +0.044 C 
ATOM      3  C   UNL     1      31.954 -22.866 -14.029  0.00  0.00    +0.116 C 
ATOM      4  C   UNL     1      32.266 -23.335 -16.354  0.00  0.00    +0.119 C 
ATOM      5  C   UNL     1      30.826 -23.060 -15.874  0.00  0.00    +0.125 C 
ATOM      6  C   UNL     1      31.121 -24.122 -13.768  0.00  0.00    +0.032 C 
ATOM      7  C   UNL     1      30.303 -24.241 -15.053  0.00  0.00    +0.033 C 
ENDROOT
BRANCH   4  10
ATOM      8  O   UNL     1      31.614 -21.693 -17.995  0.00  0.00    -0.447 OA
ATOM      9  N   UNL     1      33.817 -22.202 -17.985  0.00  0.00    -0.367 NA
ATOM     10  C   UNL     1      32.634 -22.414 -17.456  0.00  0.00    +0.255 C 
ATOM     11  C   UNL     1      33.561 -21.263 -18.951  0.00  0.00    +0.209 C 
ATOM     12  C   UNL     1      32.225 -20.951 -18.961  0.00  0.00    +0.271 C 
BRANCH  11  15
ATOM     13  O   UNL     1      35.730 -21.193 -19.871  0.00  0.00    -0.268 OA
ATOM     14  N   UNL     1      34.211 -19.620 -20.602  0.00  0.00    -0.299 N 
ATOM     15  C   UNL     1      34.574 -20.719 -19.801  0.00  0.00    +0.275 C 
ATOM     16  H   UNL     1      33.295 -19.269 -20.525  0.00  0.00    +0.150 HD
BRANCH  14  17
ATOM     17  C   UNL     1      35.113 -18.978 -21.533  0.00  0.00    +0.090 C 
BRANCH  17  18
ATOM     18  C   UNL     1      35.331 -17.512 -21.180  0.00  0.00    +0.021 C 
BRANCH  18  19
ATOM     19  C   UNL     1      34.774 -16.589 -22.264  0.00  0.00    +0.002 C 
BRANCH  19  20
ATOM     20  C   UNL     1      34.249 -15.284 -21.668  0.00  0.00    +0.000 C 
ATOM     21  C   UNL     1      33.894 -14.279 -22.752  0.00  0.00    +0.000 C 
ENDBRANCH  19  20
ENDBRANCH  18  19
ENDBRANCH  17  18
ENDBRANCH  14  17
ENDBRANCH  11  15
ENDBRANCH   4  10
BRANCH   2  22
ATOM     22  C   UNL     1      34.107 -22.019 -15.046  0.00  0.00    +0.029 C 
BRANCH  22  23
ATOM     23  C   UNL     1      35.511 -22.552 -14.989  0.00  0.00    -0.026 C 
ATOM     24  C   UNL     1      35.899 -23.448 -13.992  0.00  0.00    -0.026 C 
ATOM     25  C   UNL     1      36.432 -22.140 -15.953  0.00  0.00    -0.005 C 
ATOM     26  C   UNL     1      37.207 -23.932 -13.959  0.00  0.00    -0.005 C 
ATOM     27  C   UNL     1      37.740 -22.624 -15.919  0.00  0.00    -0.000 C 
ATOM     28  C   UNL     1      38.127 -23.519 -14.924  0.00  0.00    -0.000 C 
BRANCH  24  29
ATOM     29  C   UNL     1      34.931 -23.904 -12.951  0.00  0.00    +0.038 C 
BRANCH  29  30
ATOM     30  C   UNL     1      35.128 -23.228 -11.590  0.00  0.00    +0.114 C 
BRANCH  30  32
ATOM     31  O   UNL     1      35.051 -24.108  -9.341  0.00  0.00    -0.250 OA
ATOM     32  C   UNL     1      35.416 -24.236 -10.503  0.00  0.00    +0.314 C 
BRANCH  32  33
ATOM     33  O   UNL     1      36.148 -25.289 -10.940  0.00  0.00    -0.480 OA
ATOM     34  H   UNL     1      35.967 -26.151 -10.618  0.00  0.00    +0.295 HD
ENDBRANCH  32  33
ENDBRANCH  30  32
ENDBRANCH  29  30
ENDBRANCH  24  29
ENDBRANCH  22  23
ENDBRANCH   2  22
TORSDOF 12
ENDMDL
MODEL 4
REMARK VINA RESULT:     -10.0      1.667      2.045
REMARK  Name = 3037233
REMARK  12 active torsions:
REMARK  status: ('A' for Active; 'I' for Inactive)
REMARK    1  A    between atoms: C_2  and  C_22
REMARK    2  A    between atoms: C_4  and  C_10
REMARK    3  A    between atoms: C_11  and  C_15
REMARK    4  A    between atoms: N_14  and  C_17
REMARK    5  A    between atoms: C_17  and  C_18
REMARK    6  A    between atoms: C_18  and  C_19
REMARK    7  A    between atoms: C_19  and  C_20
REMARK    8  A    between atoms: C_22  and  C_23
REMARK    9  A    between atoms: C_24  and  C_29
REMARK   10  A    between atoms: C_29  and  C_30
REMARK   11  A    between atoms: C_30  and  C_32
REMARK   12  A    between atoms: C_32  and  O_33
REMARK                            x       y       z     vdW  Elec       q    Type
REMARK                         _______ _______ _______ _____ _____    ______ ____
ROOT
ATOM      1  O   UNL     1      31.049 -22.033 -14.177  0.00  0.00    -0.358 OA
ATOM      2  C   UNL     1      32.560 -23.771 -14.377  0.00  0.00    +0.044 C 
ATOM      3  C   UNL     1      31.599 -23.103 -13.376  0.00  0.00    +0.116 C 
ATOM      4  C   UNL     1      31.763 -23.638 -15.702  0.00  0.00    +0.119 C 
ATOM      5  C   UNL     1      30.515 -22.856 -15.242  0.00  0.00    +0.125 C 
ATOM      6  C   UNL     1      30.358 -23.967 -13.146  0.00  0.00    +0.032 C 
ATOM      7  C   UNL     1      29.580 -23.768 -14.446  0.00  0.00    +0.033 C 
ENDROOT
BRANCH   4  10
ATOM      8  O   UNL     1      33.803 -23.139 -16.890  0.00  0.00    -0.447 OA
ATOM      9  N   UNL     1      31.968 -22.067 -17.662  0.00  0.00    -0.367 NA
ATOM     10  C   UNL     1      32.466 -22.909 -16.786  0.00  0.00    +0.255 C 
ATOM     11  C   UNL     1      33.062 -21.711 -18.407  0.00  0.00    +0.209 C 
ATOM     12  C   UNL     1      34.179 -22.360 -17.942  0.00  0.00    +0.271 C 
BRANCH  11  15
ATOM     13  O   UNL     1      31.926 -20.476 -20.063  0.00  0.00    -0.268 OA
ATOM     14  N   UNL     1      34.213 -20.214 -19.919  0.00  0.00    -0.299 N 
ATOM     15  C   UNL     1      33.000 -20.792 -19.501  0.00  0.00    +0.275 C 
ATOM     16  H   UNL     1      35.040 -20.482 -19.458  0.00  0.00    +0.150 HD
BRANCH  14  17
ATOM     17  C   UNL     1      34.310 -19.247 -20.990  0.00  0.00    +0.090 C 
BRANCH  17  18
ATOM     18  C   UNL     1      35.648 -18.520 -20.967  0.00  0.00    +0.021 C 
BRANCH  18  19
ATOM     19  C   UNL     1      35.894 -17.765 -22.273  0.00  0.00    +0.002 C 
BRANCH  19  20
ATOM     20  C   UNL     1      34.607 -17.131 -22.801  0.00  0.00    +0.000 C 
ATOM     21  C   UNL     1      34.490 -15.674 -22.385  0.00  0.00    +0.000 C 
ENDBRANCH  19  20
ENDBRANCH  18  19
ENDBRANCH  17  18
ENDBRANCH  14  17
ENDBRANCH  11  15
ENDBRANCH   4  10
BRANCH   2  22
ATOM     22  C   UNL     1      33.932 -23.098 -14.347  0.00  0.00    +0.029 C 
BRANCH  22  23
ATOM     23  C   UNL     1      34.760 -23.584 -13.190  0.00  0.00    -0.026 C 
ATOM     24  C   UNL     1      35.904 -24.355 -13.399  0.00  0.00    -0.026 C 
ATOM     25  C   UNL     1      34.372 -23.250 -11.892  0.00  0.00    -0.005 C 
ATOM     26  C   UNL     1      36.658 -24.794 -12.311  0.00  0.00    -0.005 C 
ATOM     27  C   UNL     1      35.127 -23.689 -10.804  0.00  0.00    -0.000 C 
ATOM     28  C   UNL     1      36.270 -24.460 -11.013  0.00  0.00    -0.000 C 
BRANCH  24  29
ATOM     29  C   UNL     1      36.340 -24.724 -14.779  0.00  0.00    +0.038 C 
BRANCH  29  30
ATOM     30  C   UNL     1      37.621 -25.563 -14.816  0.00  0.00    +0.114 C 
BRANCH  30  32
ATOM     31  O   UNL     1      38.883 -23.507 -14.947  0.00  0.00    -0.250 OA
ATOM     32  C   UNL     1      38.833 -24.717 -15.126  0.00  0.00    +0.314 C 
BRANCH  32  33
ATOM     33  O   UNL     1      39.856 -25.434 -15.654  0.00  0.00    -0.480 OA
ATOM     34  H   UNL     1      39.695 -26.030 -16.359  0.00  0.00    +0.295 HD
ENDBRANCH  32  33
ENDBRANCH  30  32
ENDBRANCH  29  30
ENDBRANCH  24  29
ENDBRANCH  22  23
ENDBRANCH   2  22
TORSDOF 12
ENDMDL
MODEL 5
REMARK VINA RESULT:      -9.9      1.784      4.761
REMARK  Name = 3037233
REMARK  12 active torsions:
REMARK  status: ('A' for Active; 'I' for Inactive)
REMARK    1  A    between atoms: C_2  and  C_22
REMARK    2  A    between atoms: C_4  and  C_10
REMARK    3  A    between atoms: C_11  and  C_15
REMARK    4  A    between atoms: N_14  and  C_17
REMARK    5  A    between atoms: C_17  and  C_18
REMARK    6  A    between atoms: C_18  and  C_19
REMARK    7  A    between atoms: C_19  and  C_20
REMARK    8  A    between atoms: C_22  and  C_23
REMARK    9  A    between atoms: C_24  and  C_29
REMARK   10  A    between atoms: C_29  and  C_30
REMARK   11  A    between atoms: C_30  and  C_32
REMARK   12  A    between atoms: C_32  and  O_33
REMARK                            x       y       z     vdW  Elec       q    Type
REMARK                         _______ _______ _______ _____ _____    ______ ____
ROOT
ATOM      1  O   UNL     1      37.167 -25.163 -14.825  0.00  0.00    -0.358 OA
ATOM      2  C   UNL     1      35.363 -23.955 -14.029  0.00  0.00    +0.044 C 
ATOM      3  C   UNL     1      36.062 -25.322 -13.907  0.00  0.00    +0.116 C 
ATOM      4  C   UNL     1      36.579 -23.003 -14.189  0.00  0.00    +0.119 C 
ATOM      5  C   UNL     1      37.758 -23.998 -14.200  0.00  0.00    +0.125 C 
ATOM      6  C   UNL     1      36.801 -25.444 -12.574  0.00  0.00    +0.032 C 
ATOM      7  C   UNL     1      38.012 -24.537 -12.791  0.00  0.00    +0.033 C 
ENDROOT
BRANCH   4  10
ATOM      8  O   UNL     1      37.296 -21.030 -15.378  0.00  0.00    -0.447 OA
ATOM      9  N   UNL     1      35.968 -22.424 -16.564  0.00  0.00    -0.367 NA
ATOM     10  C   UNL     1      36.576 -22.184 -15.425  0.00  0.00    +0.255 C 
ATOM     11  C   UNL     1      36.313 -21.343 -17.334  0.00  0.00    +0.209 C 
ATOM     12  C   UNL     1      37.120 -20.494 -16.618  0.00  0.00    +0.271 C 
BRANCH  11  15
ATOM     13  O   UNL     1      35.232 -22.046 -19.307  0.00  0.00    -0.268 OA
ATOM     14  N   UNL     1      36.161 -19.935 -19.295  0.00  0.00    -0.299 N 
ATOM     15  C   UNL     1      35.872 -21.169 -18.683  0.00  0.00    +0.275 C 
ATOM     16  H   UNL     1      36.665 -19.266 -18.780  0.00  0.00    +0.150 HD
BRANCH  14  17
ATOM     17  C   UNL     1      35.757 -19.598 -20.642  0.00  0.00    +0.090 C 
BRANCH  17  18
ATOM     18  C   UNL     1      36.386 -18.290 -21.104  0.00  0.00    +0.021 C 
BRANCH  18  19
ATOM     19  C   UNL     1      35.451 -17.520 -22.035  0.00  0.00    +0.002 C 
BRANCH  19  20
ATOM     20  C   UNL     1      34.633 -16.480 -21.270  0.00  0.00    +0.000 C 
ATOM     21  C   UNL     1      34.279 -15.291 -22.148  0.00  0.00    +0.000 C 
ENDBRANCH  19  20
ENDBRANCH  18  19
ENDBRANCH  17  18
ENDBRANCH  14  17
ENDBRANCH  11  15
ENDBRANCH   4  10
BRANCH   2  22
ATOM     22  C   UNL     1      34.356 -23.957 -15.178  0.00  0.00    +0.029 C 
BRANCH  22  23
ATOM     23  C   UNL     1      32.984 -23.557 -14.711  0.00  0.00    -0.026 C 
ATOM     24  C   UNL     1      32.063 -22.989 -15.592  0.00  0.00    -0.026 C 
ATOM     25  C   UNL     1      32.636 -23.764 -13.376  0.00  0.00    -0.005 C 
ATOM     26  C   UNL     1      30.795 -22.627 -15.137  0.00  0.00    -0.005 C 
ATOM     27  C   UNL     1      31.368 -23.401 -12.921  0.00  0.00    -0.000 C 
ATOM     28  C   UNL     1      30.448 -22.834 -13.801  0.00  0.00    -0.000 C 
BRANCH  24  29
ATOM     29  C   UNL     1      32.411 -22.760 -17.025  0.00  0.00    +0.038 C 
BRANCH  29  30
ATOM     30  C   UNL     1      31.605 -21.635 -17.682  0.00  0.00    +0.114 C 
BRANCH  30  32
ATOM     31  O   UNL     1      32.104 -20.130 -19.505  0.00  0.00    -0.250 OA
ATOM     32  C   UNL     1      32.171 -21.257 -19.030  0.00  0.00    +0.314 C 
BRANCH  32  33
ATOM     33  O   UNL     1      32.739 -22.304 -19.677  0.00  0.00    -0.480 OA
ATOM     34  H   UNL     1      32.555 -23.181 -19.400  0.00  0.00    +0.295 HD
ENDBRANCH  32  33
ENDBRANCH  30  32
ENDBRANCH  29  30
ENDBRANCH  24  29
ENDBRANCH  22  23
ENDBRANCH   2  22
TORSDOF 12
ENDMDL
MODEL 6
REMARK VINA RESULT:      -9.4      2.613      5.265
REMARK  Name = 3037233
REMARK  12 active torsions:
REMARK  status: ('A' for Active; 'I' for Inactive)
REMARK    1  A    between atoms: C_2  and  C_22
REMARK    2  A    between atoms: C_4  and  C_10
REMARK    3  A    between atoms: C_11  and  C_15
REMARK    4  A    between atoms: N_14  and  C_17
REMARK    5  A    between atoms: C_17  and  C_18
REMARK    6  A    between atoms: C_18  and  C_19
REMARK    7  A    between atoms: C_19  and  C_20
REMARK    8  A    between atoms: C_22  and  C_23
REMARK    9  A    between atoms: C_24  and  C_29
REMARK   10  A    between atoms: C_29  and  C_30
REMARK   11  A    between atoms: C_30  and  C_32
REMARK   12  A    between atoms: C_32  and  O_33
REMARK                            x       y       z     vdW  Elec       q    Type
REMARK                         _______ _______ _______ _____ _____    ______ ____
ROOT
ATOM      1  O   UNL     1      37.635 -25.417 -15.128  0.00  0.00    -0.358 OA
ATOM      2  C   UNL     1      35.792 -24.474 -14.097  0.00  0.00    +0.044 C 
ATOM      3  C   UNL     1      36.631 -25.764 -14.147  0.00  0.00    +0.116 C 
ATOM      4  C   UNL     1      36.890 -23.389 -14.264  0.00  0.00    +0.119 C 
ATOM      5  C   UNL     1      38.157 -24.249 -14.449  0.00  0.00    +0.125 C 
ATOM      6  C   UNL     1      37.487 -25.913 -12.889  0.00  0.00    +0.032 C 
ATOM      7  C   UNL     1      38.579 -24.868 -13.116  0.00  0.00    +0.033 C 
ENDROOT
BRANCH   4  10
ATOM      8  O   UNL     1      37.333 -21.276 -15.341  0.00  0.00    -0.447 OA
ATOM      9  N   UNL     1      36.005 -22.680 -16.514  0.00  0.00    -0.367 NA
ATOM     10  C   UNL     1      36.702 -22.480 -15.420  0.00  0.00    +0.255 C 
ATOM     11  C   UNL     1      36.189 -21.518 -17.218  0.00  0.00    +0.209 C 
ATOM     12  C   UNL     1      36.996 -20.663 -16.509  0.00  0.00    +0.271 C 
BRANCH  11  15
ATOM     13  O   UNL     1      34.746 -22.034 -19.009  0.00  0.00    -0.268 OA
ATOM     14  N   UNL     1      36.015 -20.117 -19.182  0.00  0.00    -0.299 N 
ATOM     15  C   UNL     1      35.605 -21.278 -18.501  0.00  0.00    +0.275 C 
ATOM     16  H   UNL     1      36.692 -19.542 -18.757  0.00  0.00    +0.150 HD
BRANCH  14  17
ATOM     17  C   UNL     1      35.496 -19.721 -20.472  0.00  0.00    +0.090 C 
BRANCH  17  18
ATOM     18  C   UNL     1      36.322 -18.601 -21.089  0.00  0.00    +0.021 C 
BRANCH  18  19
ATOM     19  C   UNL     1      35.536 -17.857 -22.167  0.00  0.00    +0.002 C 
BRANCH  19  20
ATOM     20  C   UNL     1      34.805 -16.646 -21.588  0.00  0.00    +0.000 C 
ATOM     21  C   UNL     1      34.372 -15.680 -22.679  0.00  0.00    +0.000 C 
ENDBRANCH  19  20
ENDBRANCH  18  19
ENDBRANCH  17  18
ENDBRANCH  14  17
ENDBRANCH  11  15
ENDBRANCH   4  10
BRANCH   2  22
ATOM     22  C   UNL     1      34.698 -24.492 -15.164  0.00  0.00    +0.029 C 
BRANCH  22  23
ATOM     23  C   UNL     1      33.473 -23.748 -14.711  0.00  0.00    -0.026 C 
ATOM     24  C   UNL     1      33.170 -23.620 -13.355  0.00  0.00    -0.026 C 
ATOM     25  C   UNL     1      32.634 -23.177 -15.669  0.00  0.00    -0.005 C 
ATOM     26  C   UNL     1      32.030 -22.923 -12.957  0.00  0.00    -0.005 C 
ATOM     27  C   UNL     1      31.493 -22.481 -15.271  0.00  0.00    -0.000 C 
ATOM     28  C   UNL     1      31.191 -22.353 -13.916  0.00  0.00    -0.000 C 
BRANCH  24  29
ATOM     29  C   UNL     1      34.053 -24.221 -12.311  0.00  0.00    +0.038 C 
BRANCH  29  30
ATOM     30  C   UNL     1      34.652 -23.193 -11.346  0.00  0.00    +0.114 C 
BRANCH  30  32
ATOM     31  O   UNL     1      36.793 -23.768 -10.384  0.00  0.00    -0.250 OA
ATOM     32  C   UNL     1      35.571 -23.842 -10.339  0.00  0.00    +0.314 C 
BRANCH  32  33
ATOM     33  O   UNL     1      34.904 -24.544  -9.391  0.00  0.00    -0.480 OA
ATOM     34  H   UNL     1      35.113 -25.446  -9.243  0.00  0.00    +0.295 HD
ENDBRANCH  32  33
ENDBRANCH  30  32
ENDBRANCH  29  30
ENDBRANCH  24  29
ENDBRANCH  22  23
ENDBRANCH   2  22
TORSDOF 12
ENDMDL
MODEL 7
REMARK VINA RESULT:      -9.1      1.983      4.824
REMARK  Name = 3037233
REMARK  12 active torsions:
REMARK  status: ('A' for Active; 'I' for Inactive)
REMARK    1  A    between atoms: C_2  and  C_22
REMARK    2  A    between atoms: C_4  and  C_10
REMARK    3  A    between atoms: C_11  and  C_15
REMARK    4  A    between atoms: N_14  and  C_17
REMARK    5  A    between atoms: C_17  and  C_18
REMARK    6  A    between atoms: C_18  and  C_19
REMARK    7  A    between atoms: C_19  and  C_20
REMARK    8  A    between atoms: C_22  and  C_23
REMARK    9  A    between atoms: C_24  and  C_29
REMARK   10  A    between atoms: C_29  and  C_30
REMARK   11  A    between atoms: C_30  and  C_32
REMARK   12  A    between atoms: C_32  and  O_33
REMARK                            x       y       z     vdW  Elec       q    Type
REMARK                         _______ _______ _______ _____ _____    ______ ____
ROOT
ATOM      1  O   UNL     1      36.191 -24.784 -12.310  0.00  0.00    -0.358 OA
ATOM      2  C   UNL     1      34.419 -23.351 -12.695  0.00  0.00    +0.044 C 
ATOM      3  C   UNL     1      34.842 -24.561 -11.843  0.00  0.00    +0.116 C 
ATOM      4  C   UNL     1      35.744 -22.546 -12.763  0.00  0.00    +0.119 C 
ATOM      5  C   UNL     1      36.713 -23.470 -11.996  0.00  0.00    +0.125 C 
ATOM      6  C   UNL     1      35.097 -24.150 -10.392  0.00  0.00    +0.032 C 
ATOM      7  C   UNL     1      36.429 -23.409 -10.495  0.00  0.00    +0.033 C 
ENDROOT
BRANCH   4  10
ATOM      8  O   UNL     1      37.281 -23.065 -14.549  0.00  0.00    -0.447 OA
ATOM      9  N   UNL     1      35.830 -21.391 -15.001  0.00  0.00    -0.367 NA
ATOM     10  C   UNL     1      36.248 -22.283 -14.133  0.00  0.00    +0.255 C 
ATOM     11  C   UNL     1      36.650 -21.599 -16.080  0.00  0.00    +0.209 C 
ATOM     12  C   UNL     1      37.532 -22.616 -15.810  0.00  0.00    +0.271 C 
BRANCH  11  15
ATOM     13  O   UNL     1      37.007 -19.678 -17.398  0.00  0.00    -0.268 OA
ATOM     14  N   UNL     1      35.965 -21.477 -18.397  0.00  0.00    -0.299 N 
ATOM     15  C   UNL     1      36.561 -20.843 -17.290  0.00  0.00    +0.275 C 
ATOM     16  H   UNL     1      35.624 -22.392 -18.281  0.00  0.00    +0.150 HD
BRANCH  14  17
ATOM     17  C   UNL     1      35.828 -20.855 -19.695  0.00  0.00    +0.090 C 
BRANCH  17  18
ATOM     18  C   UNL     1      34.459 -20.208 -19.864  0.00  0.00    +0.021 C 
BRANCH  18  19
ATOM     19  C   UNL     1      34.376 -19.412 -21.166  0.00  0.00    +0.002 C 
BRANCH  19  20
ATOM     20  C   UNL     1      35.454 -18.331 -21.227  0.00  0.00    +0.000 C 
ATOM     21  C   UNL     1      34.846 -16.944 -21.363  0.00  0.00    +0.000 C 
ENDBRANCH  19  20
ENDBRANCH  18  19
ENDBRANCH  17  18
ENDBRANCH  14  17
ENDBRANCH  11  15
ENDBRANCH   4  10
BRANCH   2  22
ATOM     22  C   UNL     1      33.836 -23.803 -14.034  0.00  0.00    +0.029 C 
BRANCH  22  23
ATOM     23  C   UNL     1      32.333 -23.815 -14.006  0.00  0.00    -0.026 C 
ATOM     24  C   UNL     1      31.593 -22.985 -14.848  0.00  0.00    -0.026 C 
ATOM     25  C   UNL     1      31.679 -24.675 -13.124  0.00  0.00    -0.005 C 
ATOM     26  C   UNL     1      30.199 -23.014 -14.808  0.00  0.00    -0.005 C 
ATOM     27  C   UNL     1      30.285 -24.704 -13.083  0.00  0.00    -0.000 C 
ATOM     28  C   UNL     1      29.545 -23.874 -13.925  0.00  0.00    -0.000 C 
BRANCH  24  29
ATOM     29  C   UNL     1      32.271 -22.057 -15.802  0.00  0.00    +0.038 C 
BRANCH  29  30
ATOM     30  C   UNL     1      31.985 -22.370 -17.274  0.00  0.00    +0.114 C 
BRANCH  30  32
ATOM     31  O   UNL     1      33.238 -23.234 -19.150  0.00  0.00    -0.250 OA
ATOM     32  C   UNL     1      33.170 -23.021 -17.946  0.00  0.00    +0.314 C 
BRANCH  32  33
ATOM     33  O   UNL     1      34.145 -23.373 -17.072  0.00  0.00    -0.480 OA
ATOM     34  H   UNL     1      33.966 -23.388 -16.152  0.00  0.00    +0.295 HD
ENDBRANCH  32  33
ENDBRANCH  30  32
ENDBRANCH  29  30
ENDBRANCH  24  29
ENDBRANCH  22  23
ENDBRANCH   2  22
TORSDOF 12
ENDMDL
MODEL 8
REMARK VINA RESULT:      -8.9      3.105      7.423
REMARK  Name = 3037233
REMARK  12 active torsions:
REMARK  status: ('A' for Active; 'I' for Inactive)
REMARK    1  A    between atoms: C_2  and  C_22
REMARK    2  A    between atoms: C_4  and  C_10
REMARK    3  A    between atoms: C_11  and  C_15
REMARK    4  A    between atoms: N_14  and  C_17
REMARK    5  A    between atoms: C_17  and  C_18
REMARK    6  A    between atoms: C_18  and  C_19
REMARK    7  A    between atoms: C_19  and  C_20
REMARK    8  A    between atoms: C_22  and  C_23
REMARK    9  A    between atoms: C_24  and  C_29
REMARK   10  A    between atoms: C_29  and  C_30
REMARK   11  A    between atoms: C_30  and  C_32
REMARK   12  A    between atoms: C_32  and  O_33
REMARK                            x       y       z     vdW  Elec       q    Type
REMARK                         _______ _______ _______ _____ _____    ______ ____
ROOT
ATOM      1  O   UNL     1      38.255 -23.567 -13.328  0.00  0.00    -0.358 OA
ATOM      2  C   UNL     1      37.036 -23.566 -15.293  0.00  0.00    +0.044 C 
ATOM      3  C   UNL     1      38.462 -23.374 -14.745  0.00  0.00    +0.116 C 
ATOM      4  C   UNL     1      36.501 -24.691 -14.366  0.00  0.00    +0.119 C 
ATOM      5  C   UNL     1      37.691 -24.899 -13.406  0.00  0.00    +0.125 C 
ATOM      6  C   UNL     1      39.347 -24.575 -15.080  0.00  0.00    +0.032 C 
ATOM      7  C   UNL     1      38.825 -25.640 -14.116  0.00  0.00    +0.033 C 
ENDROOT
BRANCH   4  10
ATOM      8  O   UNL     1      35.461 -23.894 -12.341  0.00  0.00    -0.447 OA
ATOM      9  N   UNL     1      34.022 -24.431 -14.001  0.00  0.00    -0.367 NA
ATOM     10  C   UNL     1      35.273 -24.350 -13.610  0.00  0.00    +0.255 C 
ATOM     11  C   UNL     1      33.325 -23.991 -12.905  0.00  0.00    +0.209 C 
ATOM     12  C   UNL     1      34.195 -23.664 -11.895  0.00  0.00    +0.271 C 
BRANCH  11  15
ATOM     13  O   UNL     1      31.289 -22.940 -12.351  0.00  0.00    -0.268 OA
ATOM     14  N   UNL     1      31.179 -24.952 -13.472  0.00  0.00    -0.299 N 
ATOM     15  C   UNL     1      31.898 -23.904 -12.867  0.00  0.00    +0.275 C 
ATOM     16  H   UNL     1      31.685 -25.696 -13.870  0.00  0.00    +0.150 HD
BRANCH  14  17
ATOM     17  C   UNL     1      29.735 -24.994 -13.542  0.00  0.00    +0.090 C 
BRANCH  17  18
ATOM     18  C   UNL     1      29.241 -24.910 -14.980  0.00  0.00    +0.021 C 
BRANCH  18  19
ATOM     19  C   UNL     1      28.292 -23.728 -15.176  0.00  0.00    +0.002 C 
BRANCH  19  20
ATOM     20  C   UNL     1      27.771 -23.664 -16.611  0.00  0.00    +0.000 C 
ATOM     21  C   UNL     1      27.052 -22.353 -16.885  0.00  0.00    +0.000 C 
ENDBRANCH  19  20
ENDBRANCH  18  19
ENDBRANCH  17  18
ENDBRANCH  14  17
ENDBRANCH  11  15
ENDBRANCH   4  10
BRANCH   2  22
ATOM     22  C   UNL     1      36.259 -22.250 -15.268  0.00  0.00    +0.029 C 
BRANCH  22  23
ATOM     23  C   UNL     1      35.821 -21.842 -16.647  0.00  0.00    -0.026 C 
ATOM     24  C   UNL     1      34.560 -22.192 -17.132  0.00  0.00    -0.026 C 
ATOM     25  C   UNL     1      36.693 -21.101 -17.444  0.00  0.00    -0.005 C 
ATOM     26  C   UNL     1      34.172 -21.801 -18.414  0.00  0.00    -0.005 C 
ATOM     27  C   UNL     1      36.306 -20.711 -18.727  0.00  0.00    -0.000 C 
ATOM     28  C   UNL     1      35.046 -21.060 -19.211  0.00  0.00    -0.000 C 
BRANCH  24  29
ATOM     29  C   UNL     1      33.608 -22.983 -16.297  0.00  0.00    +0.038 C 
BRANCH  29  30
ATOM     30  C   UNL     1      32.257 -23.233 -16.974  0.00  0.00    +0.114 C 
BRANCH  30  32
ATOM     31  O   UNL     1      30.389 -21.718 -17.200  0.00  0.00    -0.250 OA
ATOM     32  C   UNL     1      31.197 -22.282 -16.473  0.00  0.00    +0.314 C 
BRANCH  32  33
ATOM     33  O   UNL     1      31.248 -22.093 -15.131  0.00  0.00    -0.480 OA
ATOM     34  H   UNL     1      31.337 -21.227 -14.784  0.00  0.00    +0.295 HD
ENDBRANCH  32  33
ENDBRANCH  30  32
ENDBRANCH  29  30
ENDBRANCH  24  29
ENDBRANCH  22  23
ENDBRANCH   2  22
TORSDOF 12
ENDMDL
MODEL 9
REMARK VINA RESULT:      -8.8      1.693      5.035
REMARK  Name = 3037233
REMARK  12 active torsions:
REMARK  status: ('A' for Active; 'I' for Inactive)
REMARK    1  A    between atoms: C_2  and  C_22
REMARK    2  A    between atoms: C_4  and  C_10
REMARK    3  A    between atoms: C_11  and  C_15
REMARK    4  A    between atoms: N_14  and  C_17
REMARK    5  A    between atoms: C_17  and  C_18
REMARK    6  A    between atoms: C_18  and  C_19
REMARK    7  A    between atoms: C_19  and  C_20
REMARK    8  A    between atoms: C_22  and  C_23
REMARK    9  A    between atoms: C_24  and  C_29
REMARK   10  A    between atoms: C_29  and  C_30
REMARK   11  A    between atoms: C_30  and  C_32
REMARK   12  A    between atoms: C_32  and  O_33
REMARK                            x       y       z     vdW  Elec       q    Type
REMARK                         _______ _______ _______ _____ _____    ______ ____
ROOT
ATOM      1  O   UNL     1      35.794 -24.973 -15.251  0.00  0.00    -0.358 OA
ATOM      2  C   UNL     1      34.540 -23.255 -14.343  0.00  0.00    +0.044 C 
ATOM      3  C   UNL     1      34.956 -24.718 -14.102  0.00  0.00    +0.116 C 
ATOM      4  C   UNL     1      35.839 -22.665 -14.955  0.00  0.00    +0.119 C 
ATOM      5  C   UNL     1      36.749 -23.909 -15.020  0.00  0.00    +0.125 C 
ATOM      6  C   UNL     1      35.975 -24.820 -12.966  0.00  0.00    +0.032 C 
ATOM      7  C   UNL     1      37.245 -24.280 -13.622  0.00  0.00    +0.033 C 
ENDROOT
BRANCH   4  10
ATOM      8  O   UNL     1      36.783 -21.447 -16.811  0.00  0.00    -0.447 OA
ATOM      9  N   UNL     1      34.616 -22.040 -17.067  0.00  0.00    -0.367 NA
ATOM     10  C   UNL     1      35.681 -22.062 -16.300  0.00  0.00    +0.255 C 
ATOM     11  C   UNL     1      35.045 -21.358 -18.177  0.00  0.00    +0.209 C 
ATOM     12  C   UNL     1      36.361 -20.997 -18.025  0.00  0.00    +0.271 C 
BRANCH  11  15
ATOM     13  O   UNL     1      33.157 -21.728 -19.538  0.00  0.00    -0.268 OA
ATOM     14  N   UNL     1      34.594 -20.029 -20.146  0.00  0.00    -0.299 N 
ATOM     15  C   UNL     1      34.207 -21.087 -19.303  0.00  0.00    +0.275 C 
ATOM     16  H   UNL     1      35.424 -19.544 -19.935  0.00  0.00    +0.150 HD
BRANCH  14  17
ATOM     17  C   UNL     1      33.837 -19.614 -21.306  0.00  0.00    +0.090 C 
BRANCH  17  18
ATOM     18  C   UNL     1      34.716 -18.894 -22.320  0.00  0.00    +0.021 C 
BRANCH  18  19
ATOM     19  C   UNL     1      35.523 -17.775 -21.662  0.00  0.00    +0.002 C 
BRANCH  19  20
ATOM     20  C   UNL     1      34.627 -16.603 -21.261  0.00  0.00    +0.000 C 
ATOM     21  C   UNL     1      34.511 -15.581 -22.380  0.00  0.00    +0.000 C 
ENDBRANCH  19  20
ENDBRANCH  18  19
ENDBRANCH  17  18
ENDBRANCH  14  17
ENDBRANCH  11  15
ENDBRANCH   4  10
BRANCH   2  22
ATOM     22  C   UNL     1      33.291 -23.180 -15.219  0.00  0.00    +0.029 C 
BRANCH  22  23
ATOM     23  C   UNL     1      32.079 -23.701 -14.498  0.00  0.00    -0.026 C 
ATOM     24  C   UNL     1      30.803 -23.568 -15.049  0.00  0.00    -0.026 C 
ATOM     25  C   UNL     1      32.243 -24.327 -13.262  0.00  0.00    -0.005 C 
ATOM     26  C   UNL     1      29.693 -24.060 -14.363  0.00  0.00    -0.005 C 
ATOM     27  C   UNL     1      31.132 -24.818 -12.576  0.00  0.00    -0.000 C 
ATOM     28  C   UNL     1      29.858 -24.686 -13.126  0.00  0.00    -0.000 C 
BRANCH  24  29
ATOM     29  C   UNL     1      30.603 -22.904 -16.370  0.00  0.00    +0.038 C 
BRANCH  29  30
ATOM     30  C   UNL     1      29.562 -21.779 -16.343  0.00  0.00    +0.114 C 
BRANCH  30  32
ATOM     31  O   UNL     1      27.838 -23.125 -17.368  0.00  0.00    -0.250 OA
ATOM     32  C   UNL     1      28.160 -22.312 -16.510  0.00  0.00    +0.314 C 
BRANCH  32  33
ATOM     33  O   UNL     1      27.282 -21.775 -15.628  0.00  0.00    -0.480 OA
ATOM     34  H   UNL     1      26.886 -20.945 -15.809  0.00  0.00    +0.295 HD
ENDBRANCH  32  33
ENDBRANCH  30  32
ENDBRANCH  29  30
ENDBRANCH  24  29
ENDBRANCH  22  23
ENDBRANCH   2  22
TORSDOF 12
ENDMDL
