MODEL 1
REMARK VINA RESULT:     -11.8      0.000      0.000
REMARK  Name = 9841854
REMARK  4 active torsions:
REMARK  status: ('A' for Active; 'I' for Inactive)
REMARK    1  A    between atoms: C_5  and  C_10
REMARK    2  A    between atoms: C_6  and  C_16
REMARK    3  A    between atoms: C_19  and  S_22
REMARK    4  A    between atoms: S_22  and  N_25
REMARK                            x       y       z     vdW  Elec       q    Type
REMARK                         _______ _______ _______ _____ _____    ______ ____
ROOT
ATOM      1  O   UNL     1      32.804 -24.151 -13.729  0.00  0.00    -0.475 OA
ATOM      2  O   UNL     1      30.755 -22.404 -15.945  0.00  0.00    -0.288 OA
ATOM      3  C   UNL     1      31.472 -23.697 -14.024  0.00  0.00    +0.188 C 
ATOM      4  C   UNL     1      31.652 -22.945 -15.316  0.00  0.00    +0.212 C 
ATOM      5  C   UNL     1      33.061 -22.962 -15.731  0.00  0.00    +0.072 C 
ATOM      6  C   UNL     1      33.626 -23.668 -14.743  0.00  0.00    +0.142 C 
ATOM      7  C   UNL     1      30.563 -24.904 -14.207  0.00  0.00    +0.052 C 
ATOM      8  C   UNL     1      30.998 -22.776 -12.909  0.00  0.00    +0.052 C 
ENDROOT
BRANCH   5  10
ATOM      9  F   UNL     1      32.508 -21.103 -20.179  0.00  0.00    -0.204 F 
ATOM     10  C   UNL     1      33.615 -22.344 -16.931  0.00  0.00    +0.008 C 
ATOM     11  C   UNL     1      32.783 -22.009 -18.008  0.00  0.00    +0.030 C 
ATOM     12  C   UNL     1      34.988 -22.075 -17.024  0.00  0.00    +0.000 C 
ATOM     13  C   UNL     1      33.312 -21.418 -19.155  0.00  0.00    +0.140 C 
ATOM     14  C   UNL     1      35.518 -21.484 -18.170  0.00  0.00    +0.002 C 
ATOM     15  C   UNL     1      34.680 -21.155 -19.236  0.00  0.00    +0.030 C 
ENDBRANCH   5  10
BRANCH   6  16
ATOM     16  C   UNL     1      35.048 -23.999 -14.594  0.00  0.00    +0.034 C 
ATOM     17  C   UNL     1      35.941 -23.053 -14.080  0.00  0.00    +0.004 C 
ATOM     18  C   UNL     1      35.521 -25.262 -14.965  0.00  0.00    +0.004 C 
ATOM     19  C   UNL     1      37.759 -24.628 -14.311  0.00  0.00    +0.122 C 
ATOM     20  C   UNL     1      37.293 -23.367 -13.939  0.00  0.00    +0.020 C 
ATOM     21  C   UNL     1      36.872 -25.575 -14.823  0.00  0.00    +0.020 C 
BRANCH  19  22
ATOM     22  S   UNL     1      39.451 -25.020 -14.134  0.00  0.00    +0.057 S 
ATOM     23  O   UNL     1      40.174 -23.798 -13.810  0.00  0.00    -0.153 OA
ATOM     24  O   UNL     1      39.568 -26.182 -13.264  0.00  0.00    -0.153 OA
BRANCH  22  25
ATOM     25  N   UNL     1      39.846 -25.488 -15.729  0.00  0.00    -0.203 NA
ATOM     26  H   UNL     1      39.056 -25.981 -16.144  0.00  0.00    +0.144 HD
ATOM     27  H   UNL     1      40.659 -26.101 -15.712  0.00  0.00    +0.144 HD
ENDBRANCH  22  25
ENDBRANCH  19  22
ENDBRANCH   6  16
TORSDOF 4
ENDMDL
MODEL 2
REMARK VINA RESULT:     -11.7      1.098      1.521
REMARK  Name = 9841854
REMARK  4 active torsions:
REMARK  status: ('A' for Active; 'I' for Inactive)
REMARK    1  A    between atoms: C_5  and  C_10
REMARK    2  A    between atoms: C_6  and  C_16
REMARK    3  A    between atoms: C_19  and  S_22
REMARK    4  A    between atoms: S_22  and  N_25
REMARK                            x       y       z     vdW  Elec       q    Type
REMARK                         _______ _______ _______ _____ _____    ______ ____
ROOT
ATOM      1  O   UNL     1      31.784 -23.740 -14.493  0.00  0.00    -0.475 OA
ATOM      2  O   UNL     1      30.162 -22.056 -17.081  0.00  0.00    -0.288 OA
ATOM      3  C   UNL     1      30.525 -23.301 -15.032  0.00  0.00    +0.188 C 
ATOM      4  C   UNL     1      30.932 -22.578 -16.289  0.00  0.00    +0.212 C 
ATOM      5  C   UNL     1      32.393 -22.597 -16.446  0.00  0.00    +0.072 C 
ATOM      6  C   UNL     1      32.773 -23.277 -15.356  0.00  0.00    +0.142 C 
ATOM      7  C   UNL     1      29.665 -24.517 -15.345  0.00  0.00    +0.052 C 
ATOM      8  C   UNL     1      29.859 -22.356 -14.042  0.00  0.00    +0.052 C 
ENDROOT
BRANCH   5  10
ATOM      9  F   UNL     1      32.573 -20.238 -20.682  0.00  0.00    -0.204 F 
ATOM     10  C   UNL     1      33.151 -22.004 -17.541  0.00  0.00    +0.008 C 
ATOM     11  C   UNL     1      32.490 -21.389 -18.613  0.00  0.00    +0.030 C 
ATOM     12  C   UNL     1      34.553 -22.039 -17.538  0.00  0.00    +0.000 C 
ATOM     13  C   UNL     1      33.215 -20.822 -19.661  0.00  0.00    +0.140 C 
ATOM     14  C   UNL     1      35.278 -21.473 -18.584  0.00  0.00    +0.002 C 
ATOM     15  C   UNL     1      34.610 -20.863 -19.646  0.00  0.00    +0.030 C 
ENDBRANCH   5  10
BRANCH   6  16
ATOM     16  C   UNL     1      34.146 -23.596 -14.947  0.00  0.00    +0.034 C 
ATOM     17  C   UNL     1      34.644 -24.893 -15.103  0.00  0.00    +0.004 C 
ATOM     18  C   UNL     1      34.966 -22.604 -14.399  0.00  0.00    +0.004 C 
ATOM     19  C   UNL     1      36.762 -24.204 -14.167  0.00  0.00    +0.122 C 
ATOM     20  C   UNL     1      35.949 -25.197 -14.713  0.00  0.00    +0.020 C 
ATOM     21  C   UNL     1      36.271 -22.908 -14.010  0.00  0.00    +0.020 C 
BRANCH  19  22
ATOM     22  S   UNL     1      38.395 -24.584 -13.679  0.00  0.00    +0.057 S 
ATOM     23  O   UNL     1      38.748 -23.735 -12.551  0.00  0.00    -0.153 OA
ATOM     24  O   UNL     1      38.517 -26.032 -13.562  0.00  0.00    -0.153 OA
BRANCH  22  25
ATOM     25  N   UNL     1      39.273 -24.071 -15.052  0.00  0.00    -0.203 NA
ATOM     26  H   UNL     1      39.464 -24.871 -15.654  0.00  0.00    +0.144 HD
ATOM     27  H   UNL     1      40.153 -23.651 -14.756  0.00  0.00    +0.144 HD
ENDBRANCH  22  25
ENDBRANCH  19  22
ENDBRANCH   6  16
TORSDOF 4
ENDMDL
MODEL 3
REMARK VINA RESULT:     -10.5      3.746      6.308
REMARK  Name = 9841854
REMARK  4 active torsions:
REMARK  status: ('A' for Active; 'I' for Inactive)
REMARK    1  A    between atoms: C_5  and  C_10
REMARK    2  A    between atoms: C_6  and  C_16
REMARK    3  A    between atoms: C_19  and  S_22
REMARK    4  A    between atoms: S_22  and  N_25
REMARK                            x       y       z     vdW  Elec       q    Type
REMARK                         _______ _______ _______ _____ _____    ______ ____
ROOT
ATOM      1  O   UNL     1      34.725 -23.497 -13.517  0.00  0.00    -0.475 OA
ATOM      2  O   UNL     1      37.602 -22.781 -15.356  0.00  0.00    -0.288 OA
ATOM      3  C   UNL     1      36.162 -23.541 -13.558  0.00  0.00    +0.188 C 
ATOM      4  C   UNL     1      36.477 -22.955 -14.909  0.00  0.00    +0.212 C 
ATOM      5  C   UNL     1      35.241 -22.603 -15.621  0.00  0.00    +0.072 C 
ATOM      6  C   UNL     1      34.306 -22.968 -14.734  0.00  0.00    +0.142 C 
ATOM      7  C   UNL     1      36.720 -22.678 -12.436  0.00  0.00    +0.052 C 
ATOM      8  C   UNL     1      36.622 -24.989 -13.463  0.00  0.00    +0.052 C 
ENDROOT
BRANCH   5  10
ATOM      9  F   UNL     1      32.768 -21.704 -19.697  0.00  0.00    -0.204 F 
ATOM     10  C   UNL     1      35.149 -22.008 -16.949  0.00  0.00    +0.008 C 
ATOM     11  C   UNL     1      33.978 -22.140 -17.709  0.00  0.00    +0.030 C 
ATOM     12  C   UNL     1      36.231 -21.296 -17.487  0.00  0.00    +0.000 C 
ATOM     13  C   UNL     1      33.891 -21.571 -18.980  0.00  0.00    +0.140 C 
ATOM     14  C   UNL     1      36.145 -20.728 -18.756  0.00  0.00    +0.002 C 
ATOM     15  C   UNL     1      34.974 -20.865 -19.503  0.00  0.00    +0.030 C 
ENDBRANCH   5  10
BRANCH   6  16
ATOM     16  C   UNL     1      32.850 -22.880 -14.899  0.00  0.00    +0.034 C 
ATOM     17  C   UNL     1      32.256 -23.230 -16.116  0.00  0.00    +0.004 C 
ATOM     18  C   UNL     1      32.046 -22.447 -13.840  0.00  0.00    +0.004 C 
ATOM     19  C   UNL     1      30.076 -22.712 -15.213  0.00  0.00    +0.122 C 
ATOM     20  C   UNL     1      30.872 -23.145 -16.272  0.00  0.00    +0.020 C 
ATOM     21  C   UNL     1      30.662 -22.364 -13.996  0.00  0.00    +0.020 C 
BRANCH  19  22
ATOM     22  S   UNL     1      28.344 -22.607 -15.410  0.00  0.00    +0.057 S 
ATOM     23  O   UNL     1      27.764 -23.902 -15.079  0.00  0.00    -0.153 OA
ATOM     24  O   UNL     1      27.873 -21.408 -14.728  0.00  0.00    -0.153 OA
BRANCH  22  25
ATOM     25  N   UNL     1      28.222 -22.362 -17.096  0.00  0.00    -0.203 NA
ATOM     26  H   UNL     1      28.435 -21.390 -17.315  0.00  0.00    +0.144 HD
ATOM     27  H   UNL     1      27.275 -22.580 -17.404  0.00  0.00    +0.144 HD
ENDBRANCH  22  25
ENDBRANCH  19  22
ENDBRANCH   6  16
TORSDOF 4
ENDMDL
MODEL 4
REMARK VINA RESULT:     -10.4      3.865      5.886
REMARK  Name = 9841854
REMARK  4 active torsions:
REMARK  status: ('A' for Active; 'I' for Inactive)
REMARK    1  A    between atoms: C_5  and  C_10
REMARK    2  A    between atoms: C_6  and  C_16
REMARK    3  A    between atoms: C_19  and  S_22
REMARK    4  A    between atoms: S_22  and  N_25
REMARK                            x       y       z     vdW  Elec       q    Type
REMARK                         _______ _______ _______ _____ _____    ______ ____
ROOT
ATOM      1  O   UNL     1      36.479 -23.433 -13.758  0.00  0.00    -0.475 OA
ATOM      2  O   UNL     1      34.244 -24.463 -11.286  0.00  0.00    -0.288 OA
ATOM      3  C   UNL     1      36.323 -23.969 -12.433  0.00  0.00    +0.188 C 
ATOM      4  C   UNL     1      34.827 -24.038 -12.273  0.00  0.00    +0.212 C 
ATOM      5  C   UNL     1      34.155 -23.535 -13.478  0.00  0.00    +0.072 C 
ATOM      6  C   UNL     1      35.197 -23.207 -14.252  0.00  0.00    +0.142 C 
ATOM      7  C   UNL     1      36.950 -25.354 -12.379  0.00  0.00    +0.052 C 
ATOM      8  C   UNL     1      36.943 -23.009 -11.427  0.00  0.00    +0.052 C 
ENDROOT
BRANCH   5  10
ATOM      9  F   UNL     1      29.837 -25.659 -14.100  0.00  0.00    -0.204 F 
ATOM     10  C   UNL     1      32.715 -23.453 -13.692  0.00  0.00    +0.008 C 
ATOM     11  C   UNL     1      31.942 -24.618 -13.796  0.00  0.00    +0.030 C 
ATOM     12  C   UNL     1      32.081 -22.206 -13.797  0.00  0.00    +0.000 C 
ATOM     13  C   UNL     1      30.565 -24.539 -14.001  0.00  0.00    +0.140 C 
ATOM     14  C   UNL     1      30.704 -22.127 -14.001  0.00  0.00    +0.002 C 
ATOM     15  C   UNL     1      29.946 -23.293 -14.103  0.00  0.00    +0.030 C 
ENDBRANCH   5  10
BRANCH   6  16
ATOM     16  C   UNL     1      35.150 -22.616 -15.595  0.00  0.00    +0.034 C 
ATOM     17  C   UNL     1      36.250 -21.910 -16.093  0.00  0.00    +0.004 C 
ATOM     18  C   UNL     1      34.005 -22.754 -16.386  0.00  0.00    +0.004 C 
ATOM     19  C   UNL     1      35.060 -21.487 -18.152  0.00  0.00    +0.122 C 
ATOM     20  C   UNL     1      36.205 -21.347 -17.368  0.00  0.00    +0.020 C 
ATOM     21  C   UNL     1      33.961 -22.192 -17.662  0.00  0.00    +0.020 C 
BRANCH  19  22
ATOM     22  S   UNL     1      35.005 -20.783 -19.749  0.00  0.00    +0.057 S 
ATOM     23  O   UNL     1      35.880 -19.619 -19.769  0.00  0.00    -0.153 OA
ATOM     24  O   UNL     1      35.190 -21.844 -20.730  0.00  0.00    -0.153 OA
BRANCH  22  25
ATOM     25  N   UNL     1      33.381 -20.253 -19.815  0.00  0.00    -0.203 NA
ATOM     26  H   UNL     1      32.832 -20.750 -19.114  0.00  0.00    +0.144 HD
ATOM     27  H   UNL     1      33.000 -20.441 -20.742  0.00  0.00    +0.144 HD
ENDBRANCH  22  25
ENDBRANCH  19  22
ENDBRANCH   6  16
TORSDOF 4
ENDMDL
MODEL 5
REMARK VINA RESULT:     -10.4      2.433      4.471
REMARK  Name = 9841854
REMARK  4 active torsions:
REMARK  status: ('A' for Active; 'I' for Inactive)
REMARK    1  A    between atoms: C_5  and  C_10
REMARK    2  A    between atoms: C_6  and  C_16
REMARK    3  A    between atoms: C_19  and  S_22
REMARK    4  A    between atoms: S_22  and  N_25
REMARK                            x       y       z     vdW  Elec       q    Type
REMARK                         _______ _______ _______ _____ _____    ______ ____
ROOT
ATOM      1  O   UNL     1      34.816 -22.430 -17.766  0.00  0.00    -0.475 OA
ATOM      2  O   UNL     1      31.438 -21.770 -18.333  0.00  0.00    -0.288 OA
ATOM      3  C   UNL     1      33.824 -21.985 -18.708  0.00  0.00    +0.188 C 
ATOM      4  C   UNL     1      32.545 -22.079 -17.918  0.00  0.00    +0.212 C 
ATOM      5  C   UNL     1      32.811 -22.582 -16.563  0.00  0.00    +0.072 C 
ATOM      6  C   UNL     1      34.138 -22.759 -16.596  0.00  0.00    +0.142 C 
ATOM      7  C   UNL     1      34.125 -20.548 -19.107  0.00  0.00    +0.052 C 
ATOM      8  C   UNL     1      33.807 -22.930 -19.902  0.00  0.00    +0.052 C 
ENDROOT
BRANCH   5  10
ATOM      9  F   UNL     1      28.445 -24.123 -15.113  0.00  0.00    -0.204 F 
ATOM     10  C   UNL     1      31.822 -22.800 -15.514  0.00  0.00    +0.008 C 
ATOM     11  C   UNL     1      30.578 -23.370 -15.816  0.00  0.00    +0.030 C 
ATOM     12  C   UNL     1      32.101 -22.442 -14.187  0.00  0.00    +0.000 C 
ATOM     13  C   UNL     1      29.631 -23.579 -14.813  0.00  0.00    +0.140 C 
ATOM     14  C   UNL     1      31.156 -22.650 -13.184  0.00  0.00    +0.002 C 
ATOM     15  C   UNL     1      29.921 -23.219 -13.496  0.00  0.00    +0.030 C 
ENDBRANCH   5  10
BRANCH   6  16
ATOM     16  C   UNL     1      34.988 -23.278 -15.517  0.00  0.00    +0.034 C 
ATOM     17  C   UNL     1      35.019 -24.649 -15.242  0.00  0.00    +0.004 C 
ATOM     18  C   UNL     1      35.773 -22.405 -14.757  0.00  0.00    +0.004 C 
ATOM     19  C   UNL     1      36.606 -24.267 -13.461  0.00  0.00    +0.122 C 
ATOM     20  C   UNL     1      35.825 -25.142 -14.217  0.00  0.00    +0.020 C 
ATOM     21  C   UNL     1      36.580 -22.899 -13.732  0.00  0.00    +0.020 C 
BRANCH  19  22
ATOM     22  S   UNL     1      37.615 -24.885 -12.178  0.00  0.00    +0.057 S 
ATOM     23  O   UNL     1      38.713 -25.632 -12.775  0.00  0.00    -0.153 OA
ATOM     24  O   UNL     1      37.900 -23.799 -11.249  0.00  0.00    -0.153 OA
BRANCH  22  25
ATOM     25  N   UNL     1      36.547 -25.984 -11.423  0.00  0.00    -0.203 NA
ATOM     26  H   UNL     1      36.000 -26.469 -12.134  0.00  0.00    +0.144 HD
ATOM     27  H   UNL     1      35.920 -25.476 -10.800  0.00  0.00    +0.144 HD
ENDBRANCH  22  25
ENDBRANCH  19  22
ENDBRANCH   6  16
TORSDOF 4
ENDMDL
MODEL 6
REMARK VINA RESULT:      -9.9      3.816      6.389
REMARK  Name = 9841854
REMARK  4 active torsions:
REMARK  status: ('A' for Active; 'I' for Inactive)
REMARK    1  A    between atoms: C_5  and  C_10
REMARK    2  A    between atoms: C_6  and  C_16
REMARK    3  A    between atoms: C_19  and  S_22
REMARK    4  A    between atoms: S_22  and  N_25
REMARK                            x       y       z     vdW  Elec       q    Type
REMARK                         _______ _______ _______ _____ _____    ______ ____
ROOT
ATOM      1  O   UNL     1      34.909 -24.334 -13.022  0.00  0.00    -0.475 OA
ATOM      2  O   UNL     1      38.068 -23.440 -14.199  0.00  0.00    -0.288 OA
ATOM      3  C   UNL     1      36.331 -24.466 -12.854  0.00  0.00    +0.188 C 
ATOM      4  C   UNL     1      36.881 -23.628 -13.978  0.00  0.00    +0.212 C 
ATOM      5  C   UNL     1      35.790 -23.050 -14.773  0.00  0.00    +0.072 C 
ATOM      6  C   UNL     1      34.711 -23.531 -14.141  0.00  0.00    +0.142 C 
ATOM      7  C   UNL     1      36.727 -23.902 -11.497  0.00  0.00    +0.052 C 
ATOM      8  C   UNL     1      36.721 -25.929 -13.012  0.00  0.00    +0.052 C 
ENDROOT
BRANCH   5  10
ATOM      9  F   UNL     1      37.923 -19.327 -17.037  0.00  0.00    -0.204 F 
ATOM     10  C   UNL     1      35.935 -22.181 -15.935  0.00  0.00    +0.008 C 
ATOM     11  C   UNL     1      36.879 -21.145 -15.936  0.00  0.00    +0.030 C 
ATOM     12  C   UNL     1      35.133 -22.370 -17.070  0.00  0.00    +0.000 C 
ATOM     13  C   UNL     1      37.019 -20.314 -17.048  0.00  0.00    +0.140 C 
ATOM     14  C   UNL     1      35.272 -21.541 -18.181  0.00  0.00    +0.002 C 
ATOM     15  C   UNL     1      36.215 -20.513 -18.171  0.00  0.00    +0.030 C 
ENDBRANCH   5  10
BRANCH   6  16
ATOM     16  C   UNL     1      33.305 -23.312 -14.501  0.00  0.00    +0.034 C 
ATOM     17  C   UNL     1      32.932 -23.191 -15.844  0.00  0.00    +0.004 C 
ATOM     18  C   UNL     1      32.328 -23.222 -13.504  0.00  0.00    +0.004 C 
ATOM     19  C   UNL     1      30.626 -22.892 -15.187  0.00  0.00    +0.122 C 
ATOM     20  C   UNL     1      31.596 -22.981 -16.185  0.00  0.00    +0.020 C 
ATOM     21  C   UNL     1      30.992 -23.013 -13.846  0.00  0.00    +0.020 C 
BRANCH  19  22
ATOM     22  S   UNL     1      28.954 -22.630 -15.616  0.00  0.00    +0.057 S 
ATOM     23  O   UNL     1      28.906 -22.057 -16.954  0.00  0.00    -0.153 OA
ATOM     24  O   UNL     1      28.205 -23.845 -15.322  0.00  0.00    -0.153 OA
BRANCH  22  25
ATOM     25  N   UNL     1      28.512 -21.428 -14.485  0.00  0.00    -0.203 NA
ATOM     26  H   UNL     1      27.552 -21.131 -14.661  0.00  0.00    +0.144 HD
ATOM     27  H   UNL     1      29.138 -20.628 -14.577  0.00  0.00    +0.144 HD
ENDBRANCH  22  25
ENDBRANCH  19  22
ENDBRANCH   6  16
TORSDOF 4
ENDMDL
MODEL 7
REMARK VINA RESULT:      -9.5      4.228      6.120
REMARK  Name = 9841854
REMARK  4 active torsions:
REMARK  status: ('A' for Active; 'I' for Inactive)
REMARK    1  A    between atoms: C_5  and  C_10
REMARK    2  A    between atoms: C_6  and  C_16
REMARK    3  A    between atoms: C_19  and  S_22
REMARK    4  A    between atoms: S_22  and  N_25
REMARK                            x       y       z     vdW  Elec       q    Type
REMARK                         _______ _______ _______ _____ _____    ______ ____
ROOT
ATOM      1  O   UNL     1      30.754 -22.433 -16.827  0.00  0.00    -0.475 OA
ATOM      2  O   UNL     1      31.588 -24.282 -13.990  0.00  0.00    -0.288 OA
ATOM      3  C   UNL     1      30.268 -23.213 -15.721  0.00  0.00    +0.188 C 
ATOM      4  C   UNL     1      31.535 -23.617 -15.014  0.00  0.00    +0.212 C 
ATOM      5  C   UNL     1      32.711 -23.089 -15.719  0.00  0.00    +0.072 C 
ATOM      6  C   UNL     1      32.142 -22.441 -16.744  0.00  0.00    +0.142 C 
ATOM      7  C   UNL     1      29.397 -22.333 -14.835  0.00  0.00    +0.052 C 
ATOM      8  C   UNL     1      29.519 -24.426 -16.253  0.00  0.00    +0.052 C 
ENDROOT
BRANCH   5  10
ATOM      9  F   UNL     1      36.544 -25.952 -14.914  0.00  0.00    -0.204 F 
ATOM     10  C   UNL     1      34.104 -23.271 -15.330  0.00  0.00    +0.008 C 
ATOM     11  C   UNL     1      34.676 -24.551 -15.307  0.00  0.00    +0.030 C 
ATOM     12  C   UNL     1      34.893 -22.168 -14.973  0.00  0.00    +0.000 C 
ATOM     13  C   UNL     1      36.009 -24.725 -14.934  0.00  0.00    +0.140 C 
ATOM     14  C   UNL     1      36.226 -22.341 -14.601  0.00  0.00    +0.002 C 
ATOM     15  C   UNL     1      36.784 -23.620 -14.581  0.00  0.00    +0.030 C 
ENDBRANCH   5  10
BRANCH   6  16
ATOM     16  C   UNL     1      32.828 -21.721 -17.824  0.00  0.00    +0.034 C 
ATOM     17  C   UNL     1      34.220 -21.789 -17.943  0.00  0.00    +0.004 C 
ATOM     18  C   UNL     1      32.095 -20.963 -18.742  0.00  0.00    +0.004 C 
ATOM     19  C   UNL     1      34.135 -20.349 -19.882  0.00  0.00    +0.122 C 
ATOM     20  C   UNL     1      34.872 -21.105 -18.969  0.00  0.00    +0.020 C 
ATOM     21  C   UNL     1      32.747 -20.280 -19.769  0.00  0.00    +0.020 C 
BRANCH  19  22
ATOM     22  S   UNL     1      34.952 -19.493 -21.166  0.00  0.00    +0.057 S 
ATOM     23  O   UNL     1      36.385 -19.712 -21.026  0.00  0.00    -0.153 OA
ATOM     24  O   UNL     1      34.291 -19.809 -22.425  0.00  0.00    -0.153 OA
BRANCH  22  25
ATOM     25  N   UNL     1      34.599 -17.873 -20.753  0.00  0.00    -0.203 NA
ATOM     26  H   UNL     1      34.279 -17.830 -19.786  0.00  0.00    +0.144 HD
ATOM     27  H   UNL     1      33.869 -17.516 -21.369  0.00  0.00    +0.144 HD
ENDBRANCH  22  25
ENDBRANCH  19  22
ENDBRANCH   6  16
TORSDOF 4
ENDMDL
MODEL 8
REMARK VINA RESULT:      -9.4      4.024      5.735
REMARK  Name = 9841854
REMARK  4 active torsions:
REMARK  status: ('A' for Active; 'I' for Inactive)
REMARK    1  A    between atoms: C_5  and  C_10
REMARK    2  A    between atoms: C_6  and  C_16
REMARK    3  A    between atoms: C_19  and  S_22
REMARK    4  A    between atoms: S_22  and  N_25
REMARK                            x       y       z     vdW  Elec       q    Type
REMARK                         _______ _______ _______ _____ _____    ______ ____
ROOT
ATOM      1  O   UNL     1      31.053 -23.133 -15.617  0.00  0.00    -0.475 OA
ATOM      2  O   UNL     1      31.897 -24.850 -12.701  0.00  0.00    -0.288 OA
ATOM      3  C   UNL     1      30.571 -23.853 -14.470  0.00  0.00    +0.188 C 
ATOM      4  C   UNL     1      31.841 -24.235 -13.756  0.00  0.00    +0.212 C 
ATOM      5  C   UNL     1      33.015 -23.754 -14.497  0.00  0.00    +0.072 C 
ATOM      6  C   UNL     1      32.443 -23.151 -15.547  0.00  0.00    +0.142 C 
ATOM      7  C   UNL     1      29.717 -22.922 -13.621  0.00  0.00    +0.052 C 
ATOM      8  C   UNL     1      29.806 -25.083 -14.935  0.00  0.00    +0.052 C 
ENDROOT
BRANCH   5  10
ATOM      9  F   UNL     1      36.897 -22.419 -11.911  0.00  0.00    -0.204 F 
ATOM     10  C   UNL     1      34.410 -23.931 -14.111  0.00  0.00    +0.008 C 
ATOM     11  C   UNL     1      35.004 -23.075 -13.174  0.00  0.00    +0.030 C 
ATOM     12  C   UNL     1      35.178 -24.962 -14.672  0.00  0.00    +0.000 C 
ATOM     13  C   UNL     1      36.339 -23.244 -12.806  0.00  0.00    +0.140 C 
ATOM     14  C   UNL     1      36.512 -25.132 -14.305  0.00  0.00    +0.002 C 
ATOM     15  C   UNL     1      37.093 -24.273 -13.371  0.00  0.00    +0.030 C 
ENDBRANCH   5  10
BRANCH   6  16
ATOM     16  C   UNL     1      33.126 -22.492 -16.667  0.00  0.00    +0.034 C 
ATOM     17  C   UNL     1      34.505 -22.265 -16.617  0.00  0.00    +0.004 C 
ATOM     18  C   UNL     1      32.402 -22.086 -17.793  0.00  0.00    +0.004 C 
ATOM     19  C   UNL     1      34.425 -21.235 -18.801  0.00  0.00    +0.122 C 
ATOM     20  C   UNL     1      35.153 -21.638 -17.681  0.00  0.00    +0.020 C 
ATOM     21  C   UNL     1      33.050 -21.461 -18.857  0.00  0.00    +0.020 C 
BRANCH  19  22
ATOM     22  S   UNL     1      35.238 -20.451 -20.133  0.00  0.00    +0.057 S 
ATOM     23  O   UNL     1      36.180 -19.482 -19.590  0.00  0.00    -0.153 OA
ATOM     24  O   UNL     1      35.705 -21.475 -21.058  0.00  0.00    -0.153 OA
BRANCH  22  25
ATOM     25  N   UNL     1      33.939 -19.610 -20.857  0.00  0.00    -0.203 NA
ATOM     26  H   UNL     1      34.290 -19.033 -21.620  0.00  0.00    +0.144 HD
ATOM     27  H   UNL     1      33.487 -19.017 -20.162  0.00  0.00    +0.144 HD
ENDBRANCH  22  25
ENDBRANCH  19  22
ENDBRANCH   6  16
TORSDOF 4
ENDMDL
MODEL 9
REMARK VINA RESULT:      -8.9      3.968      6.170
REMARK  Name = 9841854
REMARK  4 active torsions:
REMARK  status: ('A' for Active; 'I' for Inactive)
REMARK    1  A    between atoms: C_5  and  C_10
REMARK    2  A    between atoms: C_6  and  C_16
REMARK    3  A    between atoms: C_19  and  S_22
REMARK    4  A    between atoms: S_22  and  N_25
REMARK                            x       y       z     vdW  Elec       q    Type
REMARK                         _______ _______ _______ _____ _____    ______ ____
ROOT
ATOM      1  O   UNL     1      36.552 -23.237 -15.680  0.00  0.00    -0.475 OA
ATOM      2  O   UNL     1      34.267 -24.550 -13.396  0.00  0.00    -0.288 OA
ATOM      3  C   UNL     1      36.364 -24.035 -14.499  0.00  0.00    +0.188 C 
ATOM      4  C   UNL     1      34.873 -23.980 -14.291  0.00  0.00    +0.212 C 
ATOM      5  C   UNL     1      34.237 -23.154 -15.326  0.00  0.00    +0.072 C 
ATOM      6  C   UNL     1      35.294 -22.773 -16.055  0.00  0.00    +0.142 C 
ATOM      7  C   UNL     1      36.832 -25.456 -14.777  0.00  0.00    +0.052 C 
ATOM      8  C   UNL     1      37.109 -23.394 -13.337  0.00  0.00    +0.052 C 
ENDROOT
BRANCH   5  10
ATOM      9  F   UNL     1      29.911 -22.224 -13.336  0.00  0.00    -0.204 F 
ATOM     10  C   UNL     1      32.812 -22.875 -15.452  0.00  0.00    +0.008 C 
ATOM     11  C   UNL     1      32.021 -22.677 -14.311  0.00  0.00    +0.030 C 
ATOM     12  C   UNL     1      32.210 -22.800 -16.716  0.00  0.00    +0.000 C 
ATOM     13  C   UNL     1      30.657 -22.410 -14.432  0.00  0.00    +0.140 C 
ATOM     14  C   UNL     1      30.847 -22.533 -16.838  0.00  0.00    +0.002 C 
ATOM     15  C   UNL     1      30.071 -22.338 -15.696  0.00  0.00    +0.030 C 
ENDBRANCH   5  10
BRANCH   6  16
ATOM     16  C   UNL     1      35.287 -21.897 -17.232  0.00  0.00    +0.034 C 
ATOM     17  C   UNL     1      36.338 -21.001 -17.450  0.00  0.00    +0.004 C 
ATOM     18  C   UNL     1      34.228 -21.951 -18.145  0.00  0.00    +0.004 C 
ATOM     19  C   UNL     1      35.272 -20.225 -19.475  0.00  0.00    +0.122 C 
ATOM     20  C   UNL     1      36.330 -20.167 -18.568  0.00  0.00    +0.020 C 
ATOM     21  C   UNL     1      34.221 -21.118 -19.263  0.00  0.00    +0.020 C 
BRANCH  19  22
ATOM     22  S   UNL     1      35.263 -19.181 -20.874  0.00  0.00    +0.057 S 
ATOM     23  O   UNL     1      35.179 -20.012 -22.067  0.00  0.00    -0.153 OA
ATOM     24  O   UNL     1      34.282 -18.125 -20.657  0.00  0.00    -0.153 OA
BRANCH  22  25
ATOM     25  N   UNL     1      36.828 -18.502 -20.784  0.00  0.00    -0.203 NA
ATOM     26  H   UNL     1      37.184 -18.592 -19.833  0.00  0.00    +0.144 HD
ATOM     27  H   UNL     1      36.787 -17.516 -21.039  0.00  0.00    +0.144 HD
ENDBRANCH  22  25
ENDBRANCH  19  22
ENDBRANCH   6  16
TORSDOF 4
ENDMDL
