MODEL 1
REMARK VINA RESULT:     -11.4      0.000      0.000
REMARK  Name = 26248
REMARK  6 active torsions:
REMARK  status: ('A' for Active; 'I' for Inactive)
REMARK    1  A    between atoms: C_9  and  O_21
REMARK    2  A    between atoms: C_11  and  O_25
REMARK    3  A    between atoms: C_12  and  C_18
REMARK    4  A    between atoms: C_18  and  O_19
REMARK    5  A    between atoms: O_21  and  C_23
REMARK    6  A    between atoms: O_25  and  C_27
REMARK                            x       y       z     vdW  Elec       q    Type
REMARK                         _______ _______ _______ _____ _____    ______ ____
ROOT
ATOM      1  O   UNL     1      36.295 -22.890 -16.023  0.00  0.00    -0.286 OA
ATOM      2  O   UNL     1      32.771 -24.073 -12.184  0.00  0.00    -0.287 OA
ATOM      3  C   UNL     1      34.037 -23.055 -15.399  0.00  0.00    +0.077 C 
ATOM      4  C   UNL     1      33.116 -23.364 -14.396  0.00  0.00    +0.045 C 
ATOM      5  C   UNL     1      35.950 -23.597 -13.809  0.00  0.00    +0.077 C 
ATOM      6  C   UNL     1      35.030 -23.905 -12.806  0.00  0.00    +0.045 C 
ATOM      7  C   UNL     1      35.488 -23.160 -15.143  0.00  0.00    +0.202 C 
ATOM      8  C   UNL     1      33.579 -23.802 -13.064  0.00  0.00    +0.196 C 
ATOM      9  C   UNL     1      33.586 -22.642 -16.659  0.00  0.00    +0.152 C 
ATOM     10  C   UNL     1      31.743 -23.260 -14.652  0.00  0.00    +0.010 C 
ATOM     11  C   UNL     1      37.323 -23.699 -13.553  0.00  0.00    +0.152 C 
ATOM     12  C   UNL     1      31.298 -22.847 -15.909  0.00  0.00    +0.079 C 
ATOM     13  C   UNL     1      35.481 -24.316 -11.546  0.00  0.00    +0.003 C 
ATOM     14  C   UNL     1      32.217 -22.539 -16.910  0.00  0.00    +0.044 C 
ATOM     15  C   UNL     1      37.769 -24.109 -12.296  0.00  0.00    +0.038 C 
ATOM     16  C   UNL     1      36.850 -24.417 -11.295  0.00  0.00    +0.003 C 
ENDROOT
BRANCH  12  18
ATOM     17  O   UNL     1      29.342 -21.906 -16.915  0.00  0.00    -0.245 OA
ATOM     18  C   UNL     1      29.872 -22.739 -16.173  0.00  0.00    +0.338 C 
BRANCH  18  19
ATOM     19  O   UNL     1      29.147 -23.675 -15.503  0.00  0.00    -0.477 OA
ATOM     20  H   UNL     1      28.467 -23.409 -14.915  0.00  0.00    +0.295 HD
ENDBRANCH  18  19
ENDBRANCH  12  18
BRANCH   9  21
ATOM     21  O   UNL     1      34.428 -22.326 -17.683  0.00  0.00    -0.424 OA
BRANCH  21  23
ATOM     22  O   UNL     1      33.455 -23.355 -19.546  0.00  0.00    -0.250 OA
ATOM     23  C   UNL     1      33.824 -22.353 -18.950  0.00  0.00    +0.322 C 
ATOM     24  C   UNL     1      33.692 -20.957 -19.483  0.00  0.00    +0.122 C 
ENDBRANCH  21  23
ENDBRANCH   9  21
BRANCH  11  25
ATOM     25  O   UNL     1      38.277 -23.412 -14.485  0.00  0.00    -0.424 OA
BRANCH  25  27
ATOM     26  O   UNL     1      40.534 -23.993 -14.261  0.00  0.00    -0.250 OA
ATOM     27  C   UNL     1      39.367 -24.295 -14.475  0.00  0.00    +0.322 C 
ATOM     28  C   UNL     1      38.899 -25.689 -14.773  0.00  0.00    +0.122 C 
ENDBRANCH  25  27
ENDBRANCH  11  25
TORSDOF 6
ENDMDL
MODEL 2
REMARK VINA RESULT:     -11.2      1.761      6.732
REMARK  Name = 26248
REMARK  6 active torsions:
REMARK  status: ('A' for Active; 'I' for Inactive)
REMARK    1  A    between atoms: C_9  and  O_21
REMARK    2  A    between atoms: C_11  and  O_25
REMARK    3  A    between atoms: C_12  and  C_18
REMARK    4  A    between atoms: C_18  and  O_19
REMARK    5  A    between atoms: O_21  and  C_23
REMARK    6  A    between atoms: O_25  and  C_27
REMARK                            x       y       z     vdW  Elec       q    Type
REMARK                         _______ _______ _______ _____ _____    ______ ____
ROOT
ATOM      1  O   UNL     1      31.302 -22.184 -17.275  0.00  0.00    -0.286 OA
ATOM      2  O   UNL     1      32.971 -24.573 -12.795  0.00  0.00    -0.287 OA
ATOM      3  C   UNL     1      33.123 -22.775 -15.914  0.00  0.00    +0.077 C 
ATOM      4  C   UNL     1      33.559 -23.399 -14.743  0.00  0.00    +0.045 C 
ATOM      5  C   UNL     1      30.714 -23.361 -15.328  0.00  0.00    +0.077 C 
ATOM      6  C   UNL     1      31.151 -23.985 -14.158  0.00  0.00    +0.045 C 
ATOM      7  C   UNL     1      31.685 -22.733 -16.249  0.00  0.00    +0.202 C 
ATOM      8  C   UNL     1      32.589 -24.025 -13.822  0.00  0.00    +0.196 C 
ATOM      9  C   UNL     1      34.051 -22.184 -16.778  0.00  0.00    +0.152 C 
ATOM     10  C   UNL     1      34.924 -23.433 -14.437  0.00  0.00    +0.010 C 
ATOM     11  C   UNL     1      29.349 -23.328 -15.636  0.00  0.00    +0.152 C 
ATOM     12  C   UNL     1      35.847 -22.843 -15.302  0.00  0.00    +0.079 C 
ATOM     13  C   UNL     1      30.222 -24.577 -13.295  0.00  0.00    +0.003 C 
ATOM     14  C   UNL     1      35.412 -22.220 -16.469  0.00  0.00    +0.044 C 
ATOM     15  C   UNL     1      28.426 -23.921 -14.773  0.00  0.00    +0.038 C 
ATOM     16  C   UNL     1      28.861 -24.543 -13.605  0.00  0.00    +0.003 C 
ENDROOT
BRANCH  12  18
ATOM     17  O   UNL     1      37.748 -23.221 -13.899  0.00  0.00    -0.245 OA
ATOM     18  C   UNL     1      37.266 -22.879 -14.983  0.00  0.00    +0.338 C 
BRANCH  18  19
ATOM     19  O   UNL     1      38.043 -22.486 -16.028  0.00  0.00    -0.477 OA
ATOM     20  H   UNL     1      37.682 -22.442 -16.892  0.00  0.00    +0.295 HD
ENDBRANCH  18  19
ENDBRANCH  12  18
BRANCH   9  21
ATOM     21  O   UNL     1      33.696 -21.558 -17.936  0.00  0.00    -0.424 OA
BRANCH  21  23
ATOM     22  O   UNL     1      33.749 -23.312 -19.485  0.00  0.00    -0.250 OA
ATOM     23  C   UNL     1      34.130 -22.216 -19.098  0.00  0.00    +0.322 C 
ATOM     24  C   UNL     1      35.148 -21.377 -19.810  0.00  0.00    +0.122 C 
ENDBRANCH  21  23
ENDBRANCH   9  21
BRANCH  11  25
ATOM     25  O   UNL     1      28.854 -22.738 -16.761  0.00  0.00    -0.424 OA
BRANCH  25  27
ATOM     26  O   UNL     1      27.003 -24.049 -17.344  0.00  0.00    -0.250 OA
ATOM     27  C   UNL     1      27.490 -22.986 -16.982  0.00  0.00    +0.322 C 
ATOM     28  C   UNL     1      26.694 -21.743 -16.712  0.00  0.00    +0.122 C 
ENDBRANCH  25  27
ENDBRANCH  11  25
TORSDOF 6
ENDMDL
MODEL 3
REMARK VINA RESULT:     -10.9      1.661      6.066
REMARK  Name = 26248
REMARK  6 active torsions:
REMARK  status: ('A' for Active; 'I' for Inactive)
REMARK    1  A    between atoms: C_9  and  O_21
REMARK    2  A    between atoms: C_11  and  O_25
REMARK    3  A    between atoms: C_12  and  C_18
REMARK    4  A    between atoms: C_18  and  O_19
REMARK    5  A    between atoms: O_21  and  C_23
REMARK    6  A    between atoms: O_25  and  C_27
REMARK                            x       y       z     vdW  Elec       q    Type
REMARK                         _______ _______ _______ _____ _____    ______ ____
ROOT
ATOM      1  O   UNL     1      36.466 -22.809 -16.254  0.00  0.00    -0.286 OA
ATOM      2  O   UNL     1      31.856 -23.005 -13.557  0.00  0.00    -0.287 OA
ATOM      3  C   UNL     1      35.397 -23.188 -14.197  0.00  0.00    +0.077 C 
ATOM      4  C   UNL     1      34.193 -23.239 -13.493  0.00  0.00    +0.045 C 
ATOM      5  C   UNL     1      34.129 -22.577 -16.319  0.00  0.00    +0.077 C 
ATOM      6  C   UNL     1      32.924 -22.629 -15.615  0.00  0.00    +0.045 C 
ATOM      7  C   UNL     1      35.409 -22.855 -15.637  0.00  0.00    +0.202 C 
ATOM      8  C   UNL     1      32.913 -22.960 -14.175  0.00  0.00    +0.196 C 
ATOM      9  C   UNL     1      36.603 -23.453 -13.539  0.00  0.00    +0.152 C 
ATOM     10  C   UNL     1      34.194 -23.557 -12.129  0.00  0.00    +0.010 C 
ATOM     11  C   UNL     1      34.127 -22.262 -17.684  0.00  0.00    +0.152 C 
ATOM     12  C   UNL     1      35.400 -23.821 -11.477  0.00  0.00    +0.079 C 
ATOM     13  C   UNL     1      31.718 -22.365 -16.273  0.00  0.00    +0.003 C 
ATOM     14  C   UNL     1      36.601 -23.770 -12.180  0.00  0.00    +0.044 C 
ATOM     15  C   UNL     1      32.922 -22.000 -18.337  0.00  0.00    +0.038 C 
ATOM     16  C   UNL     1      31.720 -22.051 -17.634  0.00  0.00    +0.003 C 
ENDROOT
BRANCH  12  18
ATOM     17  O   UNL     1      34.759 -25.068  -9.538  0.00  0.00    -0.245 OA
ATOM     18  C   UNL     1      35.401 -24.151 -10.060  0.00  0.00    +0.338 C 
BRANCH  18  19
ATOM     19  O   UNL     1      36.204 -23.326  -9.335  0.00  0.00    -0.477 OA
ATOM     20  H   UNL     1      37.133 -23.350  -9.456  0.00  0.00    +0.295 HD
ENDBRANCH  18  19
ENDBRANCH  12  18
BRANCH   9  21
ATOM     21  O   UNL     1      37.814 -23.421 -14.165  0.00  0.00    -0.424 OA
BRANCH  21  23
ATOM     22  O   UNL     1      37.808 -25.667 -14.824  0.00  0.00    -0.250 OA
ATOM     23  C   UNL     1      38.385 -24.687 -14.373  0.00  0.00    +0.322 C 
ATOM     24  C   UNL     1      39.825 -24.674 -13.954  0.00  0.00    +0.122 C 
ENDBRANCH  21  23
ENDBRANCH   9  21
BRANCH  11  25
ATOM     25  O   UNL     1      35.265 -22.196 -18.433  0.00  0.00    -0.424 OA
BRANCH  25  27
ATOM     26  O   UNL     1      36.389 -20.176 -18.063  0.00  0.00    -0.250 OA
ATOM     27  C   UNL     1      35.665 -20.889 -18.747  0.00  0.00    +0.322 C 
ATOM     28  C   UNL     1      35.072 -20.472 -20.060  0.00  0.00    +0.122 C 
ENDBRANCH  25  27
ENDBRANCH  11  25
TORSDOF 6
ENDMDL
MODEL 4
REMARK VINA RESULT:     -10.9      2.079      6.525
REMARK  Name = 26248
REMARK  6 active torsions:
REMARK  status: ('A' for Active; 'I' for Inactive)
REMARK    1  A    between atoms: C_9  and  O_21
REMARK    2  A    between atoms: C_11  and  O_25
REMARK    3  A    between atoms: C_12  and  C_18
REMARK    4  A    between atoms: C_18  and  O_19
REMARK    5  A    between atoms: O_21  and  C_23
REMARK    6  A    between atoms: O_25  and  C_27
REMARK                            x       y       z     vdW  Elec       q    Type
REMARK                         _______ _______ _______ _____ _____    ______ ____
ROOT
ATOM      1  O   UNL     1      32.551 -23.341 -16.396  0.00  0.00    -0.286 OA
ATOM      2  O   UNL     1      37.432 -21.804 -14.859  0.00  0.00    -0.287 OA
ATOM      3  C   UNL     1      34.152 -23.281 -14.679  0.00  0.00    +0.077 C 
ATOM      4  C   UNL     1      35.428 -22.880 -14.278  0.00  0.00    +0.045 C 
ATOM      5  C   UNL     1      34.555 -22.262 -16.978  0.00  0.00    +0.077 C 
ATOM      6  C   UNL     1      35.830 -21.860 -16.576  0.00  0.00    +0.045 C 
ATOM      7  C   UNL     1      33.669 -22.987 -16.044  0.00  0.00    +0.202 C 
ATOM      8  C   UNL     1      36.313 -22.156 -15.212  0.00  0.00    +0.196 C 
ATOM      9  C   UNL     1      33.322 -23.968 -13.786  0.00  0.00    +0.152 C 
ATOM     10  C   UNL     1      35.873 -23.164 -12.981  0.00  0.00    +0.010 C 
ATOM     11  C   UNL     1      34.108 -21.976 -18.274  0.00  0.00    +0.152 C 
ATOM     12  C   UNL     1      35.042 -23.849 -12.093  0.00  0.00    +0.079 C 
ATOM     13  C   UNL     1      36.660 -21.172 -17.469  0.00  0.00    +0.003 C 
ATOM     14  C   UNL     1      33.770 -24.249 -12.494  0.00  0.00    +0.044 C 
ATOM     15  C   UNL     1      34.938 -21.289 -19.161  0.00  0.00    +0.038 C 
ATOM     16  C   UNL     1      36.210 -20.889 -18.760  0.00  0.00    +0.003 C 
ENDROOT
BRANCH  12  18
ATOM     17  O   UNL     1      34.823 -24.641  -9.846  0.00  0.00    -0.245 OA
ATOM     18  C   UNL     1      35.506 -24.143 -10.747  0.00  0.00    +0.338 C 
BRANCH  18  19
ATOM     19  O   UNL     1      36.812 -23.807 -10.562  0.00  0.00    -0.477 OA
ATOM     20  H   UNL     1      37.070 -23.334  -9.795  0.00  0.00    +0.295 HD
ENDBRANCH  18  19
ENDBRANCH  12  18
BRANCH   9  21
ATOM     21  O   UNL     1      32.066 -24.389 -14.111  0.00  0.00    -0.424 OA
BRANCH  21  23
ATOM     22  O   UNL     1      30.416 -24.434 -12.452  0.00  0.00    -0.250 OA
ATOM     23  C   UNL     1      31.054 -23.839 -13.309  0.00  0.00    +0.322 C 
ATOM     24  C   UNL     1      30.854 -22.394 -13.659  0.00  0.00    +0.122 C 
ENDBRANCH  21  23
ENDBRANCH   9  21
BRANCH  11  25
ATOM     25  O   UNL     1      32.875 -22.337 -18.731  0.00  0.00    -0.424 OA
BRANCH  25  27
ATOM     26  O   UNL     1      31.048 -21.096 -17.954  0.00  0.00    -0.250 OA
ATOM     27  C   UNL     1      31.948 -21.283 -18.762  0.00  0.00    +0.322 C 
ATOM     28  C   UNL     1      32.215 -20.402 -19.946  0.00  0.00    +0.122 C 
ENDBRANCH  25  27
ENDBRANCH  11  25
TORSDOF 6
ENDMDL
MODEL 5
REMARK VINA RESULT:     -10.9      1.685      6.302
REMARK  Name = 26248
REMARK  6 active torsions:
REMARK  status: ('A' for Active; 'I' for Inactive)
REMARK    1  A    between atoms: C_9  and  O_21
REMARK    2  A    between atoms: C_11  and  O_25
REMARK    3  A    between atoms: C_12  and  C_18
REMARK    4  A    between atoms: C_18  and  O_19
REMARK    5  A    between atoms: O_21  and  C_23
REMARK    6  A    between atoms: O_25  and  C_27
REMARK                            x       y       z     vdW  Elec       q    Type
REMARK                         _______ _______ _______ _____ _____    ______ ____
ROOT
ATOM      1  O   UNL     1      34.264 -23.222 -16.701  0.00  0.00    -0.286 OA
ATOM      2  O   UNL     1      31.187 -22.961 -12.339  0.00  0.00    -0.287 OA
ATOM      3  C   UNL     1      34.123 -23.457 -14.368  0.00  0.00    +0.077 C 
ATOM      4  C   UNL     1      33.319 -23.389 -13.229  0.00  0.00    +0.045 C 
ATOM      5  C   UNL     1      32.132 -22.796 -15.812  0.00  0.00    +0.077 C 
ATOM      6  C   UNL     1      31.328 -22.729 -14.672  0.00  0.00    +0.045 C 
ATOM      7  C   UNL     1      33.559 -23.163 -15.702  0.00  0.00    +0.202 C 
ATOM      8  C   UNL     1      31.893 -23.021 -13.339  0.00  0.00    +0.196 C 
ATOM      9  C   UNL     1      35.473 -23.806 -14.251  0.00  0.00    +0.152 C 
ATOM     10  C   UNL     1      33.865 -23.670 -11.971  0.00  0.00    +0.010 C 
ATOM     11  C   UNL     1      31.585 -22.516 -17.070  0.00  0.00    +0.152 C 
ATOM     12  C   UNL     1      35.212 -24.018 -11.858  0.00  0.00    +0.079 C 
ATOM     13  C   UNL     1      29.977 -22.381 -14.790  0.00  0.00    +0.003 C 
ATOM     14  C   UNL     1      36.014 -24.086 -12.995  0.00  0.00    +0.044 C 
ATOM     15  C   UNL     1      30.238 -22.171 -17.183  0.00  0.00    +0.038 C 
ATOM     16  C   UNL     1      29.436 -22.103 -16.046  0.00  0.00    +0.003 C 
ENDROOT
BRANCH  12  18
ATOM     17  O   UNL     1      35.132 -24.566  -9.530  0.00  0.00    -0.245 OA
ATOM     18  C   UNL     1      35.779 -24.311 -10.551  0.00  0.00    +0.338 C 
BRANCH  18  19
ATOM     19  O   UNL     1      37.139 -24.278 -10.555  0.00  0.00    -0.477 OA
ATOM     20  H   UNL     1      37.603 -23.965  -9.803  0.00  0.00    +0.295 HD
ENDBRANCH  18  19
ENDBRANCH  12  18
BRANCH   9  21
ATOM     21  O   UNL     1      36.315 -23.891 -15.320  0.00  0.00    -0.424 OA
BRANCH  21  23
ATOM     22  O   UNL     1      38.530 -23.309 -14.840  0.00  0.00    -0.250 OA
ATOM     23  C   UNL     1      37.415 -23.022 -15.253  0.00  0.00    +0.322 C 
ATOM     24  C   UNL     1      37.027 -21.666 -15.763  0.00  0.00    +0.122 C 
ENDBRANCH  21  23
ENDBRANCH   9  21
BRANCH  11  25
ATOM     25  O   UNL     1      32.311 -22.565 -18.224  0.00  0.00    -0.424 OA
BRANCH  25  27
ATOM     26  O   UNL     1      31.632 -20.476 -19.035  0.00  0.00    -0.250 OA
ATOM     27  C   UNL     1      32.501 -21.315 -18.831  0.00  0.00    +0.322 C 
ATOM     28  C   UNL     1      33.943 -21.143 -19.207  0.00  0.00    +0.122 C 
ENDBRANCH  25  27
ENDBRANCH  11  25
TORSDOF 6
ENDMDL
MODEL 6
REMARK VINA RESULT:     -10.7      1.466      2.080
REMARK  Name = 26248
REMARK  6 active torsions:
REMARK  status: ('A' for Active; 'I' for Inactive)
REMARK    1  A    between atoms: C_9  and  O_21
REMARK    2  A    between atoms: C_11  and  O_25
REMARK    3  A    between atoms: C_12  and  C_18
REMARK    4  A    between atoms: C_18  and  O_19
REMARK    5  A    between atoms: O_21  and  C_23
REMARK    6  A    between atoms: O_25  and  C_27
REMARK                            x       y       z     vdW  Elec       q    Type
REMARK                         _______ _______ _______ _____ _____    ______ ____
ROOT
ATOM      1  O   UNL     1      34.443 -23.260 -16.723  0.00  0.00    -0.286 OA
ATOM      2  O   UNL     1      31.503 -23.182 -12.261  0.00  0.00    -0.287 OA
ATOM      3  C   UNL     1      32.330 -22.915 -15.758  0.00  0.00    +0.077 C 
ATOM      4  C   UNL     1      31.562 -22.895 -14.592  0.00  0.00    +0.045 C 
ATOM      5  C   UNL     1      34.385 -23.545 -14.392  0.00  0.00    +0.077 C 
ATOM      6  C   UNL     1      33.617 -23.524 -13.226  0.00  0.00    +0.045 C 
ATOM      7  C   UNL     1      33.769 -23.241 -15.700  0.00  0.00    +0.202 C 
ATOM      8  C   UNL     1      32.177 -23.200 -13.284  0.00  0.00    +0.196 C 
ATOM      9  C   UNL     1      31.735 -22.625 -16.991  0.00  0.00    +0.152 C 
ATOM     10  C   UNL     1      30.198 -22.584 -14.659  0.00  0.00    +0.010 C 
ATOM     11  C   UNL     1      35.749 -23.854 -14.325  0.00  0.00    +0.152 C 
ATOM     12  C   UNL     1      29.609 -22.295 -15.891  0.00  0.00    +0.079 C 
ATOM     13  C   UNL     1      34.212 -23.813 -11.993  0.00  0.00    +0.003 C 
ATOM     14  C   UNL     1      30.376 -22.315 -17.054  0.00  0.00    +0.044 C 
ATOM     15  C   UNL     1      36.338 -24.140 -13.093  0.00  0.00    +0.038 C 
ATOM     16  C   UNL     1      35.572 -24.120 -11.930  0.00  0.00    +0.003 C 
ENDROOT
BRANCH  12  18
ATOM     17  O   UNL     1      27.510 -21.541 -15.025  0.00  0.00    -0.245 OA
ATOM     18  C   UNL     1      28.193 -21.971 -15.960  0.00  0.00    +0.338 C 
BRANCH  18  19
ATOM     19  O   UNL     1      27.669 -22.194 -17.196  0.00  0.00    -0.477 OA
ATOM     20  H   UNL     1      27.527 -23.071 -17.495  0.00  0.00    +0.295 HD
ENDBRANCH  18  19
ENDBRANCH  12  18
BRANCH   9  21
ATOM     21  O   UNL     1      32.425 -22.627 -18.168  0.00  0.00    -0.424 OA
BRANCH  21  23
ATOM     22  O   UNL     1      31.624 -20.566 -18.936  0.00  0.00    -0.250 OA
ATOM     23  C   UNL     1      32.537 -21.362 -18.766  0.00  0.00    +0.322 C 
ATOM     24  C   UNL     1      33.958 -21.116 -19.178  0.00  0.00    +0.122 C 
ENDBRANCH  21  23
ENDBRANCH   9  21
BRANCH  11  25
ATOM     25  O   UNL     1      36.558 -23.891 -15.422  0.00  0.00    -0.424 OA
BRANCH  25  27
ATOM     26  O   UNL     1      38.782 -23.256 -15.056  0.00  0.00    -0.250 OA
ATOM     27  C   UNL     1      37.630 -22.986 -15.370  0.00  0.00    +0.322 C 
ATOM     28  C   UNL     1      37.161 -21.615 -15.757  0.00  0.00    +0.122 C 
ENDBRANCH  25  27
ENDBRANCH  11  25
TORSDOF 6
ENDMDL
MODEL 7
REMARK VINA RESULT:     -10.4      2.254      4.779
REMARK  Name = 26248
REMARK  6 active torsions:
REMARK  status: ('A' for Active; 'I' for Inactive)
REMARK    1  A    between atoms: C_9  and  O_21
REMARK    2  A    between atoms: C_11  and  O_25
REMARK    3  A    between atoms: C_12  and  C_18
REMARK    4  A    between atoms: C_18  and  O_19
REMARK    5  A    between atoms: O_21  and  C_23
REMARK    6  A    between atoms: O_25  and  C_27
REMARK                            x       y       z     vdW  Elec       q    Type
REMARK                         _______ _______ _______ _____ _____    ______ ____
ROOT
ATOM      1  O   UNL     1      35.111 -23.273 -15.670  0.00  0.00    -0.286 OA
ATOM      2  O   UNL     1      30.076 -22.081 -17.008  0.00  0.00    -0.287 OA
ATOM      3  C   UNL     1      33.671 -22.227 -17.202  0.00  0.00    +0.077 C 
ATOM      4  C   UNL     1      32.355 -21.915 -17.552  0.00  0.00    +0.045 C 
ATOM      5  C   UNL     1      32.831 -23.437 -15.125  0.00  0.00    +0.077 C 
ATOM      6  C   UNL     1      31.516 -23.125 -15.474  0.00  0.00    +0.045 C 
ATOM      7  C   UNL     1      33.957 -22.999 -15.976  0.00  0.00    +0.202 C 
ATOM      8  C   UNL     1      31.230 -22.354 -16.702  0.00  0.00    +0.196 C 
ATOM      9  C   UNL     1      34.729 -21.806 -18.017  0.00  0.00    +0.152 C 
ATOM     10  C   UNL     1      32.097 -21.182 -18.716  0.00  0.00    +0.010 C 
ATOM     11  C   UNL     1      33.090 -24.169 -13.960  0.00  0.00    +0.152 C 
ATOM     12  C   UNL     1      33.155 -20.764 -19.525  0.00  0.00    +0.079 C 
ATOM     13  C   UNL     1      30.459 -23.545 -14.659  0.00  0.00    +0.003 C 
ATOM     14  C   UNL     1      34.467 -21.075 -19.176  0.00  0.00    +0.044 C 
ATOM     15  C   UNL     1      32.033 -24.585 -13.149  0.00  0.00    +0.038 C 
ATOM     16  C   UNL     1      30.721 -24.274 -13.498  0.00  0.00    +0.003 C 
ENDROOT
BRANCH  12  18
ATOM     17  O   UNL     1      33.738 -19.447 -21.436  0.00  0.00    -0.245 OA
ATOM     18  C   UNL     1      32.886 -20.001 -20.734  0.00  0.00    +0.338 C 
BRANCH  18  19
ATOM     19  O   UNL     1      31.559 -19.952 -21.032  0.00  0.00    -0.477 OA
ATOM     20  H   UNL     1      31.012 -19.304 -20.633  0.00  0.00    +0.295 HD
ENDBRANCH  18  19
ENDBRANCH  12  18
BRANCH   9  21
ATOM     21  O   UNL     1      36.035 -22.075 -17.736  0.00  0.00    -0.424 OA
BRANCH  21  23
ATOM     22  O   UNL     1      36.816 -19.872 -17.608  0.00  0.00    -0.250 OA
ATOM     23  C   UNL     1      36.726 -21.003 -17.150  0.00  0.00    +0.322 C 
ATOM     24  C   UNL     1      37.354 -21.443 -15.861  0.00  0.00    +0.122 C 
ENDBRANCH  21  23
ENDBRANCH   9  21
BRANCH  11  25
ATOM     25  O   UNL     1      34.349 -24.507 -13.557  0.00  0.00    -0.424 OA
BRANCH  25  27
ATOM     26  O   UNL     1      34.304 -24.430 -11.217  0.00  0.00    -0.250 OA
ATOM     27  C   UNL     1      34.698 -24.003 -12.295  0.00  0.00    +0.322 C 
ATOM     28  C   UNL     1      35.638 -22.844 -12.449  0.00  0.00    +0.122 C 
ENDBRANCH  25  27
ENDBRANCH  11  25
TORSDOF 6
ENDMDL
MODEL 8
REMARK VINA RESULT:     -10.0      2.070      6.476
REMARK  Name = 26248
REMARK  6 active torsions:
REMARK  status: ('A' for Active; 'I' for Inactive)
REMARK    1  A    between atoms: C_9  and  O_21
REMARK    2  A    between atoms: C_11  and  O_25
REMARK    3  A    between atoms: C_12  and  C_18
REMARK    4  A    between atoms: C_18  and  O_19
REMARK    5  A    between atoms: O_21  and  C_23
REMARK    6  A    between atoms: O_25  and  C_27
REMARK                            x       y       z     vdW  Elec       q    Type
REMARK                         _______ _______ _______ _____ _____    ______ ____
ROOT
ATOM      1  O   UNL     1      36.230 -21.504 -18.105  0.00  0.00    -0.286 OA
ATOM      2  O   UNL     1      30.945 -21.972 -17.468  0.00  0.00    -0.287 OA
ATOM      3  C   UNL     1      34.465 -22.315 -16.784  0.00  0.00    +0.077 C 
ATOM      4  C   UNL     1      33.085 -22.437 -16.617  0.00  0.00    +0.045 C 
ATOM      5  C   UNL     1      34.090 -21.041 -18.957  0.00  0.00    +0.077 C 
ATOM      6  C   UNL     1      32.710 -21.164 -18.791  0.00  0.00    +0.045 C 
ATOM      7  C   UNL     1      35.019 -21.612 -17.959  0.00  0.00    +0.202 C 
ATOM      8  C   UNL     1      32.157 -21.865 -17.614  0.00  0.00    +0.196 C 
ATOM      9  C   UNL     1      35.335 -22.860 -15.832  0.00  0.00    +0.152 C 
ATOM     10  C   UNL     1      32.572 -23.105 -15.499  0.00  0.00    +0.010 C 
ATOM     11  C   UNL     1      34.603 -20.374 -20.076  0.00  0.00    +0.152 C 
ATOM     12  C   UNL     1      33.443 -23.648 -14.552  0.00  0.00    +0.079 C 
ATOM     13  C   UNL     1      31.841 -20.620 -19.743  0.00  0.00    +0.003 C 
ATOM     14  C   UNL     1      34.821 -23.526 -14.718  0.00  0.00    +0.044 C 
ATOM     15  C   UNL     1      33.733 -19.834 -21.024  0.00  0.00    +0.038 C 
ATOM     16  C   UNL     1      32.356 -19.956 -20.858  0.00  0.00    +0.003 C 
ENDROOT
BRANCH  12  18
ATOM     17  O   UNL     1      33.321 -24.222 -12.233  0.00  0.00    -0.245 OA
ATOM     18  C   UNL     1      32.910 -24.343 -13.391  0.00  0.00    +0.338 C 
BRANCH  18  19
ATOM     19  O   UNL     1      31.876 -25.169 -13.709  0.00  0.00    -0.477 OA
ATOM     20  H   UNL     1      31.179 -25.305 -13.098  0.00  0.00    +0.295 HD
ENDBRANCH  18  19
ENDBRANCH  12  18
BRANCH   9  21
ATOM     21  O   UNL     1      36.692 -22.777 -15.931  0.00  0.00    -0.424 OA
BRANCH  21  23
ATOM     22  O   UNL     1      37.241 -22.293 -13.708  0.00  0.00    -0.250 OA
ATOM     23  C   UNL     1      37.367 -22.975 -14.716  0.00  0.00    +0.322 C 
ATOM     24  C   UNL     1      38.284 -24.157 -14.826  0.00  0.00    +0.122 C 
ENDBRANCH  21  23
ENDBRANCH   9  21
BRANCH  11  25
ATOM     25  O   UNL     1      35.939 -20.220 -20.302  0.00  0.00    -0.424 OA
BRANCH  25  27
ATOM     26  O   UNL     1      36.587 -17.991 -19.997  0.00  0.00    -0.250 OA
ATOM     27  C   UNL     1      36.300 -18.932 -20.725  0.00  0.00    +0.322 C 
ATOM     28  C   UNL     1      36.284 -18.862 -22.224  0.00  0.00    +0.122 C 
ENDBRANCH  25  27
ENDBRANCH  11  25
TORSDOF 6
ENDMDL
MODEL 9
REMARK VINA RESULT:      -9.9      2.844      5.578
REMARK  Name = 26248
REMARK  6 active torsions:
REMARK  status: ('A' for Active; 'I' for Inactive)
REMARK    1  A    between atoms: C_9  and  O_21
REMARK    2  A    between atoms: C_11  and  O_25
REMARK    3  A    between atoms: C_12  and  C_18
REMARK    4  A    between atoms: C_18  and  O_19
REMARK    5  A    between atoms: O_21  and  C_23
REMARK    6  A    between atoms: O_25  and  C_27
REMARK                            x       y       z     vdW  Elec       q    Type
REMARK                         _______ _______ _______ _____ _____    ______ ____
ROOT
ATOM      1  O   UNL     1      31.778 -22.020 -18.246  0.00  0.00    -0.286 OA
ATOM      2  O   UNL     1      34.845 -22.683 -13.920  0.00  0.00    -0.287 OA
ATOM      3  C   UNL     1      31.877 -22.540 -15.958  0.00  0.00    +0.077 C 
ATOM      4  C   UNL     1      32.679 -22.714 -14.828  0.00  0.00    +0.045 C 
ATOM      5  C   UNL     1      33.945 -21.987 -17.338  0.00  0.00    +0.077 C 
ATOM      6  C   UNL     1      34.746 -22.160 -16.208  0.00  0.00    +0.045 C 
ATOM      7  C   UNL     1      32.481 -22.171 -17.254  0.00  0.00    +0.202 C 
ATOM      8  C   UNL     1      34.142 -22.531 -14.912  0.00  0.00    +0.196 C 
ATOM      9  C   UNL     1      30.492 -22.717 -15.866  0.00  0.00    +0.152 C 
ATOM     10  C   UNL     1      32.094 -23.063 -13.604  0.00  0.00    +0.010 C 
ATOM     11  C   UNL     1      34.528 -21.636 -18.561  0.00  0.00    +0.152 C 
ATOM     12  C   UNL     1      30.712 -23.238 -13.517  0.00  0.00    +0.079 C 
ATOM     13  C   UNL     1      36.131 -21.982 -16.299  0.00  0.00    +0.003 C 
ATOM     14  C   UNL     1      29.913 -23.065 -14.645  0.00  0.00    +0.044 C 
ATOM     15  C   UNL     1      35.910 -21.459 -18.648  0.00  0.00    +0.038 C 
ATOM     16  C   UNL     1      36.709 -21.631 -17.521  0.00  0.00    +0.003 C 
ENDROOT
BRANCH  12  18
ATOM     17  O   UNL     1      29.865 -22.821 -11.318  0.00  0.00    -0.245 OA
ATOM     18  C   UNL     1      30.106 -23.600 -12.245  0.00  0.00    +0.338 C 
BRANCH  18  19
ATOM     19  O   UNL     1      29.817 -24.928 -12.167  0.00  0.00    -0.477 OA
ATOM     20  H   UNL     1      29.399 -25.360 -12.886  0.00  0.00    +0.295 HD
ENDBRANCH  18  19
ENDBRANCH  12  18
BRANCH   9  21
ATOM     21  O   UNL     1      29.651 -22.564 -16.928  0.00  0.00    -0.424 OA
BRANCH  21  23
ATOM     22  O   UNL     1      27.672 -21.496 -16.278  0.00  0.00    -0.250 OA
ATOM     23  C   UNL     1      28.292 -22.507 -16.578  0.00  0.00    +0.322 C 
ATOM     24  C   UNL     1      27.696 -23.882 -16.620  0.00  0.00    +0.122 C 
ENDBRANCH  21  23
ENDBRANCH   9  21
BRANCH  11  25
ATOM     25  O   UNL     1      33.807 -21.449 -19.703  0.00  0.00    -0.424 OA
BRANCH  25  27
ATOM     26  O   UNL     1      34.870 -19.457 -20.321  0.00  0.00    -0.250 OA
ATOM     27  C   UNL     1      33.861 -20.140 -20.204  0.00  0.00    +0.322 C 
ATOM     28  C   UNL     1      32.484 -19.679 -20.580  0.00  0.00    +0.122 C 
ENDBRANCH  25  27
ENDBRANCH  11  25
TORSDOF 6
ENDMDL
