MODEL 1
REMARK VINA RESULT:     -11.2      0.000      0.000
REMARK  Name = 54727975
REMARK  6 active torsions:
REMARK  status: ('A' for Active; 'I' for Inactive)
REMARK    1  A    between atoms: C_2  and  C_8
REMARK    2  A    between atoms: C_5  and  N_17
REMARK    3  A    between atoms: C_9  and  O_14
REMARK    4  A    between atoms: C_18  and  C_20
REMARK    5  A    between atoms: C_20  and  C_26
REMARK    6  A    between atoms: C_21  and  O_23
REMARK                            x       y       z     vdW  Elec       q    Type
REMARK                         _______ _______ _______ _____ _____    ______ ____
ROOT
ATOM      1 CL   UNL     1      32.282 -21.619 -18.404  0.00  0.00    -0.081 Cl
ATOM      2  C   UNL     1      34.539 -19.458 -20.890  0.00  0.00    +0.004 C 
ATOM      3  C   UNL     1      33.450 -20.056 -20.254  0.00  0.00    +0.013 C 
ATOM      4  C   UNL     1      35.834 -19.700 -20.431  0.00  0.00    +0.001 C 
ATOM      5  C   UNL     1      34.952 -21.139 -18.702  0.00  0.00    +0.061 C 
ATOM      6  C   UNL     1      33.657 -20.897 -19.161  0.00  0.00    +0.071 C 
ATOM      7  C   UNL     1      36.040 -20.540 -19.337  0.00  0.00    +0.016 C 
ENDROOT
BRANCH   2   8
ATOM      8  C   UNL     1      34.326 -18.585 -22.025  0.00  0.00    +0.034 C 
ATOM      9  C   UNL     1      34.457 -17.202 -21.899  0.00  0.00    +0.139 C 
ATOM     10  C   UNL     1      33.982 -19.144 -23.256  0.00  0.00    +0.003 C 
ATOM     11  C   UNL     1      34.246 -16.379 -23.004  0.00  0.00    +0.037 C 
ATOM     12  C   UNL     1      33.771 -18.320 -24.361  0.00  0.00    +0.000 C 
ATOM     13  C   UNL     1      33.903 -16.937 -24.235  0.00  0.00    +0.003 C 
BRANCH   9  14
ATOM     14  O   UNL     1      34.792 -16.629 -20.707  0.00  0.00    -0.471 OA
ATOM     15  C   UNL     1      34.159 -15.393 -20.385  0.00  0.00    +0.252 C 
ENDBRANCH   9  14
ENDBRANCH   2   8
BRANCH   5  17
ATOM     16  O   UNL     1      36.826 -20.807 -16.387  0.00  0.00    -0.269 OA
ATOM     17  N   UNL     1      35.198 -21.987 -17.594  0.00  0.00    -0.279 N 
ATOM     18  C   UNL     1      36.086 -21.772 -16.548  0.00  0.00    +0.262 C 
ATOM     19  H   UNL     1      34.681 -22.825 -17.564  0.00  0.00    +0.155 HD
BRANCH  18  20
ATOM     20  C   UNL     1      36.076 -22.900 -15.548  0.00  0.00    +0.151 C 
ATOM     21  C   UNL     1      37.251 -23.448 -15.175  0.00  0.00    +0.126 C 
ATOM     22  C   UNL     1      37.410 -24.587 -14.205  0.00  0.00    +0.072 C 
BRANCH  21  23
ATOM     23  O   UNL     1      38.451 -22.962 -15.666  0.00  0.00    -0.509 OA
ATOM     24  H   UNL     1      38.821 -22.177 -15.311  0.00  0.00    +0.292 HD
ENDBRANCH  21  23
BRANCH  20  26
ATOM     25  N   UNL     1      33.816 -23.755 -14.617  0.00  0.00    -0.191 NA
ATOM     26  C   UNL     1      34.826 -23.367 -15.037  0.00  0.00    +0.108 C 
ENDBRANCH  20  26
ENDBRANCH  18  20
ENDBRANCH   5  17
TORSDOF 6
ENDMDL
MODEL 2
REMARK VINA RESULT:     -10.0      7.566     11.253
REMARK  Name = 54727975
REMARK  6 active torsions:
REMARK  status: ('A' for Active; 'I' for Inactive)
REMARK    1  A    between atoms: C_2  and  C_8
REMARK    2  A    between atoms: C_5  and  N_17
REMARK    3  A    between atoms: C_9  and  O_14
REMARK    4  A    between atoms: C_18  and  C_20
REMARK    5  A    between atoms: C_20  and  C_26
REMARK    6  A    between atoms: C_21  and  O_23
REMARK                            x       y       z     vdW  Elec       q    Type
REMARK                         _______ _______ _______ _____ _____    ______ ____
ROOT
ATOM      1 CL   UNL     1      31.154 -12.529 -20.521  0.00  0.00    -0.081 Cl
ATOM      2  C   UNL     1      31.795  -8.870 -21.988  0.00  0.00    +0.004 C 
ATOM      3  C   UNL     1      31.357  -9.934 -21.198  0.00  0.00    +0.013 C 
ATOM      4  C   UNL     1      32.594  -9.114 -23.105  0.00  0.00    +0.001 C 
ATOM      5  C   UNL     1      32.517 -11.484 -22.642  0.00  0.00    +0.061 C 
ATOM      6  C   UNL     1      31.718 -11.240 -21.524  0.00  0.00    +0.071 C 
ATOM      7  C   UNL     1      32.955 -10.421 -23.431  0.00  0.00    +0.016 C 
ENDROOT
BRANCH   2   8
ATOM      8  C   UNL     1      31.420  -7.514 -21.649  0.00  0.00    +0.034 C 
ATOM      9  C   UNL     1      30.573  -6.778 -22.478  0.00  0.00    +0.139 C 
ATOM     10  C   UNL     1      31.920  -6.944 -20.478  0.00  0.00    +0.003 C 
ATOM     11  C   UNL     1      30.225  -5.472 -22.135  0.00  0.00    +0.037 C 
ATOM     12  C   UNL     1      31.571  -5.638 -20.135  0.00  0.00    +0.000 C 
ATOM     13  C   UNL     1      30.724  -4.902 -20.963  0.00  0.00    +0.003 C 
BRANCH   9  14
ATOM     14  O   UNL     1      30.071  -7.310 -23.629  0.00  0.00    -0.471 OA
ATOM     15  C   UNL     1      30.441  -6.674 -24.850  0.00  0.00    +0.252 C 
ENDBRANCH   9  14
ENDBRANCH   2   8
BRANCH   5  17
ATOM     16  O   UNL     1      34.198 -13.482 -21.171  0.00  0.00    -0.269 OA
ATOM     17  N   UNL     1      32.903 -12.799 -23.003  0.00  0.00    -0.279 N 
ATOM     18  C   UNL     1      33.689 -13.679 -22.270  0.00  0.00    +0.262 C 
ATOM     19  H   UNL     1      32.577 -13.125 -23.873  0.00  0.00    +0.155 HD
BRANCH  18  20
ATOM     20  C   UNL     1      33.888 -14.995 -22.978  0.00  0.00    +0.151 C 
ATOM     21  C   UNL     1      34.350 -16.048 -22.272  0.00  0.00    +0.126 C 
ATOM     22  C   UNL     1      34.619 -17.418 -22.832  0.00  0.00    +0.072 C 
BRANCH  21  23
ATOM     23  O   UNL     1      34.599 -15.942 -20.914  0.00  0.00    -0.509 OA
ATOM     24  H   UNL     1      35.121 -16.589 -20.481  0.00  0.00    +0.292 HD
ENDBRANCH  21  23
BRANCH  20  26
ATOM     25  N   UNL     1      33.356 -15.154 -25.506  0.00  0.00    -0.191 NA
ATOM     26  C   UNL     1      33.601 -15.085 -24.374  0.00  0.00    +0.108 C 
ENDBRANCH  20  26
ENDBRANCH  18  20
ENDBRANCH   5  17
TORSDOF 6
ENDMDL
MODEL 3
REMARK VINA RESULT:      -9.8      2.595      3.242
REMARK  Name = 54727975
REMARK  6 active torsions:
REMARK  status: ('A' for Active; 'I' for Inactive)
REMARK    1  A    between atoms: C_2  and  C_8
REMARK    2  A    between atoms: C_5  and  N_17
REMARK    3  A    between atoms: C_9  and  O_14
REMARK    4  A    between atoms: C_18  and  C_20
REMARK    5  A    between atoms: C_20  and  C_26
REMARK    6  A    between atoms: C_21  and  O_23
REMARK                            x       y       z     vdW  Elec       q    Type
REMARK                         _______ _______ _______ _____ _____    ______ ____
ROOT
ATOM      1 CL   UNL     1      36.313 -21.316 -18.380  0.00  0.00    -0.081 Cl
ATOM      2  C   UNL     1      33.840 -19.511 -20.943  0.00  0.00    +0.004 C 
ATOM      3  C   UNL     1      34.986 -19.954 -20.281  0.00  0.00    +0.013 C 
ATOM      4  C   UNL     1      32.580 -19.908 -20.497  0.00  0.00    +0.001 C 
ATOM      5  C   UNL     1      33.609 -21.188 -18.726  0.00  0.00    +0.061 C 
ATOM      6  C   UNL     1      34.871 -20.792 -19.173  0.00  0.00    +0.071 C 
ATOM      7  C   UNL     1      32.464 -20.746 -19.389  0.00  0.00    +0.016 C 
ENDROOT
BRANCH   2   8
ATOM      8  C   UNL     1      33.960 -18.640 -22.093  0.00  0.00    +0.034 C 
ATOM      9  C   UNL     1      34.381 -17.318 -21.950  0.00  0.00    +0.139 C 
ATOM     10  C   UNL     1      33.645 -19.139 -23.358  0.00  0.00    +0.003 C 
ATOM     11  C   UNL     1      34.488 -16.495 -23.070  0.00  0.00    +0.037 C 
ATOM     12  C   UNL     1      33.752 -18.315 -24.478  0.00  0.00    +0.000 C 
ATOM     13  C   UNL     1      34.174 -16.994 -24.334  0.00  0.00    +0.003 C 
BRANCH   9  14
ATOM     14  O   UNL     1      34.695 -16.805 -20.726  0.00  0.00    -0.471 OA
ATOM     15  C   UNL     1      34.177 -15.514 -20.415  0.00  0.00    +0.252 C 
ENDBRANCH   9  14
ENDBRANCH   2   8
BRANCH   5  17
ATOM     16  O   UNL     1      31.141 -21.994 -17.231  0.00  0.00    -0.269 OA
ATOM     17  N   UNL     1      33.455 -22.040 -17.604  0.00  0.00    -0.279 N 
ATOM     18  C   UNL     1      32.274 -22.375 -16.955  0.00  0.00    +0.262 C 
ATOM     19  H   UNL     1      34.281 -22.438 -17.243  0.00  0.00    +0.155 HD
BRANCH  18  20
ATOM     20  C   UNL     1      32.503 -23.309 -15.795  0.00  0.00    +0.151 C 
ATOM     21  C   UNL     1      31.462 -23.618 -14.995  0.00  0.00    +0.126 C 
ATOM     22  C   UNL     1      31.528 -24.517 -13.790  0.00  0.00    +0.072 C 
BRANCH  21  23
ATOM     23  O   UNL     1      30.194 -23.123 -15.252  0.00  0.00    -0.509 OA
ATOM     24  H   UNL     1      29.854 -22.416 -14.740  0.00  0.00    +0.292 HD
ENDBRANCH  21  23
BRANCH  20  26
ATOM     25  N   UNL     1      34.885 -24.235 -15.381  0.00  0.00    -0.191 NA
ATOM     26  C   UNL     1      33.815 -23.826 -15.566  0.00  0.00    +0.108 C 
ENDBRANCH  20  26
ENDBRANCH  18  20
ENDBRANCH   5  17
TORSDOF 6
ENDMDL
MODEL 4
REMARK VINA RESULT:      -9.8      1.773      2.601
REMARK  Name = 54727975
REMARK  6 active torsions:
REMARK  status: ('A' for Active; 'I' for Inactive)
REMARK    1  A    between atoms: C_2  and  C_8
REMARK    2  A    between atoms: C_5  and  N_17
REMARK    3  A    between atoms: C_9  and  O_14
REMARK    4  A    between atoms: C_18  and  C_20
REMARK    5  A    between atoms: C_20  and  C_26
REMARK    6  A    between atoms: C_21  and  O_23
REMARK                            x       y       z     vdW  Elec       q    Type
REMARK                         _______ _______ _______ _____ _____    ______ ____
ROOT
ATOM      1 CL   UNL     1      32.679 -21.286 -19.087  0.00  0.00    -0.081 Cl
ATOM      2  C   UNL     1      34.769 -18.684 -21.279  0.00  0.00    +0.004 C 
ATOM      3  C   UNL     1      33.732 -19.451 -20.747  0.00  0.00    +0.013 C 
ATOM      4  C   UNL     1      36.065 -18.822 -20.781  0.00  0.00    +0.001 C 
ATOM      5  C   UNL     1      35.287 -20.492 -19.219  0.00  0.00    +0.061 C 
ATOM      6  C   UNL     1      33.991 -20.355 -19.717  0.00  0.00    +0.071 C 
ATOM      7  C   UNL     1      36.323 -19.725 -19.751  0.00  0.00    +0.016 C 
ENDROOT
BRANCH   2   8
ATOM      8  C   UNL     1      34.502 -17.747 -22.348  0.00  0.00    +0.034 C 
ATOM      9  C   UNL     1      33.993 -18.182 -23.572  0.00  0.00    +0.139 C 
ATOM     10  C   UNL     1      34.761 -16.391 -22.143  0.00  0.00    +0.003 C 
ATOM     11  C   UNL     1      33.743 -17.263 -24.590  0.00  0.00    +0.037 C 
ATOM     12  C   UNL     1      34.511 -15.472 -23.162  0.00  0.00    +0.000 C 
ATOM     13  C   UNL     1      34.002 -15.908 -24.385  0.00  0.00    +0.003 C 
BRANCH   9  14
ATOM     14  O   UNL     1      33.730 -19.501 -23.800  0.00  0.00    -0.471 OA
ATOM     15  C   UNL     1      34.556 -20.169 -24.750  0.00  0.00    +0.252 C 
ENDBRANCH   9  14
ENDBRANCH   2   8
BRANCH   5  17
ATOM     16  O   UNL     1      36.841 -20.090 -16.689  0.00  0.00    -0.269 OA
ATOM     17  N   UNL     1      35.585 -21.401 -18.173  0.00  0.00    -0.279 N 
ATOM     18  C   UNL     1      36.315 -21.148 -17.018  0.00  0.00    +0.262 C 
ATOM     19  H   UNL     1      35.235 -22.315 -18.277  0.00  0.00    +0.155 HD
BRANCH  18  20
ATOM     20  C   UNL     1      36.426 -22.363 -16.134  0.00  0.00    +0.151 C 
ATOM     21  C   UNL     1      35.295 -22.980 -15.733  0.00  0.00    +0.126 C 
ATOM     22  C   UNL     1      35.233 -24.188 -14.839  0.00  0.00    +0.072 C 
BRANCH  21  23
ATOM     23  O   UNL     1      34.053 -22.536 -16.157  0.00  0.00    -0.509 OA
ATOM     24  H   UNL     1      33.939 -22.227 -17.034  0.00  0.00    +0.292 HD
ENDBRANCH  21  23
BRANCH  20  26
ATOM     25  N   UNL     1      38.766 -23.186 -15.393  0.00  0.00    -0.191 NA
ATOM     26  C   UNL     1      37.719 -22.816 -15.731  0.00  0.00    +0.108 C 
ENDBRANCH  20  26
ENDBRANCH  18  20
ENDBRANCH   5  17
TORSDOF 6
ENDMDL
MODEL 5
REMARK VINA RESULT:      -9.7      2.621      8.174
REMARK  Name = 54727975
REMARK  6 active torsions:
REMARK  status: ('A' for Active; 'I' for Inactive)
REMARK    1  A    between atoms: C_2  and  C_8
REMARK    2  A    between atoms: C_5  and  N_17
REMARK    3  A    between atoms: C_9  and  O_14
REMARK    4  A    between atoms: C_18  and  C_20
REMARK    5  A    between atoms: C_20  and  C_26
REMARK    6  A    between atoms: C_21  and  O_23
REMARK                            x       y       z     vdW  Elec       q    Type
REMARK                         _______ _______ _______ _____ _____    ______ ____
ROOT
ATOM      1 CL   UNL     1      31.868 -20.549 -20.039  0.00  0.00    -0.081 Cl
ATOM      2  C   UNL     1      34.976 -21.620 -17.773  0.00  0.00    +0.004 C 
ATOM      3  C   UNL     1      33.686 -21.456 -18.277  0.00  0.00    +0.013 C 
ATOM      4  C   UNL     1      36.063 -21.057 -18.443  0.00  0.00    +0.001 C 
ATOM      5  C   UNL     1      34.569 -20.167 -20.119  0.00  0.00    +0.061 C 
ATOM      6  C   UNL     1      33.482 -20.730 -19.450  0.00  0.00    +0.071 C 
ATOM      7  C   UNL     1      35.859 -20.331 -19.616  0.00  0.00    +0.016 C 
ENDROOT
BRANCH   2   8
ATOM      8  C   UNL     1      35.189 -22.373 -16.556  0.00  0.00    +0.034 C 
ATOM      9  C   UNL     1      34.147 -23.092 -15.968  0.00  0.00    +0.139 C 
ATOM     10  C   UNL     1      36.454 -22.373 -15.969  0.00  0.00    +0.003 C 
ATOM     11  C   UNL     1      34.372 -23.810 -14.794  0.00  0.00    +0.037 C 
ATOM     12  C   UNL     1      36.679 -23.093 -14.795  0.00  0.00    +0.000 C 
ATOM     13  C   UNL     1      35.637 -23.811 -14.208  0.00  0.00    +0.003 C 
BRANCH   9  14
ATOM     14  O   UNL     1      32.900 -23.109 -16.520  0.00  0.00    -0.471 OA
ATOM     15  C   UNL     1      31.795 -23.055 -15.621  0.00  0.00    +0.252 C 
ENDBRANCH   9  14
ENDBRANCH   2   8
BRANCH   5  17
ATOM     16  O   UNL     1      34.984 -17.249 -20.659  0.00  0.00    -0.269 OA
ATOM     17  N   UNL     1      34.398 -19.423 -21.313  0.00  0.00    -0.279 N 
ATOM     18  C   UNL     1      34.610 -18.063 -21.498  0.00  0.00    +0.262 C 
ATOM     19  H   UNL     1      34.093 -19.929 -22.102  0.00  0.00    +0.155 HD
BRANCH  18  20
ATOM     20  C   UNL     1      34.322 -17.625 -22.911  0.00  0.00    +0.151 C 
ATOM     21  C   UNL     1      34.345 -16.307 -23.199  0.00  0.00    +0.126 C 
ATOM     22  C   UNL     1      34.063 -15.708 -24.550  0.00  0.00    +0.072 C 
BRANCH  21  23
ATOM     23  O   UNL     1      34.667 -15.371 -22.230  0.00  0.00    -0.509 OA
ATOM     24  H   UNL     1      34.373 -14.485 -22.318  0.00  0.00    +0.292 HD
ENDBRANCH  21  23
BRANCH  20  26
ATOM     25  N   UNL     1      33.759 -19.416 -24.693  0.00  0.00    -0.191 NA
ATOM     26  C   UNL     1      34.017 -18.612 -23.897  0.00  0.00    +0.108 C 
ENDBRANCH  20  26
ENDBRANCH  18  20
ENDBRANCH   5  17
TORSDOF 6
ENDMDL
MODEL 6
REMARK VINA RESULT:      -9.7      6.945     10.430
REMARK  Name = 54727975
REMARK  6 active torsions:
REMARK  status: ('A' for Active; 'I' for Inactive)
REMARK    1  A    between atoms: C_2  and  C_8
REMARK    2  A    between atoms: C_5  and  N_17
REMARK    3  A    between atoms: C_9  and  O_14
REMARK    4  A    between atoms: C_18  and  C_20
REMARK    5  A    between atoms: C_20  and  C_26
REMARK    6  A    between atoms: C_21  and  O_23
REMARK                            x       y       z     vdW  Elec       q    Type
REMARK                         _______ _______ _______ _____ _____    ______ ____
ROOT
ATOM      1 CL   UNL     1      31.303 -12.967 -20.608  0.00  0.00    -0.081 Cl
ATOM      2  C   UNL     1      31.858  -9.516 -22.538  0.00  0.00    +0.004 C 
ATOM      3  C   UNL     1      31.425 -10.483 -21.630  0.00  0.00    +0.013 C 
ATOM      4  C   UNL     1      32.733  -9.867 -23.566  0.00  0.00    +0.001 C 
ATOM      5  C   UNL     1      32.740 -12.151 -22.780  0.00  0.00    +0.061 C 
ATOM      6  C   UNL     1      31.865 -11.800 -21.751  0.00  0.00    +0.071 C 
ATOM      7  C   UNL     1      33.174 -11.184 -23.687  0.00  0.00    +0.016 C 
ENDROOT
BRANCH   2   8
ATOM      8  C   UNL     1      31.401  -8.148 -22.413  0.00  0.00    +0.034 C 
ATOM      9  C   UNL     1      31.592  -7.435 -21.230  0.00  0.00    +0.139 C 
ATOM     10  C   UNL     1      30.761  -7.545 -23.496  0.00  0.00    +0.003 C 
ATOM     11  C   UNL     1      31.143  -6.119 -21.129  0.00  0.00    +0.037 C 
ATOM     12  C   UNL     1      30.313  -6.228 -23.395  0.00  0.00    +0.000 C 
ATOM     13  C   UNL     1      30.504  -5.515 -22.211  0.00  0.00    +0.003 C 
BRANCH   9  14
ATOM     14  O   UNL     1      32.214  -8.000 -20.156  0.00  0.00    -0.471 OA
ATOM     15  C   UNL     1      31.416  -8.241 -19.000  0.00  0.00    +0.252 C 
ENDBRANCH   9  14
ENDBRANCH   2   8
BRANCH   5  17
ATOM     16  O   UNL     1      34.267 -13.896 -20.882  0.00  0.00    -0.269 OA
ATOM     17  N   UNL     1      33.207 -13.481 -22.932  0.00  0.00    -0.279 N 
ATOM     18  C   UNL     1      33.914 -14.238 -22.006  0.00  0.00    +0.262 C 
ATOM     19  H   UNL     1      33.009 -13.916 -23.793  0.00  0.00    +0.155 HD
BRANCH  18  20
ATOM     20  C   UNL     1      34.243 -15.614 -22.524  0.00  0.00    +0.151 C 
ATOM     21  C   UNL     1      34.646 -16.558 -21.648  0.00  0.00    +0.126 C 
ATOM     22  C   UNL     1      35.027 -17.969 -22.005  0.00  0.00    +0.072 C 
BRANCH  21  23
ATOM     23  O   UNL     1      34.720 -16.286 -20.291  0.00  0.00    -0.509 OA
ATOM     24  H   UNL     1      34.038 -15.799 -19.873  0.00  0.00    +0.292 HD
ENDBRANCH  21  23
BRANCH  20  26
ATOM     25  N   UNL     1      34.050 -16.077 -25.063  0.00  0.00    -0.191 NA
ATOM     26  C   UNL     1      34.135 -15.876 -23.924  0.00  0.00    +0.108 C 
ENDBRANCH  20  26
ENDBRANCH  18  20
ENDBRANCH   5  17
TORSDOF 6
ENDMDL
MODEL 7
REMARK VINA RESULT:      -9.6      3.139      8.395
REMARK  Name = 54727975
REMARK  6 active torsions:
REMARK  status: ('A' for Active; 'I' for Inactive)
REMARK    1  A    between atoms: C_2  and  C_8
REMARK    2  A    between atoms: C_5  and  N_17
REMARK    3  A    between atoms: C_9  and  O_14
REMARK    4  A    between atoms: C_18  and  C_20
REMARK    5  A    between atoms: C_20  and  C_26
REMARK    6  A    between atoms: C_21  and  O_23
REMARK                            x       y       z     vdW  Elec       q    Type
REMARK                         _______ _______ _______ _____ _____    ______ ____
ROOT
ATOM      1 CL   UNL     1      36.796 -18.402 -21.156  0.00  0.00    -0.081 Cl
ATOM      2  C   UNL     1      35.011 -20.900 -18.602  0.00  0.00    +0.004 C 
ATOM      3  C   UNL     1      35.962 -20.124 -19.266  0.00  0.00    +0.013 C 
ATOM      4  C   UNL     1      33.684 -20.897 -19.034  0.00  0.00    +0.001 C 
ATOM      5  C   UNL     1      34.260 -19.344 -20.793  0.00  0.00    +0.061 C 
ATOM      6  C   UNL     1      35.587 -19.346 -20.361  0.00  0.00    +0.071 C 
ATOM      7  C   UNL     1      33.309 -20.119 -20.129  0.00  0.00    +0.016 C 
ENDROOT
BRANCH   2   8
ATOM      8  C   UNL     1      35.399 -21.708 -17.466  0.00  0.00    +0.034 C 
ATOM      9  C   UNL     1      34.467 -22.506 -16.803  0.00  0.00    +0.139 C 
ATOM     10  C   UNL     1      36.725 -21.679 -17.035  0.00  0.00    +0.003 C 
ATOM     11  C   UNL     1      34.860 -23.276 -15.709  0.00  0.00    +0.037 C 
ATOM     12  C   UNL     1      37.119 -22.450 -15.941  0.00  0.00    +0.000 C 
ATOM     13  C   UNL     1      36.187 -23.248 -15.278  0.00  0.00    +0.003 C 
BRANCH   9  14
ATOM     14  O   UNL     1      33.164 -22.552 -17.203  0.00  0.00    -0.471 OA
ATOM     15  C   UNL     1      32.210 -23.005 -16.246  0.00  0.00    +0.252 C 
ENDBRANCH   9  14
ENDBRANCH   2   8
BRANCH   5  17
ATOM     16  O   UNL     1      34.621 -19.810 -23.731  0.00  0.00    -0.269 OA
ATOM     17  N   UNL     1      33.844 -18.565 -21.901  0.00  0.00    -0.279 N 
ATOM     18  C   UNL     1      34.044 -18.841 -23.248  0.00  0.00    +0.262 C 
ATOM     19  H   UNL     1      33.359 -17.734 -21.692  0.00  0.00    +0.155 HD
BRANCH  18  20
ATOM     20  C   UNL     1      33.459 -17.778 -24.143  0.00  0.00    +0.151 C 
ATOM     21  C   UNL     1      34.006 -16.545 -24.128  0.00  0.00    +0.126 C 
ATOM     22  C   UNL     1      33.530 -15.374 -24.945  0.00  0.00    +0.072 C 
BRANCH  21  23
ATOM     23  O   UNL     1      35.109 -16.263 -23.340  0.00  0.00    -0.509 OA
ATOM     24  H   UNL     1      35.009 -15.762 -22.554  0.00  0.00    +0.292 HD
ENDBRANCH  21  23
BRANCH  20  26
ATOM     25  N   UNL     1      31.421 -18.370 -25.625  0.00  0.00    -0.191 NA
ATOM     26  C   UNL     1      32.337 -18.101 -24.965  0.00  0.00    +0.108 C 
ENDBRANCH  20  26
ENDBRANCH  18  20
ENDBRANCH   5  17
TORSDOF 6
ENDMDL
MODEL 8
REMARK VINA RESULT:      -9.5      8.121     11.939
REMARK  Name = 54727975
REMARK  6 active torsions:
REMARK  status: ('A' for Active; 'I' for Inactive)
REMARK    1  A    between atoms: C_2  and  C_8
REMARK    2  A    between atoms: C_5  and  N_17
REMARK    3  A    between atoms: C_9  and  O_14
REMARK    4  A    between atoms: C_18  and  C_20
REMARK    5  A    between atoms: C_20  and  C_26
REMARK    6  A    between atoms: C_21  and  O_23
REMARK                            x       y       z     vdW  Elec       q    Type
REMARK                         _______ _______ _______ _____ _____    ______ ____
ROOT
ATOM      1 CL   UNL     1      30.540 -11.411 -21.378  0.00  0.00    -0.081 Cl
ATOM      2  C   UNL     1      32.095  -8.080 -22.937  0.00  0.00    +0.004 C 
ATOM      3  C   UNL     1      31.264  -8.979 -22.267  0.00  0.00    +0.013 C 
ATOM      4  C   UNL     1      33.260  -8.535 -23.554  0.00  0.00    +0.001 C 
ATOM      5  C   UNL     1      32.763 -10.786 -22.833  0.00  0.00    +0.061 C 
ATOM      6  C   UNL     1      31.597 -10.332 -22.215  0.00  0.00    +0.071 C 
ATOM      7  C   UNL     1      33.594  -9.888 -23.502  0.00  0.00    +0.016 C 
ENDROOT
BRANCH   2   8
ATOM      8  C   UNL     1      31.749  -6.676 -22.991  0.00  0.00    +0.034 C 
ATOM      9  C   UNL     1      32.129  -5.805 -21.970  0.00  0.00    +0.139 C 
ATOM     10  C   UNL     1      31.024  -6.197 -24.082  0.00  0.00    +0.003 C 
ATOM     11  C   UNL     1      31.785  -4.456 -22.039  0.00  0.00    +0.037 C 
ATOM     12  C   UNL     1      30.680  -4.846 -24.152  0.00  0.00    +0.000 C 
ATOM     13  C   UNL     1      31.061  -3.976 -23.131  0.00  0.00    +0.003 C 
BRANCH   9  14
ATOM     14  O   UNL     1      32.838  -6.246 -20.891  0.00  0.00    -0.471 OA
ATOM     15  C   UNL     1      32.134  -6.357 -19.657  0.00  0.00    +0.252 C 
ENDBRANCH   9  14
ENDBRANCH   2   8
BRANCH   5  17
ATOM     16  O   UNL     1      32.567 -12.897 -24.951  0.00  0.00    -0.269 OA
ATOM     17  N   UNL     1      33.132 -12.154 -22.800  0.00  0.00    -0.279 N 
ATOM     18  C   UNL     1      33.015 -13.085 -23.825  0.00  0.00    +0.262 C 
ATOM     19  H   UNL     1      33.515 -12.481 -21.954  0.00  0.00    +0.155 HD
BRANCH  18  20
ATOM     20  C   UNL     1      33.513 -14.448 -23.419  0.00  0.00    +0.151 C 
ATOM     21  C   UNL     1      33.591 -15.416 -24.356  0.00  0.00    +0.126 C 
ATOM     22  C   UNL     1      34.049 -16.828 -24.111  0.00  0.00    +0.072 C 
BRANCH  21  23
ATOM     23  O   UNL     1      33.259 -15.158 -25.676  0.00  0.00    -0.509 OA
ATOM     24  H   UNL     1      32.379 -14.931 -25.903  0.00  0.00    +0.292 HD
ENDBRANCH  21  23
BRANCH  20  26
ATOM     25  N   UNL     1      34.171 -14.881 -20.953  0.00  0.00    -0.191 NA
ATOM     26  C   UNL     1      33.872 -14.682 -22.057  0.00  0.00    +0.108 C 
ENDBRANCH  20  26
ENDBRANCH  18  20
ENDBRANCH   5  17
TORSDOF 6
ENDMDL
MODEL 9
REMARK VINA RESULT:      -9.5      6.835     11.239
REMARK  Name = 54727975
REMARK  6 active torsions:
REMARK  status: ('A' for Active; 'I' for Inactive)
REMARK    1  A    between atoms: C_2  and  C_8
REMARK    2  A    between atoms: C_5  and  N_17
REMARK    3  A    between atoms: C_9  and  O_14
REMARK    4  A    between atoms: C_18  and  C_20
REMARK    5  A    between atoms: C_20  and  C_26
REMARK    6  A    between atoms: C_21  and  O_23
REMARK                            x       y       z     vdW  Elec       q    Type
REMARK                         _______ _______ _______ _____ _____    ______ ____
ROOT
ATOM      1 CL   UNL     1      32.724 -12.933 -25.696  0.00  0.00    -0.081 Cl
ATOM      2  C   UNL     1      33.998 -15.254 -22.707  0.00  0.00    +0.004 C 
ATOM      3  C   UNL     1      33.567 -14.800 -23.954  0.00  0.00    +0.013 C 
ATOM      4  C   UNL     1      34.119 -14.360 -21.643  0.00  0.00    +0.001 C 
ATOM      5  C   UNL     1      33.376 -12.559 -23.072  0.00  0.00    +0.061 C 
ATOM      6  C   UNL     1      33.256 -13.453 -24.137  0.00  0.00    +0.071 C 
ATOM      7  C   UNL     1      33.808 -13.013 -21.826  0.00  0.00    +0.016 C 
ENDROOT
BRANCH   2   8
ATOM      8  C   UNL     1      34.321 -16.652 -22.517  0.00  0.00    +0.034 C 
ATOM      9  C   UNL     1      33.971 -17.604 -23.475  0.00  0.00    +0.139 C 
ATOM     10  C   UNL     1      34.990 -17.043 -21.357  0.00  0.00    +0.003 C 
ATOM     11  C   UNL     1      34.289 -18.946 -23.272  0.00  0.00    +0.037 C 
ATOM     12  C   UNL     1      35.309 -18.386 -21.155  0.00  0.00    +0.000 C 
ATOM     13  C   UNL     1      34.959 -19.337 -22.112  0.00  0.00    +0.003 C 
BRANCH   9  14
ATOM     14  O   UNL     1      33.316 -17.250 -24.618  0.00  0.00    -0.471 OA
ATOM     15  C   UNL     1      32.277 -18.118 -25.062  0.00  0.00    +0.252 C 
ENDBRANCH   9  14
ENDBRANCH   2   8
BRANCH   5  17
ATOM     16  O   UNL     1      31.519 -10.807 -21.503  0.00  0.00    -0.269 OA
ATOM     17  N   UNL     1      33.069 -11.184 -23.222  0.00  0.00    -0.279 N 
ATOM     18  C   UNL     1      32.193 -10.427 -22.455  0.00  0.00    +0.262 C 
ATOM     19  H   UNL     1      33.529 -10.713 -23.955  0.00  0.00    +0.155 HD
BRANCH  18  20
ATOM     20  C   UNL     1      32.123  -8.993 -22.914  0.00  0.00    +0.151 C 
ATOM     21  C   UNL     1      30.919  -8.387 -22.970  0.00  0.00    +0.126 C 
ATOM     22  C   UNL     1      30.677  -6.973 -23.422  0.00  0.00    +0.072 C 
BRANCH  21  23
ATOM     23  O   UNL     1      29.768  -9.051 -22.575  0.00  0.00    -0.509 OA
ATOM     24  H   UNL     1      29.393  -8.879 -21.733  0.00  0.00    +0.292 HD
ENDBRANCH  21  23
BRANCH  20  26
ATOM     25  N   UNL     1      34.308  -7.779 -23.589  0.00  0.00    -0.191 NA
ATOM     26  C   UNL     1      33.326  -8.323 -23.293  0.00  0.00    +0.108 C 
ENDBRANCH  20  26
ENDBRANCH  18  20
ENDBRANCH   5  17
TORSDOF 6
ENDMDL
