MODEL 1
REMARK VINA RESULT:     -12.0      0.000      0.000
REMARK  Name = 10477723
REMARK  8 active torsions:
REMARK  status: ('A' for Active; 'I' for Inactive)
REMARK    1  A    between atoms: C_1  and  C_9
REMARK    2  A    between atoms: C_2  and  N_24
REMARK    3  A    between atoms: N_8  and  C_13
REMARK    4  A    between atoms: C_11  and  C_21
REMARK    5  A    between atoms: C_12  and  C_20
REMARK    6  A    between atoms: C_21  and  C_22
REMARK    7  A    between atoms: N_24  and  C_26
REMARK    8  A    between atoms: C_26  and  C_29
REMARK                            x       y       z     vdW  Elec       q    Type
REMARK                         _______ _______ _______ _____ _____    ______ ____
ROOT
ATOM      1  C   UNL     1      36.706 -22.350 -16.026  0.00  0.00    +0.067 C 
ATOM      2  C   UNL     1      35.702 -23.038 -15.320  0.00  0.00    +0.049 C 
ATOM      3  C   UNL     1      38.053 -22.662 -15.838  0.00  0.00    +0.006 C 
ATOM      4  C   UNL     1      36.090 -24.048 -14.421  0.00  0.00    +0.014 C 
ATOM      5  C   UNL     1      38.418 -23.666 -14.941  0.00  0.00    +0.000 C 
ATOM      6  C   UNL     1      37.436 -24.359 -14.233  0.00  0.00    +0.001 C 
ENDROOT
BRANCH   1   9
ATOM      7  O   UNL     1      36.858 -20.169 -16.821  0.00  0.00    -0.270 OA
ATOM      8  N   UNL     1      35.488 -21.664 -18.003  0.00  0.00    -0.280 N 
ATOM      9  C   UNL     1      36.359 -21.295 -16.969  0.00  0.00    +0.251 C 
ATOM     10  H   UNL     1      35.175 -22.597 -17.987  0.00  0.00    +0.155 HD
BRANCH   8  13
ATOM     11  C   UNL     1      34.042 -19.313 -21.149  0.00  0.00    -0.018 C 
ATOM     12  C   UNL     1      35.376 -19.207 -20.755  0.00  0.00    +0.069 C 
ATOM     13  C   UNL     1      35.000 -20.868 -19.068  0.00  0.00    +0.050 C 
ATOM     14  C   UNL     1      33.190 -20.202 -20.493  0.00  0.00    -0.003 C 
ATOM     15  C   UNL     1      35.858 -19.991 -19.706  0.00  0.00    +0.018 C 
ATOM     16  C   UNL     1      33.673 -20.986 -19.445  0.00  0.00    +0.014 C 
BRANCH  12  20
ATOM     17  F   UNL     1      36.740 -18.710 -22.657  0.00  0.00    -0.166 F 
ATOM     18  F   UNL     1      35.756 -17.038 -21.688  0.00  0.00    -0.166 F 
ATOM     19  F   UNL     1      37.435 -18.018 -20.716  0.00  0.00    -0.166 F 
ATOM     20  C   UNL     1      36.307 -18.262 -21.442  0.00  0.00    +0.418 C 
ENDBRANCH  12  20
BRANCH  11  21
ATOM     21  C   UNL     1      33.504 -18.485 -22.268  0.00  0.00    +0.026 C 
BRANCH  21  22
ATOM     22  C   UNL     1      33.788 -19.110 -23.641  0.00  0.00    +0.005 C 
ATOM     23  C   UNL     1      33.069 -18.375 -24.759  0.00  0.00    +0.000 C 
ENDBRANCH  21  22
ENDBRANCH  11  21
ENDBRANCH   8  13
ENDBRANCH   1   9
BRANCH   2  24
ATOM     24  N   UNL     1      34.356 -22.742 -15.493  0.00  0.00    -0.329 N 
ATOM     25  H   UNL     1      34.103 -22.154 -16.240  0.00  0.00    +0.147 HD
BRANCH  24  26
ATOM     26  C   UNL     1      33.309 -23.245 -14.646  0.00  0.00    +0.116 C 
BRANCH  26  29
ATOM     27  O   UNL     1      28.314 -21.982 -16.730  0.00  0.00    -0.270 OA
ATOM     28  N   UNL     1      30.574 -22.329 -17.061  0.00  0.00    -0.280 N 
ATOM     29  C   UNL     1      31.985 -22.901 -15.251  0.00  0.00    +0.012 C 
ATOM     30  C   UNL     1      31.813 -22.640 -16.556  0.00  0.00    +0.061 C 
ATOM     31  C   UNL     1      30.832 -22.850 -14.374  0.00  0.00    +0.003 C 
ATOM     32  C   UNL     1      29.612 -22.550 -14.838  0.00  0.00    +0.058 C 
ATOM     33  C   UNL     1      29.427 -22.260 -16.289  0.00  0.00    +0.250 C 
ATOM     34  H   UNL     1      30.498 -22.146 -18.025  0.00  0.00    +0.155 HD
ENDBRANCH  26  29
ENDBRANCH  24  26
ENDBRANCH   2  24
TORSDOF 8
ENDMDL
MODEL 2
REMARK VINA RESULT:     -11.8      2.756      3.634
REMARK  Name = 10477723
REMARK  8 active torsions:
REMARK  status: ('A' for Active; 'I' for Inactive)
REMARK    1  A    between atoms: C_1  and  C_9
REMARK    2  A    between atoms: C_2  and  N_24
REMARK    3  A    between atoms: N_8  and  C_13
REMARK    4  A    between atoms: C_11  and  C_21
REMARK    5  A    between atoms: C_12  and  C_20
REMARK    6  A    between atoms: C_21  and  C_22
REMARK    7  A    between atoms: N_24  and  C_26
REMARK    8  A    between atoms: C_26  and  C_29
REMARK                            x       y       z     vdW  Elec       q    Type
REMARK                         _______ _______ _______ _____ _____    ______ ____
ROOT
ATOM      1  C   UNL     1      35.988 -23.843 -13.661  0.00  0.00    +0.067 C 
ATOM      2  C   UNL     1      35.051 -24.186 -12.669  0.00  0.00    +0.049 C 
ATOM      3  C   UNL     1      37.342 -23.712 -13.350  0.00  0.00    +0.006 C 
ATOM      4  C   UNL     1      35.514 -24.396 -11.357  0.00  0.00    +0.014 C 
ATOM      5  C   UNL     1      37.781 -23.923 -12.043  0.00  0.00    +0.000 C 
ATOM      6  C   UNL     1      36.867 -24.265 -11.046  0.00  0.00    +0.001 C 
ENDROOT
BRANCH   1   9
ATOM      7  O   UNL     1      34.974 -24.525 -15.640  0.00  0.00    -0.270 OA
ATOM      8  N   UNL     1      35.839 -22.345 -15.557  0.00  0.00    -0.280 N 
ATOM      9  C   UNL     1      35.562 -23.615 -15.035  0.00  0.00    +0.251 C 
ATOM     10  H   UNL     1      36.313 -21.728 -14.954  0.00  0.00    +0.155 HD
BRANCH   8  13
ATOM     11  C   UNL     1      34.915 -20.831 -19.347  0.00  0.00    -0.018 C 
ATOM     12  C   UNL     1      33.900 -21.323 -18.526  0.00  0.00    +0.069 C 
ATOM     13  C   UNL     1      35.525 -21.832 -16.839  0.00  0.00    +0.050 C 
ATOM     14  C   UNL     1      36.237 -20.844 -18.904  0.00  0.00    -0.003 C 
ATOM     15  C   UNL     1      34.208 -21.828 -17.263  0.00  0.00    +0.018 C 
ATOM     16  C   UNL     1      36.545 -21.348 -17.641  0.00  0.00    +0.014 C 
BRANCH  12  20
ATOM     17  F   UNL     1      31.598 -21.731 -18.018  0.00  0.00    -0.166 F 
ATOM     18  F   UNL     1      32.031 -20.089 -19.366  0.00  0.00    -0.166 F 
ATOM     19  F   UNL     1      32.265 -22.140 -20.047  0.00  0.00    -0.166 F 
ATOM     20  C   UNL     1      32.476 -21.319 -18.979  0.00  0.00    +0.418 C 
ENDBRANCH  12  20
BRANCH  11  21
ATOM     21  C   UNL     1      34.609 -20.285 -20.703  0.00  0.00    +0.026 C 
BRANCH  21  22
ATOM     22  C   UNL     1      34.749 -18.758 -20.759  0.00  0.00    +0.005 C 
ATOM     23  C   UNL     1      36.074 -18.333 -21.370  0.00  0.00    +0.000 C 
ENDBRANCH  21  22
ENDBRANCH  11  21
ENDBRANCH   8  13
ENDBRANCH   1   9
BRANCH   2  24
ATOM     24  N   UNL     1      33.699 -24.321 -12.957  0.00  0.00    -0.329 N 
ATOM     25  H   UNL     1      33.372 -25.206 -13.238  0.00  0.00    +0.147 HD
BRANCH  24  26
ATOM     26  C   UNL     1      32.748 -23.247 -12.869  0.00  0.00    +0.116 C 
BRANCH  26  29
ATOM     27  O   UNL     1      28.278 -24.395 -15.963  0.00  0.00    -0.270 OA
ATOM     28  N   UNL     1      29.727 -24.997 -14.267  0.00  0.00    -0.280 N 
ATOM     29  C   UNL     1      31.540 -23.598 -13.676  0.00  0.00    +0.012 C 
ATOM     30  C   UNL     1      30.831 -24.722 -13.498  0.00  0.00    +0.061 C 
ATOM     31  C   UNL     1      31.119 -22.667 -14.704  0.00  0.00    +0.003 C 
ATOM     32  C   UNL     1      30.047 -22.908 -15.471  0.00  0.00    +0.058 C 
ATOM     33  C   UNL     1      29.263 -24.159 -15.268  0.00  0.00    +0.250 C 
ATOM     34  H   UNL     1      29.239 -25.835 -14.098  0.00  0.00    +0.155 HD
ENDBRANCH  26  29
ENDBRANCH  24  26
ENDBRANCH   2  24
TORSDOF 8
ENDMDL
MODEL 3
REMARK VINA RESULT:     -11.7      2.309      5.374
REMARK  Name = 10477723
REMARK  8 active torsions:
REMARK  status: ('A' for Active; 'I' for Inactive)
REMARK    1  A    between atoms: C_1  and  C_9
REMARK    2  A    between atoms: C_2  and  N_24
REMARK    3  A    between atoms: N_8  and  C_13
REMARK    4  A    between atoms: C_11  and  C_21
REMARK    5  A    between atoms: C_12  and  C_20
REMARK    6  A    between atoms: C_21  and  C_22
REMARK    7  A    between atoms: N_24  and  C_26
REMARK    8  A    between atoms: C_26  and  C_29
REMARK                            x       y       z     vdW  Elec       q    Type
REMARK                         _______ _______ _______ _____ _____    ______ ____
ROOT
ATOM      1  C   UNL     1      30.692 -23.316 -15.469  0.00  0.00    +0.067 C 
ATOM      2  C   UNL     1      31.051 -24.274 -14.504  0.00  0.00    +0.049 C 
ATOM      3  C   UNL     1      29.357 -23.133 -15.831  0.00  0.00    +0.006 C 
ATOM      4  C   UNL     1      30.032 -25.041 -13.912  0.00  0.00    +0.014 C 
ATOM      5  C   UNL     1      28.360 -23.904 -15.234  0.00  0.00    +0.000 C 
ATOM      6  C   UNL     1      28.697 -24.858 -14.274  0.00  0.00    +0.001 C 
ENDROOT
BRANCH   1   9
ATOM      7  O   UNL     1      32.640 -22.045 -15.427  0.00  0.00    -0.270 OA
ATOM      8  N   UNL     1      31.555 -22.302 -17.491  0.00  0.00    -0.280 N 
ATOM      9  C   UNL     1      31.709 -22.494 -16.113  0.00  0.00    +0.251 C 
ATOM     10  H   UNL     1      30.762 -22.723 -17.897  0.00  0.00    +0.155 HD
BRANCH   8  13
ATOM     11  C   UNL     1      34.021 -20.167 -20.113  0.00  0.00    -0.018 C 
ATOM     12  C   UNL     1      34.585 -20.951 -19.106  0.00  0.00    +0.069 C 
ATOM     13  C   UNL     1      32.390 -21.580 -18.378  0.00  0.00    +0.050 C 
ATOM     14  C   UNL     1      32.634 -20.095 -20.245  0.00  0.00    -0.003 C 
ATOM     15  C   UNL     1      33.764 -21.662 -18.232  0.00  0.00    +0.018 C 
ATOM     16  C   UNL     1      31.812 -20.806 -19.371  0.00  0.00    +0.014 C 
BRANCH  12  20
ATOM     17  F   UNL     1      36.690 -21.674 -19.985  0.00  0.00    -0.166 F 
ATOM     18  F   UNL     1      36.682 -19.828 -18.845  0.00  0.00    -0.166 F 
ATOM     19  F   UNL     1      36.431 -21.733 -17.826  0.00  0.00    -0.166 F 
ATOM     20  C   UNL     1      36.068 -21.043 -18.946  0.00  0.00    +0.418 C 
ENDBRANCH  12  20
BRANCH  11  21
ATOM     21  C   UNL     1      34.881 -19.397 -21.060  0.00  0.00    +0.026 C 
BRANCH  21  22
ATOM     22  C   UNL     1      34.126 -18.998 -22.335  0.00  0.00    +0.005 C 
ATOM     23  C   UNL     1      34.541 -17.623 -22.833  0.00  0.00    +0.000 C 
ENDBRANCH  21  22
ENDBRANCH  11  21
ENDBRANCH   8  13
ENDBRANCH   1   9
BRANCH   2  24
ATOM     24  N   UNL     1      32.374 -24.472 -14.129  0.00  0.00    -0.329 N 
ATOM     25  H   UNL     1      32.943 -25.023 -14.714  0.00  0.00    +0.147 HD
BRANCH  24  26
ATOM     26  C   UNL     1      32.964 -23.920 -12.940  0.00  0.00    +0.116 C 
BRANCH  26  29
ATOM     27  O   UNL     1      38.454 -23.715 -13.773  0.00  0.00    -0.270 OA
ATOM     28  N   UNL     1      36.634 -23.286 -12.417  0.00  0.00    -0.280 N 
ATOM     29  C   UNL     1      34.446 -23.844 -13.120  0.00  0.00    +0.012 C 
ATOM     30  C   UNL     1      35.278 -23.331 -12.202  0.00  0.00    +0.061 C 
ATOM     31  C   UNL     1      35.005 -24.355 -14.356  0.00  0.00    +0.003 C 
ATOM     32  C   UNL     1      36.323 -24.323 -14.594  0.00  0.00    +0.058 C 
ATOM     33  C   UNL     1      37.243 -23.752 -13.569  0.00  0.00    +0.250 C 
ATOM     34  H   UNL     1      37.204 -22.901 -11.712  0.00  0.00    +0.155 HD
ENDBRANCH  26  29
ENDBRANCH  24  26
ENDBRANCH   2  24
TORSDOF 8
ENDMDL
MODEL 4
REMARK VINA RESULT:     -11.6      1.967      2.525
REMARK  Name = 10477723
REMARK  8 active torsions:
REMARK  status: ('A' for Active; 'I' for Inactive)
REMARK    1  A    between atoms: C_1  and  C_9
REMARK    2  A    between atoms: C_2  and  N_24
REMARK    3  A    between atoms: N_8  and  C_13
REMARK    4  A    between atoms: C_11  and  C_21
REMARK    5  A    between atoms: C_12  and  C_20
REMARK    6  A    between atoms: C_21  and  C_22
REMARK    7  A    between atoms: N_24  and  C_26
REMARK    8  A    between atoms: C_26  and  C_29
REMARK                            x       y       z     vdW  Elec       q    Type
REMARK                         _______ _______ _______ _____ _____    ______ ____
ROOT
ATOM      1  C   UNL     1      37.129 -22.734 -15.335  0.00  0.00    +0.067 C 
ATOM      2  C   UNL     1      36.173 -23.172 -14.401  0.00  0.00    +0.049 C 
ATOM      3  C   UNL     1      38.407 -23.294 -15.365  0.00  0.00    +0.006 C 
ATOM      4  C   UNL     1      36.535 -24.189 -13.500  0.00  0.00    +0.014 C 
ATOM      5  C   UNL     1      38.748 -24.301 -14.462  0.00  0.00    +0.000 C 
ATOM      6  C   UNL     1      37.812 -24.749 -13.530  0.00  0.00    +0.001 C 
ENDROOT
BRANCH   1   9
ATOM      7  O   UNL     1      37.257 -20.542 -16.104  0.00  0.00    -0.270 OA
ATOM      8  N   UNL     1      36.012 -22.070 -17.377  0.00  0.00    -0.280 N 
ATOM      9  C   UNL     1      36.805 -21.683 -16.290  0.00  0.00    +0.251 C 
ATOM     10  H   UNL     1      35.730 -23.013 -17.387  0.00  0.00    +0.155 HD
BRANCH   8  13
ATOM     11  C   UNL     1      34.688 -19.740 -20.591  0.00  0.00    -0.018 C 
ATOM     12  C   UNL     1      33.772 -20.476 -19.838  0.00  0.00    +0.069 C 
ATOM     13  C   UNL     1      35.563 -21.282 -18.465  0.00  0.00    +0.050 C 
ATOM     14  C   UNL     1      36.045 -19.782 -20.272  0.00  0.00    -0.003 C 
ATOM     15  C   UNL     1      34.213 -21.252 -18.767  0.00  0.00    +0.018 C 
ATOM     16  C   UNL     1      36.486 -20.559 -19.201  0.00  0.00    +0.014 C 
BRANCH  12  20
ATOM     17  F   UNL     1      31.559 -19.812 -19.216  0.00  0.00    -0.166 F 
ATOM     18  F   UNL     1      32.028 -19.808 -21.333  0.00  0.00    -0.166 F 
ATOM     19  F   UNL     1      31.779 -21.695 -20.282  0.00  0.00    -0.166 F 
ATOM     20  C   UNL     1      32.313 -20.446 -20.161  0.00  0.00    +0.418 C 
ENDBRANCH  12  20
BRANCH  11  21
ATOM     21  C   UNL     1      34.238 -18.901 -21.742  0.00  0.00    +0.026 C 
BRANCH  21  22
ATOM     22  C   UNL     1      35.198 -17.736 -22.019  0.00  0.00    +0.005 C 
ATOM     23  C   UNL     1      34.647 -16.414 -21.509  0.00  0.00    +0.000 C 
ENDBRANCH  21  22
ENDBRANCH  11  21
ENDBRANCH   8  13
ENDBRANCH   1   9
BRANCH   2  24
ATOM     24  N   UNL     1      34.895 -22.627 -14.354  0.00  0.00    -0.329 N 
ATOM     25  H   UNL     1      34.766 -21.719 -14.712  0.00  0.00    +0.147 HD
BRANCH  24  26
ATOM     26  C   UNL     1      33.751 -23.309 -13.816  0.00  0.00    +0.116 C 
BRANCH  26  29
ATOM     27  O   UNL     1      29.206 -22.121 -16.786  0.00  0.00    -0.270 OA
ATOM     28  N   UNL     1      31.463 -22.610 -16.719  0.00  0.00    -0.280 N 
ATOM     29  C   UNL     1      32.555 -22.993 -14.656  0.00  0.00    +0.012 C 
ATOM     30  C   UNL     1      32.592 -22.904 -15.994  0.00  0.00    +0.061 C 
ATOM     31  C   UNL     1      31.292 -22.771 -13.980  0.00  0.00    +0.003 C 
ATOM     32  C   UNL     1      30.175 -22.483 -14.660  0.00  0.00    +0.058 C 
ATOM     33  C   UNL     1      30.222 -22.385 -16.148  0.00  0.00    +0.250 C 
ATOM     34  H   UNL     1      31.541 -22.557 -17.699  0.00  0.00    +0.155 HD
ENDBRANCH  26  29
ENDBRANCH  24  26
ENDBRANCH   2  24
TORSDOF 8
ENDMDL
MODEL 5
REMARK VINA RESULT:     -11.2      9.656     13.373
REMARK  Name = 10477723
REMARK  8 active torsions:
REMARK  status: ('A' for Active; 'I' for Inactive)
REMARK    1  A    between atoms: C_1  and  C_9
REMARK    2  A    between atoms: C_2  and  N_24
REMARK    3  A    between atoms: N_8  and  C_13
REMARK    4  A    between atoms: C_11  and  C_21
REMARK    5  A    between atoms: C_12  and  C_20
REMARK    6  A    between atoms: C_21  and  C_22
REMARK    7  A    between atoms: N_24  and  C_26
REMARK    8  A    between atoms: C_26  and  C_29
REMARK                            x       y       z     vdW  Elec       q    Type
REMARK                         _______ _______ _______ _____ _____    ______ ____
ROOT
ATOM      1  C   UNL     1      31.522 -10.150 -20.736  0.00  0.00    +0.067 C 
ATOM      2  C   UNL     1      31.599  -8.980 -21.513  0.00  0.00    +0.049 C 
ATOM      3  C   UNL     1      31.272 -10.082 -19.365  0.00  0.00    +0.006 C 
ATOM      4  C   UNL     1      31.417  -7.741 -20.874  0.00  0.00    +0.014 C 
ATOM      5  C   UNL     1      31.096  -8.844 -18.749  0.00  0.00    +0.000 C 
ATOM      6  C   UNL     1      31.168  -7.672 -19.504  0.00  0.00    +0.001 C 
ENDROOT
BRANCH   1   9
ATOM      7  O   UNL     1      30.854 -11.867 -22.157  0.00  0.00    -0.270 OA
ATOM      8  N   UNL     1      32.864 -12.150 -20.980  0.00  0.00    -0.280 N 
ATOM      9  C   UNL     1      31.703 -11.460 -21.349  0.00  0.00    +0.251 C 
ATOM     10  H   UNL     1      33.443 -11.697 -20.326  0.00  0.00    +0.155 HD
BRANCH   8  13
ATOM     11  C   UNL     1      34.194 -15.894 -22.294  0.00  0.00    -0.018 C 
ATOM     12  C   UNL     1      33.672 -14.979 -23.209  0.00  0.00    +0.069 C 
ATOM     13  C   UNL     1      33.314 -13.417 -21.426  0.00  0.00    +0.050 C 
ATOM     14  C   UNL     1      34.272 -15.561 -20.942  0.00  0.00    -0.003 C 
ATOM     15  C   UNL     1      33.229 -13.731 -22.771  0.00  0.00    +0.018 C 
ATOM     16  C   UNL     1      33.829 -14.314 -20.504  0.00  0.00    +0.014 C 
BRANCH  12  20
ATOM     17  F   UNL     1      32.747 -16.363 -24.927  0.00  0.00    -0.166 F 
ATOM     18  F   UNL     1      33.112 -14.285 -25.428  0.00  0.00    -0.166 F 
ATOM     19  F   UNL     1      34.785 -15.655 -25.198  0.00  0.00    -0.166 F 
ATOM     20  C   UNL     1      33.579 -15.313 -24.662  0.00  0.00    +0.418 C 
ENDBRANCH  12  20
BRANCH  11  21
ATOM     21  C   UNL     1      34.675 -17.236 -22.740  0.00  0.00    +0.026 C 
BRANCH  21  22
ATOM     22  C   UNL     1      35.278 -18.049 -21.586  0.00  0.00    +0.005 C 
ATOM     23  C   UNL     1      36.780 -18.224 -21.740  0.00  0.00    +0.000 C 
ENDBRANCH  21  22
ENDBRANCH  11  21
ENDBRANCH   8  13
ENDBRANCH   1   9
BRANCH   2  24
ATOM     24  N   UNL     1      31.847  -9.026 -22.879  0.00  0.00    -0.329 N 
ATOM     25  H   UNL     1      31.167  -9.439 -23.459  0.00  0.00    +0.147 HD
BRANCH  24  26
ATOM     26  C   UNL     1      33.035  -8.506 -23.498  0.00  0.00    +0.116 C 
BRANCH  26  29
ATOM     27  O   UNL     1      32.320  -3.173 -24.887  0.00  0.00    -0.270 OA
ATOM     28  N   UNL     1      31.512  -5.337 -24.834  0.00  0.00    -0.280 N 
ATOM     29  C   UNL     1      32.799  -7.082 -23.889  0.00  0.00    +0.012 C 
ATOM     30  C   UNL     1      31.680  -6.658 -24.495  0.00  0.00    +0.061 C 
ATOM     31  C   UNL     1      33.839  -6.117 -23.595  0.00  0.00    +0.003 C 
ATOM     32  C   UNL     1      33.704  -4.823 -23.914  0.00  0.00    +0.058 C 
ATOM     33  C   UNL     1      32.458  -4.357 -24.587  0.00  0.00    +0.250 C 
ATOM     34  H   UNL     1      30.673  -5.074 -25.276  0.00  0.00    +0.155 HD
ENDBRANCH  26  29
ENDBRANCH  24  26
ENDBRANCH   2  24
TORSDOF 8
ENDMDL
MODEL 6
REMARK VINA RESULT:     -10.9      3.620      7.463
REMARK  Name = 10477723
REMARK  8 active torsions:
REMARK  status: ('A' for Active; 'I' for Inactive)
REMARK    1  A    between atoms: C_1  and  C_9
REMARK    2  A    between atoms: C_2  and  N_24
REMARK    3  A    between atoms: N_8  and  C_13
REMARK    4  A    between atoms: C_11  and  C_21
REMARK    5  A    between atoms: C_12  and  C_20
REMARK    6  A    between atoms: C_21  and  C_22
REMARK    7  A    between atoms: N_24  and  C_26
REMARK    8  A    between atoms: C_26  and  C_29
REMARK                            x       y       z     vdW  Elec       q    Type
REMARK                         _______ _______ _______ _____ _____    ______ ____
ROOT
ATOM      1  C   UNL     1      34.111 -21.673 -18.278  0.00  0.00    +0.067 C 
ATOM      2  C   UNL     1      32.764 -21.612 -18.677  0.00  0.00    +0.049 C 
ATOM      3  C   UNL     1      35.094 -20.966 -18.972  0.00  0.00    +0.006 C 
ATOM      4  C   UNL     1      32.432 -20.821 -19.792  0.00  0.00    +0.014 C 
ATOM      5  C   UNL     1      34.745 -20.188 -20.076  0.00  0.00    +0.000 C 
ATOM      6  C   UNL     1      33.414 -20.115 -20.485  0.00  0.00    +0.001 C 
ENDROOT
BRANCH   1   9
ATOM      7  O   UNL     1      33.899 -23.532 -16.897  0.00  0.00    -0.270 OA
ATOM      8  N   UNL     1      35.591 -21.988 -16.388  0.00  0.00    -0.280 N 
ATOM      9  C   UNL     1      34.509 -22.478 -17.131  0.00  0.00    +0.251 C 
ATOM     10  H   UNL     1      35.972 -21.135 -16.698  0.00  0.00    +0.155 HD
BRANCH   8  13
ATOM     11  C   UNL     1      37.411 -23.680 -13.021  0.00  0.00    -0.018 C 
ATOM     12  C   UNL     1      37.973 -23.865 -14.285  0.00  0.00    +0.069 C 
ATOM     13  C   UNL     1      36.208 -22.561 -15.249  0.00  0.00    +0.050 C 
ATOM     14  C   UNL     1      36.243 -22.931 -12.881  0.00  0.00    -0.003 C 
ATOM     15  C   UNL     1      37.366 -23.302 -15.407  0.00  0.00    +0.018 C 
ATOM     16  C   UNL     1      35.637 -22.367 -14.003  0.00  0.00    +0.014 C 
BRANCH  12  20
ATOM     17  F   UNL     1      40.232 -24.288 -13.620  0.00  0.00    -0.166 F 
ATOM     18  F   UNL     1      39.052 -25.999 -14.239  0.00  0.00    -0.166 F 
ATOM     19  F   UNL     1      39.736 -24.562 -15.720  0.00  0.00    -0.166 F 
ATOM     20  C   UNL     1      39.223 -24.664 -14.460  0.00  0.00    +0.418 C 
ENDBRANCH  12  20
BRANCH  11  21
ATOM     21  C   UNL     1      38.044 -24.274 -11.806  0.00  0.00    +0.026 C 
BRANCH  21  22
ATOM     22  C   UNL     1      37.242 -25.462 -11.257  0.00  0.00    +0.005 C 
ATOM     23  C   UNL     1      36.706 -26.348 -12.371  0.00  0.00    +0.000 C 
ENDBRANCH  21  22
ENDBRANCH  11  21
ENDBRANCH   8  13
ENDBRANCH   1   9
BRANCH   2  24
ATOM     24  N   UNL     1      31.770 -22.309 -18.001  0.00  0.00    -0.329 N 
ATOM     25  H   UNL     1      31.710 -23.281 -18.140  0.00  0.00    +0.147 HD
BRANCH  24  26
ATOM     26  C   UNL     1      30.825 -21.695 -17.109  0.00  0.00    +0.116 C 
BRANCH  26  29
ATOM     27  O   UNL     1      30.503 -24.717 -12.456  0.00  0.00    -0.270 OA
ATOM     28  N   UNL     1      29.728 -24.258 -14.583  0.00  0.00    -0.280 N 
ATOM     29  C   UNL     1      30.702 -22.534 -15.876  0.00  0.00    +0.012 C 
ATOM     30  C   UNL     1      29.799 -23.517 -15.737  0.00  0.00    +0.061 C 
ATOM     31  C   UNL     1      31.610 -22.264 -14.780  0.00  0.00    +0.003 C 
ATOM     32  C   UNL     1      31.563 -22.970 -13.643  0.00  0.00    +0.058 C 
ATOM     33  C   UNL     1      30.558 -24.061 -13.493  0.00  0.00    +0.250 C 
ATOM     34  H   UNL     1      29.049 -24.969 -14.529  0.00  0.00    +0.155 HD
ENDBRANCH  26  29
ENDBRANCH  24  26
ENDBRANCH   2  24
TORSDOF 8
ENDMDL
MODEL 7
REMARK VINA RESULT:     -10.6     11.719     14.852
REMARK  Name = 10477723
REMARK  8 active torsions:
REMARK  status: ('A' for Active; 'I' for Inactive)
REMARK    1  A    between atoms: C_1  and  C_9
REMARK    2  A    between atoms: C_2  and  N_24
REMARK    3  A    between atoms: N_8  and  C_13
REMARK    4  A    between atoms: C_11  and  C_21
REMARK    5  A    between atoms: C_12  and  C_20
REMARK    6  A    between atoms: C_21  and  C_22
REMARK    7  A    between atoms: N_24  and  C_26
REMARK    8  A    between atoms: C_26  and  C_29
REMARK                            x       y       z     vdW  Elec       q    Type
REMARK                         _______ _______ _______ _____ _____    ______ ____
ROOT
ATOM      1  C   UNL     1      31.439  -8.873 -21.284  0.00  0.00    +0.067 C 
ATOM      2  C   UNL     1      31.640 -10.239 -21.555  0.00  0.00    +0.049 C 
ATOM      3  C   UNL     1      31.254  -8.424 -19.976  0.00  0.00    +0.006 C 
ATOM      4  C   UNL     1      31.650 -11.140 -20.475  0.00  0.00    +0.014 C 
ATOM      5  C   UNL     1      31.267  -9.333 -18.918  0.00  0.00    +0.000 C 
ATOM      6  C   UNL     1      31.466 -10.691 -19.168  0.00  0.00    +0.001 C 
ENDROOT
BRANCH   1   9
ATOM      7  O   UNL     1      30.548  -7.994 -23.245  0.00  0.00    -0.270 OA
ATOM      8  N   UNL     1      32.395  -6.896 -22.302  0.00  0.00    -0.280 N 
ATOM      9  C   UNL     1      31.419  -7.898 -22.366  0.00  0.00    +0.251 C 
ATOM     10  H   UNL     1      33.018  -6.952 -21.542  0.00  0.00    +0.155 HD
BRANCH   8  13
ATOM     11  C   UNL     1      33.007  -3.689 -24.921  0.00  0.00    -0.018 C 
ATOM     12  C   UNL     1      33.739  -4.867 -25.077  0.00  0.00    +0.069 C 
ATOM     13  C   UNL     1      32.603  -5.811 -23.189  0.00  0.00    +0.050 C 
ATOM     14  C   UNL     1      32.072  -3.581 -23.892  0.00  0.00    -0.003 C 
ATOM     15  C   UNL     1      33.535  -5.936 -24.204  0.00  0.00    +0.018 C 
ATOM     16  C   UNL     1      31.868  -4.650 -23.019  0.00  0.00    +0.014 C 
BRANCH  12  20
ATOM     17  F   UNL     1      35.792  -4.134 -26.064  0.00  0.00    -0.166 F 
ATOM     18  F   UNL     1      35.317  -6.244 -26.232  0.00  0.00    -0.166 F 
ATOM     19  F   UNL     1      34.210  -4.787 -27.407  0.00  0.00    -0.166 F 
ATOM     20  C   UNL     1      34.746  -5.006 -26.172  0.00  0.00    +0.418 C 
ENDBRANCH  12  20
BRANCH  11  21
ATOM     21  C   UNL     1      33.208  -2.533 -25.844  0.00  0.00    +0.026 C 
BRANCH  21  22
ATOM     22  C   UNL     1      31.940  -2.201 -26.643  0.00  0.00    +0.005 C 
ATOM     23  C   UNL     1      32.172  -2.301 -28.141  0.00  0.00    +0.000 C 
ENDBRANCH  21  22
ENDBRANCH  11  21
ENDBRANCH   8  13
ENDBRANCH   1   9
BRANCH   2  24
ATOM     24  N   UNL     1      31.825 -10.706 -22.850  0.00  0.00    -0.329 N 
ATOM     25  H   UNL     1      31.027 -10.866 -23.403  0.00  0.00    +0.147 HD
BRANCH  24  26
ATOM     26  C   UNL     1      33.112 -10.969 -23.432  0.00  0.00    +0.116 C 
BRANCH  26  29
ATOM     27  O   UNL     1      33.432 -16.349 -24.789  0.00  0.00    -0.270 OA
ATOM     28  N   UNL     1      32.842 -14.189 -25.358  0.00  0.00    -0.280 N 
ATOM     29  C   UNL     1      33.179 -12.406 -23.841  0.00  0.00    +0.012 C 
ATOM     30  C   UNL     1      32.758 -12.857 -25.032  0.00  0.00    +0.061 C 
ATOM     31  C   UNL     1      33.729 -13.355 -22.893  0.00  0.00    +0.003 C 
ATOM     32  C   UNL     1      33.823 -14.659 -23.183  0.00  0.00    +0.058 C 
ATOM     33  C   UNL     1      33.354 -15.155 -24.509  0.00  0.00    +0.250 C 
ATOM     34  H   UNL     1      32.521 -14.471 -26.245  0.00  0.00    +0.155 HD
ENDBRANCH  26  29
ENDBRANCH  24  26
ENDBRANCH   2  24
TORSDOF 8
ENDMDL
MODEL 8
REMARK VINA RESULT:     -10.5     12.323     16.497
REMARK  Name = 10477723
REMARK  8 active torsions:
REMARK  status: ('A' for Active; 'I' for Inactive)
REMARK    1  A    between atoms: C_1  and  C_9
REMARK    2  A    between atoms: C_2  and  N_24
REMARK    3  A    between atoms: N_8  and  C_13
REMARK    4  A    between atoms: C_11  and  C_21
REMARK    5  A    between atoms: C_12  and  C_20
REMARK    6  A    between atoms: C_21  and  C_22
REMARK    7  A    between atoms: N_24  and  C_26
REMARK    8  A    between atoms: C_26  and  C_29
REMARK                            x       y       z     vdW  Elec       q    Type
REMARK                         _______ _______ _______ _____ _____    ______ ____
ROOT
ATOM      1  C   UNL     1      31.545  -5.478 -21.908  0.00  0.00    +0.067 C 
ATOM      2  C   UNL     1      32.295  -4.803 -22.887  0.00  0.00    +0.049 C 
ATOM      3  C   UNL     1      30.387  -4.910 -21.377  0.00  0.00    +0.006 C 
ATOM      4  C   UNL     1      31.849  -3.541 -23.319  0.00  0.00    +0.014 C 
ATOM      5  C   UNL     1      29.961  -3.656 -21.816  0.00  0.00    +0.000 C 
ATOM      6  C   UNL     1      30.691  -2.972 -22.788  0.00  0.00    +0.001 C 
ENDROOT
BRANCH   1   9
ATOM      7  O   UNL     1      32.820  -6.853 -20.530  0.00  0.00    -0.270 OA
ATOM      8  N   UNL     1      31.326  -7.887 -22.016  0.00  0.00    -0.280 N 
ATOM      9  C   UNL     1      31.964  -6.788 -21.426  0.00  0.00    +0.251 C 
ATOM     10  H   UNL     1      30.667  -7.675 -22.716  0.00  0.00    +0.155 HD
BRANCH   8  13
ATOM     11  C   UNL     1      31.859 -11.955 -21.188  0.00  0.00    -0.018 C 
ATOM     12  C   UNL     1      32.205 -11.446 -22.440  0.00  0.00    +0.069 C 
ATOM     13  C   UNL     1      31.507  -9.264 -21.736  0.00  0.00    +0.050 C 
ATOM     14  C   UNL     1      31.335 -11.107 -20.212  0.00  0.00    -0.003 C 
ATOM     15  C   UNL     1      32.027 -10.091 -22.716  0.00  0.00    +0.018 C 
ATOM     16  C   UNL     1      31.158  -9.751 -20.488  0.00  0.00    +0.014 C 
BRANCH  12  20
ATOM     17  F   UNL     1      32.130 -13.540 -23.597  0.00  0.00    -0.166 F 
ATOM     18  F   UNL     1      32.704 -11.797 -24.753  0.00  0.00    -0.166 F 
ATOM     19  F   UNL     1      34.083 -12.630 -23.293  0.00  0.00    -0.166 F 
ATOM     20  C   UNL     1      32.767 -12.336 -23.501  0.00  0.00    +0.418 C 
ENDBRANCH  12  20
BRANCH  11  21
ATOM     21  C   UNL     1      32.040 -13.402 -20.870  0.00  0.00    +0.026 C 
BRANCH  21  22
ATOM     22  C   UNL     1      33.470 -13.720 -20.409  0.00  0.00    +0.005 C 
ATOM     23  C   UNL     1      34.021 -14.963 -21.087  0.00  0.00    +0.000 C 
ENDBRANCH  21  22
ENDBRANCH  11  21
ENDBRANCH   8  13
ENDBRANCH   1   9
BRANCH   2  24
ATOM     24  N   UNL     1      33.451  -5.352 -23.429  0.00  0.00    -0.329 N 
ATOM     25  H   UNL     1      34.311  -5.132 -23.003  0.00  0.00    +0.147 HD
BRANCH  24  26
ATOM     26  C   UNL     1      33.467  -6.221 -24.573  0.00  0.00    +0.116 C 
BRANCH  26  29
ATOM     27  O   UNL     1      34.918  -3.172 -28.986  0.00  0.00    -0.270 OA
ATOM     28  N   UNL     1      33.595  -4.826 -28.063  0.00  0.00    -0.280 N 
ATOM     29  C   UNL     1      33.824  -5.424 -25.787  0.00  0.00    +0.012 C 
ATOM     30  C   UNL     1      33.230  -5.585 -26.978  0.00  0.00    +0.061 C 
ATOM     31  C   UNL     1      34.868  -4.427 -25.659  0.00  0.00    +0.003 C 
ATOM     32  C   UNL     1      35.246  -3.673 -26.700  0.00  0.00    +0.058 C 
ATOM     33  C   UNL     1      34.582  -3.856 -28.022  0.00  0.00    +0.250 C 
ATOM     34  H   UNL     1      33.129  -4.981 -28.917  0.00  0.00    +0.155 HD
ENDBRANCH  26  29
ENDBRANCH  24  26
ENDBRANCH   2  24
TORSDOF 8
ENDMDL
MODEL 9
REMARK VINA RESULT:     -10.4      2.325      3.134
REMARK  Name = 10477723
REMARK  8 active torsions:
REMARK  status: ('A' for Active; 'I' for Inactive)
REMARK    1  A    between atoms: C_1  and  C_9
REMARK    2  A    between atoms: C_2  and  N_24
REMARK    3  A    between atoms: N_8  and  C_13
REMARK    4  A    between atoms: C_11  and  C_21
REMARK    5  A    between atoms: C_12  and  C_20
REMARK    6  A    between atoms: C_21  and  C_22
REMARK    7  A    between atoms: N_24  and  C_26
REMARK    8  A    between atoms: C_26  and  C_29
REMARK                            x       y       z     vdW  Elec       q    Type
REMARK                         _______ _______ _______ _____ _____    ______ ____
ROOT
ATOM      1  C   UNL     1      34.826 -21.539 -18.090  0.00  0.00    +0.067 C 
ATOM      2  C   UNL     1      33.986 -22.330 -17.285  0.00  0.00    +0.049 C 
ATOM      3  C   UNL     1      36.134 -21.258 -17.696  0.00  0.00    +0.006 C 
ATOM      4  C   UNL     1      34.498 -22.830 -16.074  0.00  0.00    +0.014 C 
ATOM      5  C   UNL     1      36.624 -21.762 -16.491  0.00  0.00    +0.000 C 
ATOM      6  C   UNL     1      35.806 -22.549 -15.681  0.00  0.00    +0.001 C 
ENDROOT
BRANCH   1   9
ATOM      7  O   UNL     1      33.369 -21.530 -19.904  0.00  0.00    -0.270 OA
ATOM      8  N   UNL     1      35.029 -19.872 -19.834  0.00  0.00    -0.280 N 
ATOM      9  C   UNL     1      34.345 -20.996 -19.353  0.00  0.00    +0.251 C 
ATOM     10  H   UNL     1      35.785 -19.564 -19.284  0.00  0.00    +0.155 HD
BRANCH   8  13
ATOM     11  C   UNL     1      34.279 -17.660 -23.306  0.00  0.00    -0.018 C 
ATOM     12  C   UNL     1      34.397 -17.011 -22.077  0.00  0.00    +0.069 C 
ATOM     13  C   UNL     1      34.775 -19.123 -21.009  0.00  0.00    +0.050 C 
ATOM     14  C   UNL     1      34.410 -19.047 -23.377  0.00  0.00    -0.003 C 
ATOM     15  C   UNL     1      34.648 -17.748 -20.919  0.00  0.00    +0.018 C 
ATOM     16  C   UNL     1      34.660 -19.784 -22.220  0.00  0.00    +0.014 C 
BRANCH  12  20
ATOM     17  F   UNL     1      33.001 -15.076 -22.248  0.00  0.00    -0.166 F 
ATOM     18  F   UNL     1      34.557 -15.035 -20.738  0.00  0.00    -0.166 F 
ATOM     19  F   UNL     1      35.083 -14.865 -22.841  0.00  0.00    -0.166 F 
ATOM     20  C   UNL     1      34.261 -15.526 -21.976  0.00  0.00    +0.418 C 
ENDBRANCH  12  20
BRANCH  11  21
ATOM     21  C   UNL     1      34.011 -16.891 -24.558  0.00  0.00    +0.026 C 
BRANCH  21  22
ATOM     22  C   UNL     1      32.527 -16.915 -24.947  0.00  0.00    +0.005 C 
ATOM     23  C   UNL     1      32.019 -18.332 -25.159  0.00  0.00    +0.000 C 
ENDBRANCH  21  22
ENDBRANCH  11  21
ENDBRANCH   8  13
ENDBRANCH   1   9
BRANCH   2  24
ATOM     24  N   UNL     1      32.680 -22.621 -17.659  0.00  0.00    -0.329 N 
ATOM     25  H   UNL     1      32.538 -23.305 -18.353  0.00  0.00    +0.147 HD
BRANCH  24  26
ATOM     26  C   UNL     1      31.522 -21.986 -17.092  0.00  0.00    +0.116 C 
BRANCH  26  29
ATOM     27  O   UNL     1      30.166 -24.531 -12.341  0.00  0.00    -0.270 OA
ATOM     28  N   UNL     1      30.097 -24.467 -14.650  0.00  0.00    -0.280 N 
ATOM     29  C   UNL     1      31.134 -22.706 -15.839  0.00  0.00    +0.012 C 
ATOM     30  C   UNL     1      30.427 -23.846 -15.829  0.00  0.00    +0.061 C 
ATOM     31  C   UNL     1      31.550 -22.135 -14.574  0.00  0.00    +0.003 C 
ATOM     32  C   UNL     1      31.243 -22.718 -13.408  0.00  0.00    +0.058 C 
ATOM     33  C   UNL     1      30.456 -23.985 -13.403  0.00  0.00    +0.250 C 
ATOM     34  H   UNL     1      29.577 -25.302 -14.694  0.00  0.00    +0.155 HD
ENDBRANCH  26  29
ENDBRANCH  24  26
ENDBRANCH   2  24
TORSDOF 8
ENDMDL
