MODEL 1
REMARK VINA RESULT:     -11.0      0.000      0.000
REMARK  Name = 24831714
REMARK  9 active torsions:
REMARK  status: ('A' for Active; 'I' for Inactive)
REMARK    1  A    between atoms: C_2  and  C_11
REMARK    2  A    between atoms: C_5  and  C_22
REMARK    3  A    between atoms: C_9  and  O_16
REMARK    4  A    between atoms: C_10  and  O_18
REMARK    5  A    between atoms: C_12  and  O_20
REMARK    6  A    between atoms: C_13  and  S_14
REMARK    7  A    between atoms: C_22  and  C_23
REMARK    8  A    between atoms: C_28  and  O_29
REMARK    9  A    between atoms: O_29  and  C_30
REMARK                            x       y       z     vdW  Elec       q    Type
REMARK                         _______ _______ _______ _____ _____    ______ ____
ROOT
ATOM      1 CL   UNL     1      30.231 -22.136 -17.169  0.00  0.00    -0.083 Cl
ATOM      2  C   UNL     1      33.736 -23.101 -14.491  0.00  0.00    +0.007 C 
ATOM      3  C   UNL     1      33.866 -23.245 -15.872  0.00  0.00    -0.005 C 
ATOM      4  C   UNL     1      32.530 -22.661 -13.947  0.00  0.00    -0.001 C 
ATOM      5  C   UNL     1      32.790 -22.951 -16.709  0.00  0.00    -0.007 C 
ATOM      6  C   UNL     1      31.453 -22.365 -14.783  0.00  0.00    +0.011 C 
ATOM      7  C   UNL     1      31.583 -22.511 -16.165  0.00  0.00    +0.054 C 
ENDROOT
BRANCH   2  11
ATOM      8  O   UNL     1      35.678 -24.447 -14.212  0.00  0.00    -0.338 OA
ATOM      9  C   UNL     1      34.443 -23.879 -12.191  0.00  0.00    +0.171 C 
ATOM     10  C   UNL     1      35.634 -24.332 -11.345  0.00  0.00    +0.170 C 
ATOM     11  C   UNL     1      34.905 -23.423 -13.582  0.00  0.00    +0.168 C 
ATOM     12  C   UNL     1      36.524 -25.316 -12.106  0.00  0.00    +0.177 C 
ATOM     13  C   UNL     1      36.868 -24.770 -13.496  0.00  0.00    +0.192 C 
BRANCH  13  14
ATOM     14  S   UNL     1      37.836 -26.006 -14.434  0.00  0.00    -0.109 S 
ATOM     15  C   UNL     1      39.395 -25.099 -14.507  0.00  0.00    +0.072 C 
ENDBRANCH  13  14
BRANCH   9  16
ATOM     16  O   UNL     1      33.800 -22.788 -11.533  0.00  0.00    -0.379 OA
ATOM     17  H   UNL     1      34.154 -21.952 -11.873  0.00  0.00    +0.211 HD
ENDBRANCH   9  16
BRANCH  10  18
ATOM     18  O   UNL     1      35.131 -24.967 -10.169  0.00  0.00    -0.379 OA
ATOM     19  H   UNL     1      35.537 -25.844 -10.076  0.00  0.00    +0.211 HD
ENDBRANCH  10  18
BRANCH  12  20
ATOM     20  O   UNL     1      37.713 -25.504 -11.337  0.00  0.00    -0.379 OA
ATOM     21  H   UNL     1      38.453 -25.700 -11.931  0.00  0.00    +0.211 HD
ENDBRANCH  12  20
ENDBRANCH   2  11
BRANCH   5  22
ATOM     22  C   UNL     1      32.970 -23.117 -18.184  0.00  0.00    +0.053 C 
BRANCH  22  23
ATOM     23  C   UNL     1      33.633 -21.934 -18.856  0.00  0.00    -0.018 C 
ATOM     24  C   UNL     1      35.014 -21.763 -18.764  0.00  0.00    -0.001 C 
ATOM     25  C   UNL     1      32.862 -21.015 -19.569  0.00  0.00    -0.001 C 
ATOM     26  C   UNL     1      35.625 -20.672 -19.383  0.00  0.00    +0.037 C 
ATOM     27  C   UNL     1      33.472 -19.925 -20.188  0.00  0.00    +0.037 C 
ATOM     28  C   UNL     1      34.854 -19.753 -20.095  0.00  0.00    +0.139 C 
BRANCH  28  29
ATOM     29  O   UNL     1      35.449 -18.689 -20.700  0.00  0.00    -0.475 OA
BRANCH  29  30
ATOM     30  C   UNL     1      34.689 -17.994 -21.687  0.00  0.00    +0.206 C 
ATOM     31  C   UNL     1      34.673 -16.518 -21.348  0.00  0.00    +0.051 C 
ENDBRANCH  29  30
ENDBRANCH  28  29
ENDBRANCH  22  23
ENDBRANCH   5  22
TORSDOF 9
ENDMDL
MODEL 2
REMARK VINA RESULT:     -10.1     11.800     17.665
REMARK  Name = 24831714
REMARK  9 active torsions:
REMARK  status: ('A' for Active; 'I' for Inactive)
REMARK    1  A    between atoms: C_2  and  C_11
REMARK    2  A    between atoms: C_5  and  C_22
REMARK    3  A    between atoms: C_9  and  O_16
REMARK    4  A    between atoms: C_10  and  O_18
REMARK    5  A    between atoms: C_12  and  O_20
REMARK    6  A    between atoms: C_13  and  S_14
REMARK    7  A    between atoms: C_22  and  C_23
REMARK    8  A    between atoms: C_28  and  O_29
REMARK    9  A    between atoms: O_29  and  C_30
REMARK                            x       y       z     vdW  Elec       q    Type
REMARK                         _______ _______ _______ _____ _____    ______ ____
ROOT
ATOM      1 CL   UNL     1      31.581  -9.799 -18.615  0.00  0.00    -0.083 Cl
ATOM      2  C   UNL     1      31.248  -6.888 -22.050  0.00  0.00    +0.007 C 
ATOM      3  C   UNL     1      30.805  -8.200 -22.217  0.00  0.00    -0.005 C 
ATOM      4  C   UNL     1      31.788  -6.484 -20.830  0.00  0.00    -0.001 C 
ATOM      5  C   UNL     1      30.904  -9.109 -21.163  0.00  0.00    -0.007 C 
ATOM      6  C   UNL     1      31.886  -7.392 -19.775  0.00  0.00    +0.011 C 
ATOM      7  C   UNL     1      31.444  -8.704 -19.941  0.00  0.00    +0.054 C 
ENDROOT
BRANCH   2  11
ATOM      8  O   UNL     1      32.374  -5.943 -23.922  0.00  0.00    -0.338 OA
ATOM      9  C   UNL     1      30.858  -4.477 -22.704  0.00  0.00    +0.171 C 
ATOM     10  C   UNL     1      30.899  -3.483 -23.866  0.00  0.00    +0.170 C 
ATOM     11  C   UNL     1      31.143  -5.902 -23.196  0.00  0.00    +0.168 C 
ATOM     12  C   UNL     1      32.162  -3.654 -24.711  0.00  0.00    +0.177 C 
ATOM     13  C   UNL     1      32.363  -5.125 -25.090  0.00  0.00    +0.192 C 
BRANCH  13  14
ATOM     14  S   UNL     1      33.935  -5.330 -26.001  0.00  0.00    -0.109 S 
ATOM     15  C   UNL     1      33.241  -5.533 -27.654  0.00  0.00    +0.072 C 
ENDBRANCH  13  14
BRANCH   9  16
ATOM     16  O   UNL     1      29.560  -4.439 -22.112  0.00  0.00    -0.379 OA
ATOM     17  H   UNL     1      29.609  -3.991 -21.253  0.00  0.00    +0.211 HD
ENDBRANCH   9  16
BRANCH  10  18
ATOM     18  O   UNL     1      30.871  -2.161 -23.325  0.00  0.00    -0.379 OA
ATOM     19  H   UNL     1      30.982  -1.516 -24.042  0.00  0.00    +0.211 HD
ENDBRANCH  10  18
BRANCH  12  20
ATOM     20  O   UNL     1      32.007  -2.855 -25.884  0.00  0.00    -0.379 OA
ATOM     21  H   UNL     1      32.847  -2.418 -26.090  0.00  0.00    +0.211 HD
ENDBRANCH  12  20
ENDBRANCH   2  11
BRANCH   5  22
ATOM     22  C   UNL     1      30.417 -10.506 -21.380  0.00  0.00    +0.053 C 
BRANCH  22  23
ATOM     23  C   UNL     1      31.509 -11.479 -21.768  0.00  0.00    -0.018 C 
ATOM     24  C   UNL     1      31.781 -12.583 -20.959  0.00  0.00    -0.001 C 
ATOM     25  C   UNL     1      32.244 -11.273 -22.936  0.00  0.00    -0.001 C 
ATOM     26  C   UNL     1      32.787 -13.480 -21.317  0.00  0.00    +0.037 C 
ATOM     27  C   UNL     1      33.250 -12.170 -23.294  0.00  0.00    +0.037 C 
ATOM     28  C   UNL     1      33.522 -13.274 -22.485  0.00  0.00    +0.139 C 
BRANCH  28  29
ATOM     29  O   UNL     1      34.504 -14.149 -22.835  0.00  0.00    -0.475 OA
BRANCH  29  30
ATOM     30  C   UNL     1      34.123 -15.511 -23.024  0.00  0.00    +0.206 C 
ATOM     31  C   UNL     1      33.750 -15.722 -24.476  0.00  0.00    +0.051 C 
ENDBRANCH  29  30
ENDBRANCH  28  29
ENDBRANCH  22  23
ENDBRANCH   5  22
TORSDOF 9
ENDMDL
MODEL 3
REMARK VINA RESULT:     -10.1      4.172      7.977
REMARK  Name = 24831714
REMARK  9 active torsions:
REMARK  status: ('A' for Active; 'I' for Inactive)
REMARK    1  A    between atoms: C_2  and  C_11
REMARK    2  A    between atoms: C_5  and  C_22
REMARK    3  A    between atoms: C_9  and  O_16
REMARK    4  A    between atoms: C_10  and  O_18
REMARK    5  A    between atoms: C_12  and  O_20
REMARK    6  A    between atoms: C_13  and  S_14
REMARK    7  A    between atoms: C_22  and  C_23
REMARK    8  A    between atoms: C_28  and  O_29
REMARK    9  A    between atoms: O_29  and  C_30
REMARK                            x       y       z     vdW  Elec       q    Type
REMARK                         _______ _______ _______ _____ _____    ______ ____
ROOT
ATOM      1 CL   UNL     1      36.808 -22.715 -13.530  0.00  0.00    -0.083 Cl
ATOM      2  C   UNL     1      35.379 -21.648 -17.678  0.00  0.00    +0.007 C 
ATOM      3  C   UNL     1      34.581 -22.449 -16.861  0.00  0.00    -0.005 C 
ATOM      4  C   UNL     1      36.607 -21.182 -17.211  0.00  0.00    -0.001 C 
ATOM      5  C   UNL     1      35.013 -22.786 -15.578  0.00  0.00    -0.007 C 
ATOM      6  C   UNL     1      37.039 -21.517 -15.927  0.00  0.00    +0.011 C 
ATOM      7  C   UNL     1      36.242 -22.320 -15.111  0.00  0.00    +0.054 C 
ENDROOT
BRANCH   2  11
ATOM      8  O   UNL     1      35.572 -20.074 -19.453  0.00  0.00    -0.338 OA
ATOM      9  C   UNL     1      33.388 -21.106 -19.139  0.00  0.00    +0.171 C 
ATOM     10  C   UNL     1      32.960 -20.602 -20.518  0.00  0.00    +0.170 C 
ATOM     11  C   UNL     1      34.911 -21.284 -19.072  0.00  0.00    +0.168 C 
ATOM     12  C   UNL     1      33.790 -19.395 -20.960  0.00  0.00    +0.177 C 
ATOM     13  C   UNL     1      35.287 -19.679 -20.793  0.00  0.00    +0.192 C 
BRANCH  13  14
ATOM     14  S   UNL     1      36.259 -18.189 -21.216  0.00  0.00    -0.109 S 
ATOM     15  C   UNL     1      34.930 -16.976 -21.076  0.00  0.00    +0.072 C 
ENDBRANCH  13  14
BRANCH   9  16
ATOM     16  O   UNL     1      32.761 -22.365 -18.896  0.00  0.00    -0.379 OA
ATOM     17  H   UNL     1      32.578 -22.457 -17.947  0.00  0.00    +0.211 HD
ENDBRANCH   9  16
BRANCH  10  18
ATOM     18  O   UNL     1      31.584 -20.226 -20.450  0.00  0.00    -0.379 OA
ATOM     19  H   UNL     1      31.492 -19.290 -20.691  0.00  0.00    +0.211 HD
ENDBRANCH  10  18
BRANCH  12  20
ATOM     20  O   UNL     1      33.482 -19.140 -22.331  0.00  0.00    -0.379 OA
ATOM     21  H   UNL     1      32.534 -18.958 -22.420  0.00  0.00    +0.211 HD
ENDBRANCH  12  20
ENDBRANCH   2  11
BRANCH   5  22
ATOM     22  C   UNL     1      34.129 -23.647 -14.734  0.00  0.00    +0.053 C 
BRANCH  22  23
ATOM     23  C   UNL     1      32.674 -23.231 -14.752  0.00  0.00    -0.018 C 
ATOM     24  C   UNL     1      32.019 -22.924 -13.559  0.00  0.00    -0.001 C 
ATOM     25  C   UNL     1      31.986 -23.154 -15.964  0.00  0.00    -0.001 C 
ATOM     26  C   UNL     1      30.678 -22.541 -13.577  0.00  0.00    +0.037 C 
ATOM     27  C   UNL     1      30.645 -22.771 -15.982  0.00  0.00    +0.037 C 
ATOM     28  C   UNL     1      29.991 -22.465 -14.788  0.00  0.00    +0.139 C 
BRANCH  28  29
ATOM     29  O   UNL     1      28.682 -22.091 -14.806  0.00  0.00    -0.475 OA
BRANCH  29  30
ATOM     30  C   UNL     1      27.790 -22.885 -15.587  0.00  0.00    +0.206 C 
ATOM     31  C   UNL     1      27.024 -21.983 -16.531  0.00  0.00    +0.051 C 
ENDBRANCH  29  30
ENDBRANCH  28  29
ENDBRANCH  22  23
ENDBRANCH   5  22
TORSDOF 9
ENDMDL
MODEL 4
REMARK VINA RESULT:      -9.9      1.445      1.950
REMARK  Name = 24831714
REMARK  9 active torsions:
REMARK  status: ('A' for Active; 'I' for Inactive)
REMARK    1  A    between atoms: C_2  and  C_11
REMARK    2  A    between atoms: C_5  and  C_22
REMARK    3  A    between atoms: C_9  and  O_16
REMARK    4  A    between atoms: C_10  and  O_18
REMARK    5  A    between atoms: C_12  and  O_20
REMARK    6  A    between atoms: C_13  and  S_14
REMARK    7  A    between atoms: C_22  and  C_23
REMARK    8  A    between atoms: C_28  and  O_29
REMARK    9  A    between atoms: O_29  and  C_30
REMARK                            x       y       z     vdW  Elec       q    Type
REMARK                         _______ _______ _______ _____ _____    ______ ____
ROOT
ATOM      1 CL   UNL     1      29.149 -22.361 -16.394  0.00  0.00    -0.083 Cl
ATOM      2  C   UNL     1      33.208 -22.809 -14.468  0.00  0.00    +0.007 C 
ATOM      3  C   UNL     1      33.104 -22.813 -15.859  0.00  0.00    -0.005 C 
ATOM      4  C   UNL     1      32.065 -22.666 -13.683  0.00  0.00    -0.001 C 
ATOM      5  C   UNL     1      31.855 -22.676 -16.465  0.00  0.00    -0.007 C 
ATOM      6  C   UNL     1      30.816 -22.528 -14.289  0.00  0.00    +0.011 C 
ATOM      7  C   UNL     1      30.710 -22.534 -15.679  0.00  0.00    +0.054 C 
ENDROOT
BRANCH   2  11
ATOM      8  O   UNL     1      35.562 -22.801 -14.823  0.00  0.00    -0.338 OA
ATOM      9  C   UNL     1      34.719 -24.320 -13.115  0.00  0.00    +0.171 C 
ATOM     10  C   UNL     1      36.142 -24.500 -12.585  0.00  0.00    +0.170 C 
ATOM     11  C   UNL     1      34.565 -22.960 -13.810  0.00  0.00    +0.168 C 
ATOM     12  C   UNL     1      37.188 -24.178 -13.655  0.00  0.00    +0.177 C 
ATOM     13  C   UNL     1      36.891 -22.825 -14.309  0.00  0.00    +0.192 C 
BRANCH  13  14
ATOM     14  S   UNL     1      38.081 -22.507 -15.661  0.00  0.00    -0.109 S 
ATOM     15  C   UNL     1      37.302 -21.026 -16.336  0.00  0.00    +0.072 C 
ENDBRANCH  13  14
BRANCH   9  16
ATOM     16  O   UNL     1      33.808 -24.388 -12.019  0.00  0.00    -0.379 OA
ATOM     17  H   UNL     1      33.138 -23.692 -12.111  0.00  0.00    +0.211 HD
ENDBRANCH   9  16
BRANCH  10  18
ATOM     18  O   UNL     1      36.297 -25.859 -12.172  0.00  0.00    -0.379 OA
ATOM     19  H   UNL     1      35.924 -25.970 -11.283  0.00  0.00    +0.211 HD
ENDBRANCH  10  18
BRANCH  12  20
ATOM     20  O   UNL     1      38.464 -24.152 -13.015  0.00  0.00    -0.379 OA
ATOM     21  H   UNL     1      39.097 -23.679 -13.576  0.00  0.00    +0.211 HD
ENDBRANCH  12  20
ENDBRANCH   2  11
BRANCH   5  22
ATOM     22  C   UNL     1      31.784 -22.685 -17.958  0.00  0.00    +0.053 C 
BRANCH  22  23
ATOM     23  C   UNL     1      32.824 -21.809 -18.624  0.00  0.00    -0.018 C 
ATOM     24  C   UNL     1      32.426 -20.737 -19.423  0.00  0.00    -0.001 C 
ATOM     25  C   UNL     1      34.181 -22.073 -18.436  0.00  0.00    -0.001 C 
ATOM     26  C   UNL     1      33.384 -19.930 -20.036  0.00  0.00    +0.037 C 
ATOM     27  C   UNL     1      35.139 -21.265 -19.049  0.00  0.00    +0.037 C 
ATOM     28  C   UNL     1      34.741 -20.194 -19.850  0.00  0.00    +0.139 C 
BRANCH  28  29
ATOM     29  O   UNL     1      35.676 -19.407 -20.447  0.00  0.00    -0.475 OA
BRANCH  29  30
ATOM     30  C   UNL     1      35.220 -18.194 -21.044  0.00  0.00    +0.206 C 
ATOM     31  C   UNL     1      35.475 -18.250 -22.535  0.00  0.00    +0.051 C 
ENDBRANCH  29  30
ENDBRANCH  28  29
ENDBRANCH  22  23
ENDBRANCH   5  22
TORSDOF 9
ENDMDL
MODEL 5
REMARK VINA RESULT:      -9.8      3.381      6.999
REMARK  Name = 24831714
REMARK  9 active torsions:
REMARK  status: ('A' for Active; 'I' for Inactive)
REMARK    1  A    between atoms: C_2  and  C_11
REMARK    2  A    between atoms: C_5  and  C_22
REMARK    3  A    between atoms: C_9  and  O_16
REMARK    4  A    between atoms: C_10  and  O_18
REMARK    5  A    between atoms: C_12  and  O_20
REMARK    6  A    between atoms: C_13  and  S_14
REMARK    7  A    between atoms: C_22  and  C_23
REMARK    8  A    between atoms: C_28  and  O_29
REMARK    9  A    between atoms: O_29  and  C_30
REMARK                            x       y       z     vdW  Elec       q    Type
REMARK                         _______ _______ _______ _____ _____    ______ ____
ROOT
ATOM      1 CL   UNL     1      36.069 -20.318 -19.609  0.00  0.00    -0.083 Cl
ATOM      2  C   UNL     1      33.230 -22.679 -17.011  0.00  0.00    +0.007 C 
ATOM      3  C   UNL     1      34.508 -22.382 -16.538  0.00  0.00    -0.005 C 
ATOM      4  C   UNL     1      32.837 -22.247 -18.277  0.00  0.00    -0.001 C 
ATOM      5  C   UNL     1      35.394 -21.654 -17.332  0.00  0.00    -0.007 C 
ATOM      6  C   UNL     1      33.722 -21.518 -19.072  0.00  0.00    +0.011 C 
ATOM      7  C   UNL     1      35.001 -21.221 -18.600  0.00  0.00    +0.054 C 
ENDROOT
BRANCH   2  11
ATOM      8  O   UNL     1      31.064 -22.711 -16.025  0.00  0.00    -0.338 OA
ATOM      9  C   UNL     1      32.855 -23.775 -14.764  0.00  0.00    +0.171 C 
ATOM     10  C   UNL     1      31.813 -24.449 -13.869  0.00  0.00    +0.170 C 
ATOM     11  C   UNL     1      32.268 -23.472 -16.149  0.00  0.00    +0.168 C 
ATOM     12  C   UNL     1      30.486 -23.688 -13.876  0.00  0.00    +0.177 C 
ATOM     13  C   UNL     1      30.038 -23.399 -15.313  0.00  0.00    +0.192 C 
BRANCH  13  14
ATOM     14  S   UNL     1      28.512 -22.391 -15.302  0.00  0.00    -0.109 S 
ATOM     15  C   UNL     1      27.712 -23.135 -16.739  0.00  0.00    +0.072 C 
ENDBRANCH  13  14
BRANCH   9  16
ATOM     16  O   UNL     1      33.970 -24.654 -14.913  0.00  0.00    -0.379 OA
ATOM     17  H   UNL     1      33.652 -25.546 -15.125  0.00  0.00    +0.211 HD
ENDBRANCH   9  16
BRANCH  10  18
ATOM     18  O   UNL     1      32.326 -24.487 -12.536  0.00  0.00    -0.379 OA
ATOM     19  H   UNL     1      31.848 -25.159 -12.025  0.00  0.00    +0.211 HD
ENDBRANCH  10  18
BRANCH  12  20
ATOM     20  O   UNL     1      29.521 -24.501 -13.208  0.00  0.00    -0.379 OA
ATOM     21  H   UNL     1      28.690 -24.491 -13.707  0.00  0.00    +0.211 HD
ENDBRANCH  12  20
ENDBRANCH   2  11
BRANCH   5  22
ATOM     22  C   UNL     1      36.755 -21.355 -16.790  0.00  0.00    +0.053 C 
BRANCH  22  23
ATOM     23  C   UNL     1      37.152 -22.232 -15.622  0.00  0.00    -0.018 C 
ATOM     24  C   UNL     1      36.459 -22.145 -14.414  0.00  0.00    -0.001 C 
ATOM     25  C   UNL     1      38.213 -23.129 -15.753  0.00  0.00    -0.001 C 
ATOM     26  C   UNL     1      36.826 -22.953 -13.339  0.00  0.00    +0.037 C 
ATOM     27  C   UNL     1      38.580 -23.938 -14.678  0.00  0.00    +0.037 C 
ATOM     28  C   UNL     1      37.887 -23.849 -13.470  0.00  0.00    +0.139 C 
BRANCH  28  29
ATOM     29  O   UNL     1      38.245 -24.639 -12.421  0.00  0.00    -0.475 OA
BRANCH  29  30
ATOM     30  C   UNL     1      37.291 -25.603 -11.978  0.00  0.00    +0.206 C 
ATOM     31  C   UNL     1      36.814 -26.408 -13.169  0.00  0.00    +0.051 C 
ENDBRANCH  29  30
ENDBRANCH  28  29
ENDBRANCH  22  23
ENDBRANCH   5  22
TORSDOF 9
ENDMDL
MODEL 6
REMARK VINA RESULT:      -9.8     11.314     17.780
REMARK  Name = 24831714
REMARK  9 active torsions:
REMARK  status: ('A' for Active; 'I' for Inactive)
REMARK    1  A    between atoms: C_2  and  C_11
REMARK    2  A    between atoms: C_5  and  C_22
REMARK    3  A    between atoms: C_9  and  O_16
REMARK    4  A    between atoms: C_10  and  O_18
REMARK    5  A    between atoms: C_12  and  O_20
REMARK    6  A    between atoms: C_13  and  S_14
REMARK    7  A    between atoms: C_22  and  C_23
REMARK    8  A    between atoms: C_28  and  O_29
REMARK    9  A    between atoms: O_29  and  C_30
REMARK                            x       y       z     vdW  Elec       q    Type
REMARK                         _______ _______ _______ _____ _____    ______ ____
ROOT
ATOM      1 CL   UNL     1      31.039  -9.602 -18.859  0.00  0.00    -0.083 Cl
ATOM      2  C   UNL     1      32.282  -6.630 -22.023  0.00  0.00    +0.007 C 
ATOM      3  C   UNL     1      31.688  -7.833 -22.405  0.00  0.00    -0.005 C 
ATOM      4  C   UNL     1      32.487  -6.353 -20.672  0.00  0.00    -0.001 C 
ATOM      5  C   UNL     1      31.300  -8.759 -21.436  0.00  0.00    -0.007 C 
ATOM      6  C   UNL     1      32.099  -7.278 -19.702  0.00  0.00    +0.011 C 
ATOM      7  C   UNL     1      31.506  -8.481 -20.084  0.00  0.00    +0.054 C 
ENDROOT
BRANCH   2  11
ATOM      8  O   UNL     1      31.633  -4.694 -23.245  0.00  0.00    -0.338 OA
ATOM      9  C   UNL     1      33.043  -6.301 -24.412  0.00  0.00    +0.171 C 
ATOM     10  C   UNL     1      33.326  -5.255 -25.491  0.00  0.00    +0.170 C 
ATOM     11  C   UNL     1      32.704  -5.625 -23.076  0.00  0.00    +0.168 C 
ATOM     12  C   UNL     1      32.232  -4.188 -25.545  0.00  0.00    +0.177 C 
ATOM     13  C   UNL     1      31.950  -3.634 -24.145  0.00  0.00    +0.192 C 
BRANCH  13  14
ATOM     14  S   UNL     1      30.562  -2.444 -24.209  0.00  0.00    -0.109 S 
ATOM     15  C   UNL     1      30.329  -2.237 -22.431  0.00  0.00    +0.072 C 
ENDBRANCH  13  14
BRANCH   9  16
ATOM     16  O   UNL     1      34.204  -7.113 -24.242  0.00  0.00    -0.379 OA
ATOM     17  H   UNL     1      34.812  -6.681 -23.621  0.00  0.00    +0.211 HD
ENDBRANCH   9  16
BRANCH  10  18
ATOM     18  O   UNL     1      33.394  -5.923 -26.753  0.00  0.00    -0.379 OA
ATOM     19  H   UNL     1      34.307  -5.904 -27.080  0.00  0.00    +0.211 HD
ENDBRANCH  10  18
BRANCH  12  20
ATOM     20  O   UNL     1      32.688  -3.147 -26.409  0.00  0.00    -0.379 OA
ATOM     21  H   UNL     1      32.371  -3.314 -27.310  0.00  0.00    +0.211 HD
ENDBRANCH  12  20
ENDBRANCH   2  11
BRANCH   5  22
ATOM     22  C   UNL     1      30.666 -10.035 -21.887  0.00  0.00    +0.053 C 
BRANCH  22  23
ATOM     23  C   UNL     1      31.615 -11.214 -21.910  0.00  0.00    -0.018 C 
ATOM     24  C   UNL     1      32.547 -11.340 -22.941  0.00  0.00    -0.001 C 
ATOM     25  C   UNL     1      31.559 -12.175 -20.900  0.00  0.00    -0.001 C 
ATOM     26  C   UNL     1      33.422 -12.426 -22.963  0.00  0.00    +0.037 C 
ATOM     27  C   UNL     1      32.434 -13.261 -20.922  0.00  0.00    +0.037 C 
ATOM     28  C   UNL     1      33.365 -13.387 -21.953  0.00  0.00    +0.139 C 
BRANCH  28  29
ATOM     29  O   UNL     1      34.219 -14.447 -21.973  0.00  0.00    -0.475 OA
BRANCH  29  30
ATOM     30  C   UNL     1      34.277 -15.212 -23.176  0.00  0.00    +0.206 C 
ATOM     31  C   UNL     1      34.576 -16.655 -22.829  0.00  0.00    +0.051 C 
ENDBRANCH  29  30
ENDBRANCH  28  29
ENDBRANCH  22  23
ENDBRANCH   5  22
TORSDOF 9
ENDMDL
MODEL 7
REMARK VINA RESULT:      -9.6      5.637      9.732
REMARK  Name = 24831714
REMARK  9 active torsions:
REMARK  status: ('A' for Active; 'I' for Inactive)
REMARK    1  A    between atoms: C_2  and  C_11
REMARK    2  A    between atoms: C_5  and  C_22
REMARK    3  A    between atoms: C_9  and  O_16
REMARK    4  A    between atoms: C_10  and  O_18
REMARK    5  A    between atoms: C_12  and  O_20
REMARK    6  A    between atoms: C_13  and  S_14
REMARK    7  A    between atoms: C_22  and  C_23
REMARK    8  A    between atoms: C_28  and  O_29
REMARK    9  A    between atoms: O_29  and  C_30
REMARK                            x       y       z     vdW  Elec       q    Type
REMARK                         _______ _______ _______ _____ _____    ______ ____
ROOT
ATOM      1 CL   UNL     1      32.783 -14.590 -25.639  0.00  0.00    -0.083 Cl
ATOM      2  C   UNL     1      34.339 -17.812 -22.884  0.00  0.00    +0.007 C 
ATOM      3  C   UNL     1      34.690 -16.481 -22.653  0.00  0.00    -0.005 C 
ATOM      4  C   UNL     1      33.513 -18.138 -23.959  0.00  0.00    -0.001 C 
ATOM      5  C   UNL     1      34.216 -15.478 -23.498  0.00  0.00    -0.007 C 
ATOM      6  C   UNL     1      33.038 -17.135 -24.804  0.00  0.00    +0.011 C 
ATOM      7  C   UNL     1      33.389 -15.804 -24.574  0.00  0.00    +0.054 C 
ENDROOT
BRANCH   2  11
ATOM      8  O   UNL     1      33.760 -19.359 -21.171  0.00  0.00    -0.338 OA
ATOM      9  C   UNL     1      35.999 -18.405 -21.071  0.00  0.00    +0.171 C 
ATOM     10  C   UNL     1      36.403 -19.480 -20.061  0.00  0.00    +0.170 C 
ATOM     11  C   UNL     1      34.856 -18.902 -21.967  0.00  0.00    +0.168 C 
ATOM     12  C   UNL     1      35.187 -20.054 -19.331  0.00  0.00    +0.177 C 
ATOM     13  C   UNL     1      34.099 -20.460 -20.331  0.00  0.00    +0.192 C 
BRANCH  13  14
ATOM     14  S   UNL     1      32.611 -21.036 -19.438  0.00  0.00    -0.109 S 
ATOM     15  C   UNL     1      33.226 -22.661 -18.950  0.00  0.00    +0.072 C 
ENDBRANCH  13  14
BRANCH   9  16
ATOM     16  O   UNL     1      37.128 -18.093 -21.887  0.00  0.00    -0.379 OA
ATOM     17  H   UNL     1      36.848 -17.525 -22.622  0.00  0.00    +0.211 HD
ENDBRANCH   9  16
BRANCH  10  18
ATOM     18  O   UNL     1      37.287 -18.888 -19.108  0.00  0.00    -0.379 OA
ATOM     19  H   UNL     1      37.866 -18.251 -19.556  0.00  0.00    +0.211 HD
ENDBRANCH  10  18
BRANCH  12  20
ATOM     20  O   UNL     1      35.629 -21.190 -18.588  0.00  0.00    -0.379 OA
ATOM     21  H   UNL     1      36.081 -21.808 -19.182  0.00  0.00    +0.211 HD
ENDBRANCH  12  20
ENDBRANCH   2  11
BRANCH   5  22
ATOM     22  C   UNL     1      34.614 -14.064 -23.217  0.00  0.00    +0.053 C 
BRANCH  22  23
ATOM     23  C   UNL     1      33.524 -13.242 -22.563  0.00  0.00    -0.018 C 
ATOM     24  C   UNL     1      32.982 -13.644 -21.342  0.00  0.00    -0.001 C 
ATOM     25  C   UNL     1      33.062 -12.080 -23.182  0.00  0.00    -0.001 C 
ATOM     26  C   UNL     1      31.978 -12.885 -20.740  0.00  0.00    +0.037 C 
ATOM     27  C   UNL     1      32.058 -11.322 -22.581  0.00  0.00    +0.037 C 
ATOM     28  C   UNL     1      31.516 -11.724 -21.360  0.00  0.00    +0.139 C 
BRANCH  28  29
ATOM     29  O   UNL     1      30.536 -10.983 -20.773  0.00  0.00    -0.475 OA
BRANCH  29  30
ATOM     30  C   UNL     1      30.865  -9.644 -20.408  0.00  0.00    +0.206 C 
ATOM     31  C   UNL     1      31.325  -9.623 -18.966  0.00  0.00    +0.051 C 
ENDBRANCH  29  30
ENDBRANCH  28  29
ENDBRANCH  22  23
ENDBRANCH   5  22
TORSDOF 9
ENDMDL
MODEL 8
REMARK VINA RESULT:      -9.6      2.513      4.645
REMARK  Name = 24831714
REMARK  9 active torsions:
REMARK  status: ('A' for Active; 'I' for Inactive)
REMARK    1  A    between atoms: C_2  and  C_11
REMARK    2  A    between atoms: C_5  and  C_22
REMARK    3  A    between atoms: C_9  and  O_16
REMARK    4  A    between atoms: C_10  and  O_18
REMARK    5  A    between atoms: C_12  and  O_20
REMARK    6  A    between atoms: C_13  and  S_14
REMARK    7  A    between atoms: C_22  and  C_23
REMARK    8  A    between atoms: C_28  and  O_29
REMARK    9  A    between atoms: O_29  and  C_30
REMARK                            x       y       z     vdW  Elec       q    Type
REMARK                         _______ _______ _______ _____ _____    ______ ____
ROOT
ATOM      1 CL   UNL     1      32.644 -19.457 -21.422  0.00  0.00    -0.083 Cl
ATOM      2  C   UNL     1      34.054 -21.906 -17.900  0.00  0.00    +0.007 C 
ATOM      3  C   UNL     1      34.993 -21.337 -18.761  0.00  0.00    -0.005 C 
ATOM      4  C   UNL     1      32.692 -21.716 -18.130  0.00  0.00    -0.001 C 
ATOM      5  C   UNL     1      34.569 -20.578 -19.853  0.00  0.00    -0.007 C 
ATOM      6  C   UNL     1      32.268 -20.957 -19.221  0.00  0.00    +0.011 C 
ATOM      7  C   UNL     1      33.205 -20.389 -20.083  0.00  0.00    +0.054 C 
ENDROOT
BRANCH   2  11
ATOM      8  O   UNL     1      33.430 -22.807 -15.787  0.00  0.00    -0.338 OA
ATOM      9  C   UNL     1      35.755 -22.127 -16.042  0.00  0.00    +0.171 C 
ATOM     10  C   UNL     1      36.111 -22.898 -14.770  0.00  0.00    +0.170 C 
ATOM     11  C   UNL     1      34.515 -22.731 -16.716  0.00  0.00    +0.168 C 
ATOM     12  C   UNL     1      34.891 -23.090 -13.867  0.00  0.00    +0.177 C 
ATOM     13  C   UNL     1      33.709 -23.644 -14.668  0.00  0.00    +0.192 C 
BRANCH  13  14
ATOM     14  S   UNL     1      32.228 -23.760 -13.601  0.00  0.00    -0.109 S 
ATOM     15  C   UNL     1      31.284 -22.409 -14.337  0.00  0.00    +0.072 C 
ENDBRANCH  13  14
BRANCH   9  16
ATOM     16  O   UNL     1      36.857 -22.198 -16.946  0.00  0.00    -0.379 OA
ATOM     17  H   UNL     1      36.587 -22.672 -17.748  0.00  0.00    +0.211 HD
ENDBRANCH   9  16
BRANCH  10  18
ATOM     18  O   UNL     1      37.107 -22.158 -14.063  0.00  0.00    -0.379 OA
ATOM     19  H   UNL     1      37.414 -21.420 -14.614  0.00  0.00    +0.211 HD
ENDBRANCH  10  18
BRANCH  12  20
ATOM     20  O   UNL     1      35.262 -24.001 -12.832  0.00  0.00    -0.379 OA
ATOM     21  H   UNL     1      36.108 -24.418 -13.057  0.00  0.00    +0.211 HD
ENDBRANCH  12  20
ENDBRANCH   2  11
BRANCH   5  22
ATOM     22  C   UNL     1      35.605 -19.984 -20.751  0.00  0.00    +0.053 C 
BRANCH  22  23
ATOM     23  C   UNL     1      35.187 -18.675 -21.385  0.00  0.00    -0.018 C 
ATOM     24  C   UNL     1      34.987 -17.546 -20.589  0.00  0.00    -0.001 C 
ATOM     25  C   UNL     1      35.001 -18.597 -22.765  0.00  0.00    -0.001 C 
ATOM     26  C   UNL     1      34.602 -16.340 -21.173  0.00  0.00    +0.037 C 
ATOM     27  C   UNL     1      34.616 -17.390 -23.349  0.00  0.00    +0.037 C 
ATOM     28  C   UNL     1      34.415 -16.262 -22.554  0.00  0.00    +0.139 C 
BRANCH  28  29
ATOM     29  O   UNL     1      34.040 -15.085 -23.125  0.00  0.00    -0.475 OA
BRANCH  29  30
ATOM     30  C   UNL     1      33.875 -13.965 -22.256  0.00  0.00    +0.206 C 
ATOM     31  C   UNL     1      33.526 -12.746 -23.084  0.00  0.00    +0.051 C 
ENDBRANCH  29  30
ENDBRANCH  28  29
ENDBRANCH  22  23
ENDBRANCH   5  22
TORSDOF 9
ENDMDL
MODEL 9
REMARK VINA RESULT:      -9.4      1.489      2.410
REMARK  Name = 24831714
REMARK  9 active torsions:
REMARK  status: ('A' for Active; 'I' for Inactive)
REMARK    1  A    between atoms: C_2  and  C_11
REMARK    2  A    between atoms: C_5  and  C_22
REMARK    3  A    between atoms: C_9  and  O_16
REMARK    4  A    between atoms: C_10  and  O_18
REMARK    5  A    between atoms: C_12  and  O_20
REMARK    6  A    between atoms: C_13  and  S_14
REMARK    7  A    between atoms: C_22  and  C_23
REMARK    8  A    between atoms: C_28  and  O_29
REMARK    9  A    between atoms: O_29  and  C_30
REMARK                            x       y       z     vdW  Elec       q    Type
REMARK                         _______ _______ _______ _____ _____    ______ ____
ROOT
ATOM      1 CL   UNL     1      30.568 -21.676 -17.419  0.00  0.00    -0.083 Cl
ATOM      2  C   UNL     1      33.754 -23.764 -14.996  0.00  0.00    +0.007 C 
ATOM      3  C   UNL     1      33.863 -23.727 -16.386  0.00  0.00    -0.005 C 
ATOM      4  C   UNL     1      32.668 -23.159 -14.365  0.00  0.00    -0.001 C 
ATOM      5  C   UNL     1      32.884 -23.085 -17.145  0.00  0.00    -0.007 C 
ATOM      6  C   UNL     1      31.690 -22.516 -15.123  0.00  0.00    +0.011 C 
ATOM      7  C   UNL     1      31.797 -22.480 -16.514  0.00  0.00    +0.054 C 
ENDROOT
BRANCH   2  11
ATOM      8  O   UNL     1      35.393 -23.496 -13.291  0.00  0.00    -0.338 OA
ATOM      9  C   UNL     1      35.901 -25.100 -15.052  0.00  0.00    +0.171 C 
ATOM     10  C   UNL     1      37.030 -25.673 -14.194  0.00  0.00    +0.170 C 
ATOM     11  C   UNL     1      34.817 -24.464 -14.172  0.00  0.00    +0.168 C 
ATOM     12  C   UNL     1      37.524 -24.658 -13.161  0.00  0.00    +0.177 C 
ATOM     13  C   UNL     1      36.345 -24.056 -12.389  0.00  0.00    +0.192 C 
BRANCH  13  14
ATOM     14  S   UNL     1      36.941 -22.764 -11.241  0.00  0.00    -0.109 S 
ATOM     15  C   UNL     1      35.910 -23.195  -9.824  0.00  0.00    +0.072 C 
ENDBRANCH  13  14
BRANCH   9  16
ATOM     16  O   UNL     1      35.320 -26.159 -15.813  0.00  0.00    -0.379 OA
ATOM     17  H   UNL     1      34.888 -25.791 -16.601  0.00  0.00    +0.211 HD
ENDBRANCH   9  16
BRANCH  10  18
ATOM     18  O   UNL     1      38.111 -26.029 -15.057  0.00  0.00    -0.379 OA
ATOM     19  H   UNL     1      38.744 -26.581 -14.571  0.00  0.00    +0.211 HD
ENDBRANCH  10  18
BRANCH  12  20
ATOM     20  O   UNL     1      38.403 -25.344 -12.271  0.00  0.00    -0.379 OA
ATOM     21  H   UNL     1      38.617 -26.216 -12.637  0.00  0.00    +0.211 HD
ENDBRANCH  12  20
ENDBRANCH   2  11
BRANCH   5  22
ATOM     22  C   UNL     1      33.036 -23.066 -18.632  0.00  0.00    +0.053 C 
BRANCH  22  23
ATOM     23  C   UNL     1      33.749 -21.838 -19.157  0.00  0.00    -0.018 C 
ATOM     24  C   UNL     1      35.111 -21.663 -18.913  0.00  0.00    -0.001 C 
ATOM     25  C   UNL     1      33.042 -20.881 -19.887  0.00  0.00    -0.001 C 
ATOM     26  C   UNL     1      35.767 -20.531 -19.397  0.00  0.00    +0.037 C 
ATOM     27  C   UNL     1      33.699 -19.750 -20.371  0.00  0.00    +0.037 C 
ATOM     28  C   UNL     1      35.061 -19.574 -20.126  0.00  0.00    +0.139 C 
BRANCH  28  29
ATOM     29  O   UNL     1      35.701 -18.470 -20.599  0.00  0.00    -0.475 OA
BRANCH  29  30
ATOM     30  C   UNL     1      35.472 -18.121 -21.963  0.00  0.00    +0.206 C 
ATOM     31  C   UNL     1      34.848 -16.743 -22.023  0.00  0.00    +0.051 C 
ENDBRANCH  29  30
ENDBRANCH  28  29
ENDBRANCH  22  23
ENDBRANCH   5  22
TORSDOF 9
ENDMDL
