MODEL 1
REMARK VINA RESULT:     -14.7      0.000      0.000
REMARK  Name = 25145656
REMARK  4 active torsions:
REMARK  status: ('A' for Active; 'I' for Inactive)
REMARK    1  A    between atoms: C_5  and  C_22
REMARK    2  A    between atoms: C_8  and  C_11
REMARK    3  A    between atoms: C_14  and  C_19
REMARK    4  A    between atoms: C_22  and  C_24
REMARK                            x       y       z     vdW  Elec       q    Type
REMARK                         _______ _______ _______ _____ _____    ______ ____
ROOT
ATOM      1  N   UNL     1      34.106 -16.737 -22.753  0.00  0.00    -0.134 N 
ATOM      2  N   UNL     1      34.124 -17.496 -21.635  0.00  0.00    -0.168 NA
ATOM      3  N   UNL     1      34.014 -16.178 -24.898  0.00  0.00    -0.178 NA
ATOM      4  N   UNL     1      33.964 -18.524 -24.306  0.00  0.00    -0.200 NA
ATOM      5  C   UNL     1      34.161 -15.369 -22.793  0.00  0.00    +0.086 C 
ATOM      6  C   UNL     1      34.019 -17.194 -24.053  0.00  0.00    +0.114 C 
ATOM      7  C   UNL     1      34.102 -15.049 -24.126  0.00  0.00    +0.124 C 
ATOM      8  C   UNL     1      34.049 -18.774 -21.856  0.00  0.00    +0.103 C 
ATOM      9  C   UNL     1      33.984 -19.297 -23.270  0.00  0.00    +0.184 C 
ENDROOT
BRANCH   8  11
ATOM     10  F   UNL     1      36.393 -21.498 -18.594  0.00  0.00    -0.204 F 
ATOM     11  C   UNL     1      34.038 -19.726 -20.721  0.00  0.00    +0.019 C 
ATOM     12  C   UNL     1      35.241 -20.176 -20.177  0.00  0.00    +0.031 C 
ATOM     13  C   UNL     1      32.825 -20.170 -20.195  0.00  0.00    +0.002 C 
ATOM     14  C   UNL     1      34.018 -21.517 -18.583  0.00  0.00    +0.081 C 
ATOM     15  C   UNL     1      35.230 -21.072 -19.108  0.00  0.00    +0.144 C 
ATOM     16  C   UNL     1      32.815 -21.066 -19.126  0.00  0.00    +0.007 C 
BRANCH  14  19
ATOM     17  O   UNL     1      33.326 -23.493 -17.525  0.00  0.00    -0.270 OA
ATOM     18  N   UNL     1      34.793 -22.127 -16.358  0.00  0.00    -0.299 N 
ATOM     19  C   UNL     1      34.002 -22.450 -17.468  0.00  0.00    +0.248 C 
ATOM     20  C   UNL     1      34.901 -22.963 -15.184  0.00  0.00    +0.111 C 
ATOM     21  H   UNL     1      35.302 -21.285 -16.378  0.00  0.00    +0.150 HD
ENDBRANCH  14  19
ENDBRANCH   8  11
BRANCH   5  22
ATOM     22  C   UNL     1      34.264 -14.502 -21.554  0.00  0.00    +0.068 C 
BRANCH  22  24
ATOM     23  N   UNL     1      30.574 -10.214 -21.426  0.00  0.00    -0.248 NA
ATOM     24  C   UNL     1      33.296 -13.368 -21.528  0.00  0.00    -0.038 C 
ATOM     25  C   UNL     1      33.413 -12.327 -22.446  0.00  0.00    +0.050 C 
ATOM     26  C   UNL     1      32.503 -11.257 -22.425  0.00  0.00    -0.004 C 
ATOM     27  C   UNL     1      32.273 -13.342 -20.589  0.00  0.00    -0.028 C 
ATOM     28  C   UNL     1      31.461 -11.224 -21.474  0.00  0.00    +0.060 C 
ATOM     29  C   UNL     1      31.369 -12.278 -20.568  0.00  0.00    +0.071 C 
ATOM     30  C   UNL     1      32.596 -10.197 -23.337  0.00  0.00    -0.001 C 
ATOM     31  C   UNL     1      31.682  -9.154 -23.291  0.00  0.00    +0.020 C 
ATOM     32  C   UNL     1      30.699  -9.210 -22.325  0.00  0.00    +0.098 C 
ENDBRANCH  22  24
ENDBRANCH   5  22
TORSDOF 4
ENDMDL
MODEL 2
REMARK VINA RESULT:     -13.9      4.345      9.958
REMARK  Name = 25145656
REMARK  4 active torsions:
REMARK  status: ('A' for Active; 'I' for Inactive)
REMARK    1  A    between atoms: C_5  and  C_22
REMARK    2  A    between atoms: C_8  and  C_11
REMARK    3  A    between atoms: C_14  and  C_19
REMARK    4  A    between atoms: C_22  and  C_24
REMARK                            x       y       z     vdW  Elec       q    Type
REMARK                         _______ _______ _______ _____ _____    ______ ____
ROOT
ATOM      1  N   UNL     1      33.743 -15.267 -23.539  0.00  0.00    -0.134 N 
ATOM      2  N   UNL     1      33.445 -14.111 -22.905  0.00  0.00    -0.168 NA
ATOM      3  N   UNL     1      33.942 -16.769 -25.159  0.00  0.00    -0.178 NA
ATOM      4  N   UNL     1      32.922 -14.635 -25.674  0.00  0.00    -0.200 NA
ATOM      5  C   UNL     1      34.335 -16.362 -22.971  0.00  0.00    +0.086 C 
ATOM      6  C   UNL     1      33.517 -15.552 -24.872  0.00  0.00    +0.114 C 
ATOM      7  C   UNL     1      34.448 -17.275 -23.990  0.00  0.00    +0.124 C 
ATOM      8  C   UNL     1      32.895 -13.211 -23.663  0.00  0.00    +0.103 C 
ATOM      9  C   UNL     1      32.611 -13.512 -25.114  0.00  0.00    +0.184 C 
ENDROOT
BRANCH   8  11
ATOM     10  F   UNL     1      33.426  -8.389 -23.526  0.00  0.00    -0.204 F 
ATOM     11  C   UNL     1      32.535 -11.887 -23.104  0.00  0.00    +0.019 C 
ATOM     12  C   UNL     1      33.159 -10.736 -23.583  0.00  0.00    +0.031 C 
ATOM     13  C   UNL     1      31.571 -11.793 -22.101  0.00  0.00    +0.002 C 
ATOM     14  C   UNL     1      31.856  -9.394 -22.053  0.00  0.00    +0.081 C 
ATOM     15  C   UNL     1      32.819  -9.489 -23.058  0.00  0.00    +0.144 C 
ATOM     16  C   UNL     1      31.232 -10.546 -21.575  0.00  0.00    +0.007 C 
BRANCH  14  19
ATOM     17  O   UNL     1      30.776  -7.314 -22.147  0.00  0.00    -0.270 OA
ATOM     18  N   UNL     1      31.982  -7.793 -20.226  0.00  0.00    -0.299 N 
ATOM     19  C   UNL     1      31.498  -8.096 -21.503  0.00  0.00    +0.248 C 
ATOM     20  C   UNL     1      31.695  -6.556 -19.535  0.00  0.00    +0.111 C 
ATOM     21  H   UNL     1      32.550  -8.457 -19.772  0.00  0.00    +0.150 HD
ENDBRANCH  14  19
ENDBRANCH   8  11
BRANCH   5  22
ATOM     22  C   UNL     1      34.737 -16.431 -21.511  0.00  0.00    +0.068 C 
BRANCH  22  24
ATOM     23  N   UNL     1      35.148 -21.697 -19.482  0.00  0.00    -0.248 NA
ATOM     24  C   UNL     1      34.835 -17.819 -20.976  0.00  0.00    -0.038 C 
ATOM     25  C   UNL     1      33.681 -18.531 -20.659  0.00  0.00    +0.050 C 
ATOM     26  C   UNL     1      33.769 -19.839 -20.155  0.00  0.00    -0.004 C 
ATOM     27  C   UNL     1      36.078 -18.411 -20.791  0.00  0.00    -0.028 C 
ATOM     28  C   UNL     1      35.029 -20.447 -19.964  0.00  0.00    +0.060 C 
ATOM     29  C   UNL     1      36.166 -19.712 -20.290  0.00  0.00    +0.071 C 
ATOM     30  C   UNL     1      32.624 -20.578 -19.828  0.00  0.00    -0.001 C 
ATOM     31  C   UNL     1      32.745 -21.869 -19.331  0.00  0.00    +0.020 C 
ATOM     32  C   UNL     1      34.018 -22.377 -19.179  0.00  0.00    +0.098 C 
ENDBRANCH  22  24
ENDBRANCH   5  22
TORSDOF 4
ENDMDL
MODEL 3
REMARK VINA RESULT:     -13.8      3.368      6.503
REMARK  Name = 25145656
REMARK  4 active torsions:
REMARK  status: ('A' for Active; 'I' for Inactive)
REMARK    1  A    between atoms: C_5  and  C_22
REMARK    2  A    between atoms: C_8  and  C_11
REMARK    3  A    between atoms: C_14  and  C_19
REMARK    4  A    between atoms: C_22  and  C_24
REMARK                            x       y       z     vdW  Elec       q    Type
REMARK                         _______ _______ _______ _____ _____    ______ ____
ROOT
ATOM      1  N   UNL     1      33.640 -21.238 -18.666  0.00  0.00    -0.134 N 
ATOM      2  N   UNL     1      34.739 -21.662 -18.003  0.00  0.00    -0.168 NA
ATOM      3  N   UNL     1      31.508 -20.946 -19.204  0.00  0.00    -0.178 NA
ATOM      4  N   UNL     1      32.045 -22.346 -17.304  0.00  0.00    -0.200 NA
ATOM      5  C   UNL     1      33.633 -20.424 -19.767  0.00  0.00    +0.086 C 
ATOM      6  C   UNL     1      32.328 -21.537 -18.354  0.00  0.00    +0.114 C 
ATOM      7  C   UNL     1      32.307 -20.258 -20.079  0.00  0.00    +0.124 C 
ATOM      8  C   UNL     1      34.486 -22.420 -16.979  0.00  0.00    +0.103 C 
ATOM      9  C   UNL     1      33.062 -22.784 -16.637  0.00  0.00    +0.184 C 
ENDROOT
BRANCH   8  11
ATOM     10  F   UNL     1      36.244 -25.644 -13.806  0.00  0.00    -0.204 F 
ATOM     11  C   UNL     1      35.596 -22.940 -16.147  0.00  0.00    +0.019 C 
ATOM     12  C   UNL     1      35.400 -24.069 -15.351  0.00  0.00    +0.031 C 
ATOM     13  C   UNL     1      36.836 -22.303 -16.160  0.00  0.00    +0.002 C 
ATOM     14  C   UNL     1      37.685 -23.921 -14.580  0.00  0.00    +0.081 C 
ATOM     15  C   UNL     1      36.444 -24.559 -14.568  0.00  0.00    +0.144 C 
ATOM     16  C   UNL     1      37.880 -22.793 -15.376  0.00  0.00    +0.007 C 
BRANCH  14  19
ATOM     17  O   UNL     1      39.024 -23.927 -12.655  0.00  0.00    -0.270 OA
ATOM     18  N   UNL     1      39.503 -25.510 -14.280  0.00  0.00    -0.299 N 
ATOM     19  C   UNL     1      38.777 -24.430 -13.765  0.00  0.00    +0.248 C 
ATOM     20  C   UNL     1      40.600 -26.141 -13.581  0.00  0.00    +0.111 C 
ATOM     21  H   UNL     1      39.255 -25.859 -15.166  0.00  0.00    +0.150 HD
ENDBRANCH  14  19
ENDBRANCH   8  11
BRANCH   5  22
ATOM     22  C   UNL     1      34.893 -19.884 -20.413  0.00  0.00    +0.068 C 
BRANCH  22  24
ATOM     23  N   UNL     1      33.924 -16.234 -24.627  0.00  0.00    -0.248 NA
ATOM     24  C   UNL     1      34.639 -18.914 -21.517  0.00  0.00    -0.038 C 
ATOM     25  C   UNL     1      34.616 -17.547 -21.256  0.00  0.00    +0.050 C 
ATOM     26  C   UNL     1      34.376 -16.630 -22.293  0.00  0.00    -0.004 C 
ATOM     27  C   UNL     1      34.423 -19.370 -22.811  0.00  0.00    -0.028 C 
ATOM     28  C   UNL     1      34.156 -17.085 -23.611  0.00  0.00    +0.060 C 
ATOM     29  C   UNL     1      34.185 -18.458 -23.842  0.00  0.00    +0.071 C 
ATOM     30  C   UNL     1      34.349 -15.249 -22.060  0.00  0.00    -0.001 C 
ATOM     31  C   UNL     1      34.109 -14.369 -23.106  0.00  0.00    +0.020 C 
ATOM     32  C   UNL     1      33.905 -14.908 -24.359  0.00  0.00    +0.098 C 
ENDBRANCH  22  24
ENDBRANCH   5  22
TORSDOF 4
ENDMDL
MODEL 4
REMARK VINA RESULT:     -12.9      5.785     12.150
REMARK  Name = 25145656
REMARK  4 active torsions:
REMARK  status: ('A' for Active; 'I' for Inactive)
REMARK    1  A    between atoms: C_5  and  C_22
REMARK    2  A    between atoms: C_8  and  C_11
REMARK    3  A    between atoms: C_14  and  C_19
REMARK    4  A    between atoms: C_22  and  C_24
REMARK                            x       y       z     vdW  Elec       q    Type
REMARK                         _______ _______ _______ _____ _____    ______ ____
ROOT
ATOM      1  N   UNL     1      32.149 -11.062 -22.051  0.00  0.00    -0.134 N 
ATOM      2  N   UNL     1      32.370 -10.046 -22.914  0.00  0.00    -0.168 NA
ATOM      3  N   UNL     1      31.393 -12.181 -20.291  0.00  0.00    -0.178 NA
ATOM      4  N   UNL     1      30.849  -9.832 -20.494  0.00  0.00    -0.200 NA
ATOM      5  C   UNL     1      32.610 -12.344 -22.188  0.00  0.00    +0.086 C 
ATOM      6  C   UNL     1      31.414 -11.001 -20.883  0.00  0.00    +0.114 C 
ATOM      7  C   UNL     1      32.130 -13.014 -21.091  0.00  0.00    +0.124 C 
ATOM      8  C   UNL     1      31.817  -8.922 -22.570  0.00  0.00    +0.103 C 
ATOM      9  C   UNL     1      31.035  -8.824 -21.283  0.00  0.00    +0.184 C 
ENDROOT
BRANCH   8  11
ATOM     10  F   UNL     1      34.323  -5.032 -24.033  0.00  0.00    -0.204 F 
ATOM     11  C   UNL     1      31.959  -7.728 -23.434  0.00  0.00    +0.019 C 
ATOM     12  C   UNL     1      33.093  -6.923 -23.329  0.00  0.00    +0.031 C 
ATOM     13  C   UNL     1      30.960  -7.408 -24.353  0.00  0.00    +0.002 C 
ATOM     14  C   UNL     1      32.228  -5.478 -25.062  0.00  0.00    +0.081 C 
ATOM     15  C   UNL     1      33.228  -5.799 -24.143  0.00  0.00    +0.144 C 
ATOM     16  C   UNL     1      31.094  -6.283 -25.166  0.00  0.00    +0.007 C 
BRANCH  14  19
ATOM     17  O   UNL     1      31.886  -3.213 -25.565  0.00  0.00    -0.270 OA
ATOM     18  N   UNL     1      33.072  -4.471 -27.110  0.00  0.00    -0.299 N 
ATOM     19  C   UNL     1      32.365  -4.307 -25.913  0.00  0.00    +0.248 C 
ATOM     20  C   UNL     1      33.313  -3.399 -28.049  0.00  0.00    +0.111 C 
ATOM     21  H   UNL     1      33.424  -5.365 -27.324  0.00  0.00    +0.150 HD
ENDBRANCH  14  19
ENDBRANCH   8  11
BRANCH   5  22
ATOM     22  C   UNL     1      33.462 -12.804 -23.354  0.00  0.00    +0.068 C 
BRANCH  22  24
ATOM     23  N   UNL     1      34.284 -18.399 -23.556  0.00  0.00    -0.248 NA
ATOM     24  C   UNL     1      33.682 -14.278 -23.398  0.00  0.00    -0.038 C 
ATOM     25  C   UNL     1      34.222 -14.938 -22.298  0.00  0.00    +0.050 C 
ATOM     26  C   UNL     1      34.431 -16.327 -22.334  0.00  0.00    -0.004 C 
ATOM     27  C   UNL     1      33.350 -15.001 -24.537  0.00  0.00    -0.028 C 
ATOM     28  C   UNL     1      34.096 -17.068 -23.487  0.00  0.00    +0.060 C 
ATOM     29  C   UNL     1      33.558 -16.382 -24.573  0.00  0.00    +0.071 C 
ATOM     30  C   UNL     1      34.971 -17.017 -21.241  0.00  0.00    -0.001 C 
ATOM     31  C   UNL     1      35.166 -18.390 -21.309  0.00  0.00    +0.020 C 
ATOM     32  C   UNL     1      34.808 -19.027 -22.478  0.00  0.00    +0.098 C 
ENDBRANCH  22  24
ENDBRANCH   5  22
TORSDOF 4
ENDMDL
MODEL 5
REMARK VINA RESULT:     -12.8      6.528     12.526
REMARK  Name = 25145656
REMARK  4 active torsions:
REMARK  status: ('A' for Active; 'I' for Inactive)
REMARK    1  A    between atoms: C_5  and  C_22
REMARK    2  A    between atoms: C_8  and  C_11
REMARK    3  A    between atoms: C_14  and  C_19
REMARK    4  A    between atoms: C_22  and  C_24
REMARK                            x       y       z     vdW  Elec       q    Type
REMARK                         _______ _______ _______ _____ _____    ______ ____
ROOT
ATOM      1  N   UNL     1      31.663  -8.604 -21.025  0.00  0.00    -0.134 N 
ATOM      2  N   UNL     1      31.823  -8.280 -22.327  0.00  0.00    -0.168 NA
ATOM      3  N   UNL     1      31.690  -8.440 -18.812  0.00  0.00    -0.178 NA
ATOM      4  N   UNL     1      32.556  -6.600 -20.124  0.00  0.00    -0.200 NA
ATOM      5  C   UNL     1      31.132  -9.773 -20.550  0.00  0.00    +0.086 C 
ATOM      6  C   UNL     1      31.993  -7.819 -19.938  0.00  0.00    +0.114 C 
ATOM      7  C   UNL     1      31.159  -9.648 -19.184  0.00  0.00    +0.124 C 
ATOM      8  C   UNL     1      32.341  -7.106 -22.526  0.00  0.00    +0.103 C 
ATOM      9  C   UNL     1      32.737  -6.242 -21.353  0.00  0.00    +0.184 C 
ENDROOT
BRANCH   8  11
ATOM     10  F   UNL     1      35.300  -5.719 -26.114  0.00  0.00    -0.204 F 
ATOM     11  C   UNL     1      32.554  -6.611 -23.906  0.00  0.00    +0.019 C 
ATOM     12  C   UNL     1      33.849  -6.391 -24.374  0.00  0.00    +0.031 C 
ATOM     13  C   UNL     1      31.460  -6.365 -24.736  0.00  0.00    +0.002 C 
ATOM     14  C   UNL     1      32.958  -5.679 -26.504  0.00  0.00    +0.081 C 
ATOM     15  C   UNL     1      34.051  -5.926 -25.674  0.00  0.00    +0.144 C 
ATOM     16  C   UNL     1      31.663  -5.899 -26.035  0.00  0.00    +0.007 C 
BRANCH  14  19
ATOM     17  O   UNL     1      33.161  -5.985 -28.820  0.00  0.00    -0.270 OA
ATOM     18  N   UNL     1      33.336  -3.816 -28.021  0.00  0.00    -0.299 N 
ATOM     19  C   UNL     1      33.163  -5.195 -27.859  0.00  0.00    +0.248 C 
ATOM     20  C   UNL     1      33.527  -3.179 -29.305  0.00  0.00    +0.111 C 
ATOM     21  H   UNL     1      33.328  -3.247 -27.218  0.00  0.00    +0.150 HD
ENDBRANCH  14  19
ENDBRANCH   8  11
BRANCH   5  22
ATOM     22  C   UNL     1      30.649 -10.895 -21.447  0.00  0.00    +0.068 C 
BRANCH  22  24
ATOM     23  N   UNL     1      34.238 -15.260 -21.755  0.00  0.00    -0.248 NA
ATOM     24  C   UNL     1      31.595 -12.045 -21.538  0.00  0.00    -0.038 C 
ATOM     25  C   UNL     1      31.984 -12.535 -22.782  0.00  0.00    +0.050 C 
ATOM     26  C   UNL     1      32.874 -13.617 -22.872  0.00  0.00    -0.004 C 
ATOM     27  C   UNL     1      32.092 -12.635 -20.383  0.00  0.00    -0.028 C 
ATOM     28  C   UNL     1      33.384 -14.221 -21.703  0.00  0.00    +0.060 C 
ATOM     29  C   UNL     1      32.978 -13.711 -20.473  0.00  0.00    +0.071 C 
ATOM     30  C   UNL     1      33.283 -14.129 -24.111  0.00  0.00    -0.001 C 
ATOM     31  C   UNL     1      34.164 -15.201 -24.167  0.00  0.00    +0.020 C 
ATOM     32  C   UNL     1      34.608 -15.724 -22.971  0.00  0.00    +0.098 C 
ENDBRANCH  22  24
ENDBRANCH   5  22
TORSDOF 4
ENDMDL
MODEL 6
REMARK VINA RESULT:     -12.0      5.357     11.955
REMARK  Name = 25145656
REMARK  4 active torsions:
REMARK  status: ('A' for Active; 'I' for Inactive)
REMARK    1  A    between atoms: C_5  and  C_22
REMARK    2  A    between atoms: C_8  and  C_11
REMARK    3  A    between atoms: C_14  and  C_19
REMARK    4  A    between atoms: C_22  and  C_24
REMARK                            x       y       z     vdW  Elec       q    Type
REMARK                         _______ _______ _______ _____ _____    ______ ____
ROOT
ATOM      1  N   UNL     1      32.383 -23.420 -14.689  0.00  0.00    -0.134 N 
ATOM      2  N   UNL     1      33.028 -22.690 -15.626  0.00  0.00    -0.168 NA
ATOM      3  N   UNL     1      30.815 -24.649 -13.713  0.00  0.00    -0.178 NA
ATOM      4  N   UNL     1      30.421 -23.835 -15.958  0.00  0.00    -0.200 NA
ATOM      5  C   UNL     1      32.862 -23.729 -13.445  0.00  0.00    +0.086 C 
ATOM      6  C   UNL     1      31.134 -23.996 -14.816  0.00  0.00    +0.114 C 
ATOM      7  C   UNL     1      31.877 -24.487 -12.862  0.00  0.00    +0.124 C 
ATOM      8  C   UNL     1      32.370 -22.544 -16.737  0.00  0.00    +0.103 C 
ATOM      9  C   UNL     1      30.991 -23.138 -16.886  0.00  0.00    +0.184 C 
ENDROOT
BRANCH   8  11
ATOM     10  F   UNL     1      36.238 -21.095 -19.285  0.00  0.00    -0.204 F 
ATOM     11  C   UNL     1      32.966 -21.783 -17.859  0.00  0.00    +0.019 C 
ATOM     12  C   UNL     1      34.347 -21.793 -18.052  0.00  0.00    +0.031 C 
ATOM     13  C   UNL     1      32.146 -21.058 -18.724  0.00  0.00    +0.002 C 
ATOM     14  C   UNL     1      34.090 -20.351 -19.973  0.00  0.00    +0.081 C 
ATOM     15  C   UNL     1      34.909 -21.078 -19.109  0.00  0.00    +0.144 C 
ATOM     16  C   UNL     1      32.708 -20.342 -19.780  0.00  0.00    +0.007 C 
BRANCH  14  19
ATOM     17  O   UNL     1      34.146 -19.632 -22.205  0.00  0.00    -0.270 OA
ATOM     18  N   UNL     1      35.817 -18.850 -20.800  0.00  0.00    -0.299 N 
ATOM     19  C   UNL     1      34.671 -19.605 -21.077  0.00  0.00    +0.248 C 
ATOM     20  C   UNL     1      36.495 -18.037 -21.784  0.00  0.00    +0.111 C 
ATOM     21  H   UNL     1      36.181 -18.874 -19.886  0.00  0.00    +0.150 HD
ENDBRANCH  14  19
ENDBRANCH   8  11
BRANCH   5  22
ATOM     22  C   UNL     1      34.212 -23.270 -12.933  0.00  0.00    +0.068 C 
BRANCH  22  24
ATOM     23  N   UNL     1      38.535 -26.357 -14.883  0.00  0.00    -0.248 NA
ATOM     24  C   UNL     1      35.358 -24.078 -13.442  0.00  0.00    -0.038 C 
ATOM     25  C   UNL     1      36.661 -23.751 -13.078  0.00  0.00    +0.050 C 
ATOM     26  C   UNL     1      37.743 -24.509 -13.555  0.00  0.00    -0.004 C 
ATOM     27  C   UNL     1      35.131 -25.161 -14.282  0.00  0.00    -0.028 C 
ATOM     28  C   UNL     1      37.521 -25.611 -14.409  0.00  0.00    +0.060 C 
ATOM     29  C   UNL     1      36.208 -25.915 -14.756  0.00  0.00    +0.071 C 
ATOM     30  C   UNL     1      39.065 -24.203 -13.204  0.00  0.00    -0.001 C 
ATOM     31  C   UNL     1      40.113 -24.972 -13.693  0.00  0.00    +0.020 C 
ATOM     32  C   UNL     1      39.797 -26.028 -14.521  0.00  0.00    +0.098 C 
ENDBRANCH  22  24
ENDBRANCH   5  22
TORSDOF 4
ENDMDL
MODEL 7
REMARK VINA RESULT:     -12.0      3.804      9.897
REMARK  Name = 25145656
REMARK  4 active torsions:
REMARK  status: ('A' for Active; 'I' for Inactive)
REMARK    1  A    between atoms: C_5  and  C_22
REMARK    2  A    between atoms: C_8  and  C_11
REMARK    3  A    between atoms: C_14  and  C_19
REMARK    4  A    between atoms: C_22  and  C_24
REMARK                            x       y       z     vdW  Elec       q    Type
REMARK                         _______ _______ _______ _____ _____    ______ ____
ROOT
ATOM      1  N   UNL     1      34.730 -19.613 -20.332  0.00  0.00    -0.134 N 
ATOM      2  N   UNL     1      34.127 -18.442 -20.631  0.00  0.00    -0.168 NA
ATOM      3  N   UNL     1      36.311 -21.155 -20.120  0.00  0.00    -0.178 NA
ATOM      4  N   UNL     1      36.891 -19.027 -21.117  0.00  0.00    -0.200 NA
ATOM      5  C   UNL     1      34.128 -20.699 -19.756  0.00  0.00    +0.086 C 
ATOM      6  C   UNL     1      36.058 -19.929 -20.541  0.00  0.00    +0.114 C 
ATOM      7  C   UNL     1      35.123 -21.636 -19.635  0.00  0.00    +0.124 C 
ATOM      8  C   UNL     1      34.914 -17.556 -21.164  0.00  0.00    +0.103 C 
ATOM      9  C   UNL     1      36.362 -17.889 -21.429  0.00  0.00    +0.184 C 
ENDROOT
BRANCH   8  11
ATOM     10  F   UNL     1      33.533 -14.307 -24.494  0.00  0.00    -0.204 F 
ATOM     11  C   UNL     1      34.392 -16.217 -21.524  0.00  0.00    +0.019 C 
ATOM     12  C   UNL     1      34.203 -15.880 -22.864  0.00  0.00    +0.031 C 
ATOM     13  C   UNL     1      34.090 -15.294 -20.523  0.00  0.00    +0.002 C 
ATOM     14  C   UNL     1      33.409 -13.696 -22.202  0.00  0.00    +0.081 C 
ATOM     15  C   UNL     1      33.711 -14.620 -23.203  0.00  0.00    +0.144 C 
ATOM     16  C   UNL     1      33.598 -14.034 -20.862  0.00  0.00    +0.007 C 
BRANCH  14  19
ATOM     17  O   UNL     1      33.412 -11.725 -23.473  0.00  0.00    -0.270 OA
ATOM     18  N   UNL     1      31.795 -11.916 -21.823  0.00  0.00    -0.299 N 
ATOM     19  C   UNL     1      32.895 -12.382 -22.551  0.00  0.00    +0.248 C 
ATOM     20  C   UNL     1      31.156 -10.642 -22.066  0.00  0.00    +0.111 C 
ATOM     21  H   UNL     1      31.436 -12.486 -21.105  0.00  0.00    +0.150 HD
ENDBRANCH  14  19
ENDBRANCH   8  11
BRANCH   5  22
ATOM     22  C   UNL     1      32.661 -20.736 -19.377  0.00  0.00    +0.068 C 
BRANCH  22  24
ATOM     23  N   UNL     1      31.601 -23.817 -14.750  0.00  0.00    -0.248 NA
ATOM     24  C   UNL     1      32.372 -21.546 -18.158  0.00  0.00    -0.038 C 
ATOM     25  C   UNL     1      31.071 -21.638 -17.672  0.00  0.00    +0.050 C 
ATOM     26  C   UNL     1      30.794 -22.400 -16.524  0.00  0.00    -0.004 C 
ATOM     27  C   UNL     1      33.399 -22.213 -17.502  0.00  0.00    -0.028 C 
ATOM     28  C   UNL     1      31.832 -23.080 -15.852  0.00  0.00    +0.060 C 
ATOM     29  C   UNL     1      33.123 -22.970 -16.361  0.00  0.00    +0.071 C 
ATOM     30  C   UNL     1      29.494 -22.511 -16.013  0.00  0.00    -0.001 C 
ATOM     31  C   UNL     1      29.253 -23.271 -14.877  0.00  0.00    +0.020 C 
ATOM     32  C   UNL     1      30.331 -23.899 -14.289  0.00  0.00    +0.098 C 
ENDBRANCH  22  24
ENDBRANCH   5  22
TORSDOF 4
ENDMDL
MODEL 8
REMARK VINA RESULT:     -11.9      1.383      1.958
REMARK  Name = 25145656
REMARK  4 active torsions:
REMARK  status: ('A' for Active; 'I' for Inactive)
REMARK    1  A    between atoms: C_5  and  C_22
REMARK    2  A    between atoms: C_8  and  C_11
REMARK    3  A    between atoms: C_14  and  C_19
REMARK    4  A    between atoms: C_22  and  C_24
REMARK                            x       y       z     vdW  Elec       q    Type
REMARK                         _______ _______ _______ _____ _____    ______ ____
ROOT
ATOM      1  N   UNL     1      34.410 -17.656 -22.097  0.00  0.00    -0.134 N 
ATOM      2  N   UNL     1      34.628 -18.213 -20.886  0.00  0.00    -0.168 NA
ATOM      3  N   UNL     1      34.090 -17.470 -24.285  0.00  0.00    -0.178 NA
ATOM      4  N   UNL     1      34.480 -19.669 -23.350  0.00  0.00    -0.200 NA
ATOM      5  C   UNL     1      34.228 -16.321 -22.344  0.00  0.00    +0.086 C 
ATOM      6  C   UNL     1      34.322 -18.323 -23.303  0.00  0.00    +0.114 C 
ATOM      7  C   UNL     1      34.032 -16.233 -23.699  0.00  0.00    +0.124 C 
ATOM      8  C   UNL     1      34.759 -19.505 -20.907  0.00  0.00    +0.103 C 
ATOM      9  C   UNL     1      34.696 -20.252 -22.217  0.00  0.00    +0.184 C 
ENDROOT
BRANCH   8  11
ATOM     10  F   UNL     1      37.431 -20.462 -16.971  0.00  0.00    -0.204 F 
ATOM     11  C   UNL     1      34.981 -20.252 -19.647  0.00  0.00    +0.019 C 
ATOM     12  C   UNL     1      36.122 -20.005 -18.884  0.00  0.00    +0.031 C 
ATOM     13  C   UNL     1      34.050 -21.200 -19.224  0.00  0.00    +0.002 C 
ATOM     14  C   UNL     1      35.401 -21.657 -17.274  0.00  0.00    +0.081 C 
ATOM     15  C   UNL     1      36.331 -20.708 -17.697  0.00  0.00    +0.144 C 
ATOM     16  C   UNL     1      34.260 -21.902 -18.038  0.00  0.00    +0.007 C 
BRANCH  14  19
ATOM     17  O   UNL     1      34.698 -22.506 -15.204  0.00  0.00    -0.270 OA
ATOM     18  N   UNL     1      36.876 -22.967 -15.851  0.00  0.00    -0.299 N 
ATOM     19  C   UNL     1      35.615 -22.390 -16.037  0.00  0.00    +0.248 C 
ATOM     20  C   UNL     1      37.235 -23.746 -14.687  0.00  0.00    +0.111 C 
ATOM     21  H   UNL     1      37.557 -22.836 -16.550  0.00  0.00    +0.150 HD
ENDBRANCH  14  19
ENDBRANCH   8  11
BRANCH   5  22
ATOM     22  C   UNL     1      34.257 -15.261 -21.261  0.00  0.00    +0.068 C 
BRANCH  22  24
ATOM     23  N   UNL     1      31.905 -10.357 -22.822  0.00  0.00    -0.248 NA
ATOM     24  C   UNL     1      33.633 -13.968 -21.663  0.00  0.00    -0.038 C 
ATOM     25  C   UNL     1      32.771 -13.307 -20.794  0.00  0.00    +0.050 C 
ATOM     26  C   UNL     1      32.180 -12.089 -21.169  0.00  0.00    -0.004 C 
ATOM     27  C   UNL     1      33.908 -13.417 -22.909  0.00  0.00    -0.028 C 
ATOM     28  C   UNL     1      32.454 -11.522 -22.432  0.00  0.00    +0.060 C 
ATOM     29  C   UNL     1      33.320 -12.205 -23.281  0.00  0.00    +0.071 C 
ATOM     30  C   UNL     1      31.310 -11.401 -20.312  0.00  0.00    -0.001 C 
ATOM     31  C   UNL     1      30.742 -10.199 -20.713  0.00  0.00    +0.020 C 
ATOM     32  C   UNL     1      31.070  -9.725 -21.966  0.00  0.00    +0.098 C 
ENDBRANCH  22  24
ENDBRANCH   5  22
TORSDOF 4
ENDMDL
MODEL 9
REMARK VINA RESULT:     -11.8      4.116     10.061
REMARK  Name = 25145656
REMARK  4 active torsions:
REMARK  status: ('A' for Active; 'I' for Inactive)
REMARK    1  A    between atoms: C_5  and  C_22
REMARK    2  A    between atoms: C_8  and  C_11
REMARK    3  A    between atoms: C_14  and  C_19
REMARK    4  A    between atoms: C_22  and  C_24
REMARK                            x       y       z     vdW  Elec       q    Type
REMARK                         _______ _______ _______ _____ _____    ______ ____
ROOT
ATOM      1  N   UNL     1      35.139 -22.590 -16.094  0.00  0.00    -0.134 N 
ATOM      2  N   UNL     1      34.768 -22.096 -17.295  0.00  0.00    -0.168 NA
ATOM      3  N   UNL     1      36.295 -22.888 -14.224  0.00  0.00    -0.178 NA
ATOM      4  N   UNL     1      37.092 -21.268 -15.836  0.00  0.00    -0.200 NA
ATOM      5  C   UNL     1      34.475 -23.555 -15.385  0.00  0.00    +0.086 C 
ATOM      6  C   UNL     1      36.243 -22.210 -15.356  0.00  0.00    +0.114 C 
ATOM      7  C   UNL     1      35.207 -23.721 -14.236  0.00  0.00    +0.124 C 
ATOM      8  C   UNL     1      35.557 -21.175 -17.762  0.00  0.00    +0.103 C 
ATOM      9  C   UNL     1      36.786 -20.766 -16.987  0.00  0.00    +0.184 C 
ENDROOT
BRANCH   8  11
ATOM     10  F   UNL     1      36.943 -18.523 -21.583  0.00  0.00    -0.204 F 
ATOM     11  C   UNL     1      35.261 -20.530 -19.062  0.00  0.00    +0.019 C 
ATOM     12  C   UNL     1      36.256 -19.815 -19.727  0.00  0.00    +0.031 C 
ATOM     13  C   UNL     1      33.987 -20.637 -19.619  0.00  0.00    +0.002 C 
ATOM     14  C   UNL     1      34.704 -19.313 -21.510  0.00  0.00    +0.081 C 
ATOM     15  C   UNL     1      35.978 -19.207 -20.951  0.00  0.00    +0.144 C 
ATOM     16  C   UNL     1      33.709 -20.029 -20.843  0.00  0.00    +0.007 C 
BRANCH  14  19
ATOM     17  O   UNL     1      34.170 -19.373 -23.792  0.00  0.00    -0.270 OA
ATOM     18  N   UNL     1      34.387 -17.283 -22.812  0.00  0.00    -0.299 N 
ATOM     19  C   UNL     1      34.409 -18.682 -22.786  0.00  0.00    +0.248 C 
ATOM     20  C   UNL     1      34.087 -16.511 -23.996  0.00  0.00    +0.111 C 
ATOM     21  H   UNL     1      34.586 -16.798 -21.979  0.00  0.00    +0.150 HD
ENDBRANCH  14  19
ENDBRANCH   8  11
BRANCH   5  22
ATOM     22  C   UNL     1      33.206 -24.224 -15.874  0.00  0.00    +0.068 C 
BRANCH  22  24
ATOM     23  N   UNL     1      28.483 -21.504 -14.349  0.00  0.00    -0.248 NA
ATOM     24  C   UNL     1      31.956 -23.512 -15.480  0.00  0.00    -0.038 C 
ATOM     25  C   UNL     1      30.783 -23.704 -16.203  0.00  0.00    +0.050 C 
ATOM     26  C   UNL     1      29.603 -23.036 -15.835  0.00  0.00    -0.004 C 
ATOM     27  C   UNL     1      31.956 -22.652 -14.388  0.00  0.00    -0.028 C 
ATOM     28  C   UNL     1      29.595 -22.161 -14.728  0.00  0.00    +0.060 C 
ATOM     29  C   UNL     1      30.783 -21.987 -14.023  0.00  0.00    +0.071 C 
ATOM     30  C   UNL     1      28.408 -23.212 -16.545  0.00  0.00    -0.001 C 
ATOM     31  C   UNL     1      27.259 -22.535 -16.156  0.00  0.00    +0.020 C 
ATOM     32  C   UNL     1      27.350 -21.702 -15.061  0.00  0.00    +0.098 C 
ENDBRANCH  22  24
ENDBRANCH   5  22
TORSDOF 4
ENDMDL
