MODEL 1
REMARK VINA RESULT:     -10.6      0.000      0.000
REMARK  Name = 3081361
REMARK  5 active torsions:
REMARK  status: ('A' for Active; 'I' for Inactive)
REMARK    1  A    between atoms: N_2  and  C_15
REMARK    2  A    between atoms: C_4  and  O_23
REMARK    3  A    between atoms: C_5  and  O_21
REMARK    4  A    between atoms: O_23  and  C_24
REMARK    5  A    between atoms: C_24  and  C_26
REMARK                            x       y       z     vdW  Elec       q    Type
REMARK                         _______ _______ _______ _____ _____    ______ ____
ROOT
ATOM      1  N   UNL     1      32.338 -12.649 -20.217  0.00  0.00    -0.248 NA
ATOM      2  N   UNL     1      31.621  -9.881 -23.209  0.00  0.00    -0.296 N 
ATOM      3  N   UNL     1      31.624 -10.461 -20.929  0.00  0.00    -0.230 NA
ATOM      4  C   UNL     1      33.304 -14.633 -23.131  0.00  0.00    +0.156 C 
ATOM      5  C   UNL     1      33.082 -13.746 -24.170  0.00  0.00    +0.169 C 
ATOM      6  C   UNL     1      33.055 -14.264 -21.811  0.00  0.00    +0.112 C 
ATOM      7  C   UNL     1      32.576 -12.996 -21.496  0.00  0.00    +0.066 C 
ATOM      8  C   UNL     1      32.351 -12.098 -22.552  0.00  0.00    +0.048 C 
ATOM      9  C   UNL     1      32.602 -12.472 -23.883  0.00  0.00    +0.044 C 
ATOM     10  C   UNL     1      31.872 -10.840 -22.197  0.00  0.00    +0.131 C 
ATOM     11  C   UNL     1      31.876 -11.401 -20.004  0.00  0.00    +0.252 C 
ATOM     12  H   UNL     1      31.357 -10.274 -24.072  0.00  0.00    +0.154 HD
ENDROOT
BRANCH   2  15
ATOM     13 BR   UNL     1      31.851  -3.796 -23.260  0.00  0.00    -0.049 Br
ATOM     14  F   UNL     1      34.050  -8.524 -23.300  0.00  0.00    -0.203 F 
ATOM     15  C   UNL     1      31.676  -8.478 -23.220  0.00  0.00    +0.077 C 
ATOM     16  C   UNL     1      32.909  -7.820 -23.266  0.00  0.00    +0.154 C 
ATOM     17  C   UNL     1      30.496  -7.730 -23.187  0.00  0.00    +0.017 C 
ATOM     18  C   UNL     1      32.961  -6.425 -23.278  0.00  0.00    +0.038 C 
ATOM     19  C   UNL     1      30.548  -6.336 -23.198  0.00  0.00    +0.008 C 
ATOM     20  C   UNL     1      31.781  -5.684 -23.243  0.00  0.00    +0.037 C 
ENDBRANCH   2  15
BRANCH   5  21
ATOM     21  O   UNL     1      33.322 -14.101 -25.462  0.00  0.00    -0.469 OA
ATOM     22  C   UNL     1      32.997 -13.145 -26.470  0.00  0.00    +0.253 C 
ENDBRANCH   5  21
BRANCH   4  23
ATOM     23  O   UNL     1      33.776 -15.897 -23.391  0.00  0.00    -0.476 OA
BRANCH  23  24
ATOM     24  C   UNL     1      35.084 -16.198 -22.942  0.00  0.00    +0.205 C 
BRANCH  24  26
ATOM     25  N   UNL     1      35.243 -19.969 -20.840  0.00  0.00    +0.386 N 
ATOM     26  C   UNL     1      34.985 -17.212 -21.806  0.00  0.00    +0.040 C 
ATOM     27  C   UNL     1      36.345 -17.863 -21.527  0.00  0.00    -0.019 C 
ATOM     28  C   UNL     1      33.949 -18.296 -22.123  0.00  0.00    -0.019 C 
ATOM     29  C   UNL     1      36.233 -18.952 -20.459  0.00  0.00    -0.077 C 
ATOM     30  C   UNL     1      33.916 -19.370 -21.035  0.00  0.00    -0.077 C 
ATOM     31  C   UNL     1      35.185 -21.029 -19.835  0.00  0.00    -0.101 C 
ATOM     32  H   UNL     1      35.537 -20.376 -21.728  0.00  0.00    -0.080 HD
ENDBRANCH  24  26
ENDBRANCH  23  24
ENDBRANCH   4  23
TORSDOF 5
ENDMDL
MODEL 2
REMARK VINA RESULT:     -10.5      1.171      1.560
REMARK  Name = 3081361
REMARK  5 active torsions:
REMARK  status: ('A' for Active; 'I' for Inactive)
REMARK    1  A    between atoms: N_2  and  C_15
REMARK    2  A    between atoms: C_4  and  O_23
REMARK    3  A    between atoms: C_5  and  O_21
REMARK    4  A    between atoms: O_23  and  C_24
REMARK    5  A    between atoms: C_24  and  C_26
REMARK                            x       y       z     vdW  Elec       q    Type
REMARK                         _______ _______ _______ _____ _____    ______ ____
ROOT
ATOM      1  N   UNL     1      31.610 -11.029 -20.026  0.00  0.00    -0.248 NA
ATOM      2  N   UNL     1      31.443  -8.727 -23.461  0.00  0.00    -0.296 N 
ATOM      3  N   UNL     1      31.140  -8.943 -21.138  0.00  0.00    -0.230 NA
ATOM      4  C   UNL     1      32.762 -13.491 -22.470  0.00  0.00    +0.156 C 
ATOM      5  C   UNL     1      32.726 -12.766 -23.648  0.00  0.00    +0.169 C 
ATOM      6  C   UNL     1      32.390 -12.908 -21.260  0.00  0.00    +0.112 C 
ATOM      7  C   UNL     1      31.969 -11.583 -21.199  0.00  0.00    +0.066 C 
ATOM      8  C   UNL     1      31.932 -10.850 -22.397  0.00  0.00    +0.048 C 
ATOM      9  C   UNL     1      32.308 -11.439 -23.616  0.00  0.00    +0.044 C 
ATOM     10  C   UNL     1      31.506  -9.528 -22.295  0.00  0.00    +0.131 C 
ATOM     11  C   UNL     1      31.216  -9.740 -20.060  0.00  0.00    +0.252 C 
ATOM     12  H   UNL     1      31.253  -9.235 -24.282  0.00  0.00    +0.154 HD
ENDROOT
BRANCH   2  15
ATOM     13 BR   UNL     1      32.110  -2.745 -24.386  0.00  0.00    -0.049 Br
ATOM     14  F   UNL     1      33.913  -7.481 -23.155  0.00  0.00    -0.203 F 
ATOM     15  C   UNL     1      31.599  -7.347 -23.673  0.00  0.00    +0.077 C 
ATOM     16  C   UNL     1      32.851  -6.746 -23.513  0.00  0.00    +0.154 C 
ATOM     17  C   UNL     1      30.501  -6.567 -24.048  0.00  0.00    +0.017 C 
ATOM     18  C   UNL     1      33.003  -5.375 -23.726  0.00  0.00    +0.038 C 
ATOM     19  C   UNL     1      30.654  -5.197 -24.260  0.00  0.00    +0.008 C 
ATOM     20  C   UNL     1      31.904  -4.601 -24.098  0.00  0.00    +0.037 C 
ENDBRANCH   2  15
BRANCH   5  21
ATOM     21  O   UNL     1      33.088 -13.330 -24.833  0.00  0.00    -0.469 OA
ATOM     22  C   UNL     1      32.552 -12.749 -26.020  0.00  0.00    +0.253 C 
ENDBRANCH   5  21
BRANCH   4  23
ATOM     23  O   UNL     1      33.171 -14.803 -22.478  0.00  0.00    -0.476 OA
BRANCH  23  24
ATOM     24  C   UNL     1      34.412 -15.084 -23.098  0.00  0.00    +0.205 C 
BRANCH  24  26
ATOM     25  N   UNL     1      34.346 -19.008 -21.292  0.00  0.00    +0.386 N 
ATOM     26  C   UNL     1      34.892 -16.452 -22.621  0.00  0.00    +0.040 C 
ATOM     27  C   UNL     1      34.104 -17.580 -23.297  0.00  0.00    -0.019 C 
ATOM     28  C   UNL     1      34.773 -16.579 -21.099  0.00  0.00    -0.019 C 
ATOM     29  C   UNL     1      34.511 -18.950 -22.750  0.00  0.00    -0.077 C 
ATOM     30  C   UNL     1      35.157 -17.981 -20.624  0.00  0.00    -0.077 C 
ATOM     31  C   UNL     1      34.688 -20.338 -20.791  0.00  0.00    -0.101 C 
ATOM     32  H   UNL     1      33.366 -18.821 -21.079  0.00  0.00    -0.080 HD
ENDBRANCH  24  26
ENDBRANCH  23  24
ENDBRANCH   4  23
TORSDOF 5
ENDMDL
MODEL 3
REMARK VINA RESULT:     -10.2      6.693     10.408
REMARK  Name = 3081361
REMARK  5 active torsions:
REMARK  status: ('A' for Active; 'I' for Inactive)
REMARK    1  A    between atoms: N_2  and  C_15
REMARK    2  A    between atoms: C_4  and  O_23
REMARK    3  A    between atoms: C_5  and  O_21
REMARK    4  A    between atoms: O_23  and  C_24
REMARK    5  A    between atoms: C_24  and  C_26
REMARK                            x       y       z     vdW  Elec       q    Type
REMARK                         _______ _______ _______ _____ _____    ______ ____
ROOT
ATOM      1  N   UNL     1      32.047 -21.699 -18.876  0.00  0.00    -0.248 NA
ATOM      2  N   UNL     1      34.746 -19.316 -20.916  0.00  0.00    -0.296 N 
ATOM      3  N   UNL     1      32.564 -20.156 -20.652  0.00  0.00    -0.230 NA
ATOM      4  C   UNL     1      35.057 -22.366 -16.913  0.00  0.00    +0.156 C 
ATOM      5  C   UNL     1      36.001 -21.585 -17.558  0.00  0.00    +0.169 C 
ATOM      6  C   UNL     1      33.736 -22.402 -17.354  0.00  0.00    +0.112 C 
ATOM      7  C   UNL     1      33.325 -21.657 -18.456  0.00  0.00    +0.066 C 
ATOM      8  C   UNL     1      34.285 -20.867 -19.109  0.00  0.00    +0.048 C 
ATOM      9  C   UNL     1      35.616 -20.831 -18.663  0.00  0.00    +0.044 C 
ATOM     10  C   UNL     1      33.835 -20.136 -20.207  0.00  0.00    +0.131 C 
ATOM     11  C   UNL     1      31.737 -20.946 -19.950  0.00  0.00    +0.252 C 
ATOM     12  H   UNL     1      35.673 -19.647 -20.901  0.00  0.00    +0.154 HD
ENDROOT
BRANCH   2  15
ATOM     13 BR   UNL     1      34.038 -14.130 -24.029  0.00  0.00    -0.049 Br
ATOM     14  F   UNL     1      34.261 -19.327 -23.657  0.00  0.00    -0.203 F 
ATOM     15  C   UNL     1      34.584 -18.121 -21.636  0.00  0.00    +0.077 C 
ATOM     16  C   UNL     1      34.341 -18.154 -23.012  0.00  0.00    +0.154 C 
ATOM     17  C   UNL     1      34.661 -16.890 -20.978  0.00  0.00    +0.017 C 
ATOM     18  C   UNL     1      34.178 -16.965 -23.725  0.00  0.00    +0.038 C 
ATOM     19  C   UNL     1      34.499 -15.702 -21.691  0.00  0.00    +0.008 C 
ATOM     20  C   UNL     1      34.258 -15.740 -23.064  0.00  0.00    +0.037 C 
ENDBRANCH   2  15
BRANCH   5  21
ATOM     21  O   UNL     1      37.293 -21.546 -17.131  0.00  0.00    -0.469 OA
ATOM     22  C   UNL     1      37.621 -20.573 -16.142  0.00  0.00    +0.253 C 
ENDBRANCH   5  21
BRANCH   4  23
ATOM     23  O   UNL     1      35.415 -23.119 -15.821  0.00  0.00    -0.476 OA
BRANCH  23  24
ATOM     24  C   UNL     1      34.587 -24.222 -15.503  0.00  0.00    +0.205 C 
BRANCH  24  26
ATOM     25  N   UNL     1      35.511 -23.633 -11.325  0.00  0.00    +0.386 N 
ATOM     26  C   UNL     1      34.699 -24.497 -14.006  0.00  0.00    +0.040 C 
ATOM     27  C   UNL     1      33.900 -23.470 -13.195  0.00  0.00    -0.019 C 
ATOM     28  C   UNL     1      36.162 -24.490 -13.552  0.00  0.00    -0.019 C 
ATOM     29  C   UNL     1      34.089 -23.679 -11.692  0.00  0.00    -0.077 C 
ATOM     30  C   UNL     1      36.277 -24.664 -12.037  0.00  0.00    -0.077 C 
ATOM     31  C   UNL     1      35.671 -23.781  -9.879  0.00  0.00    -0.101 C 
ATOM     32  H   UNL     1      35.878 -22.722 -11.602  0.00  0.00    -0.080 HD
ENDBRANCH  24  26
ENDBRANCH  23  24
ENDBRANCH   4  23
TORSDOF 5
ENDMDL
MODEL 4
REMARK VINA RESULT:      -9.9      2.179      3.233
REMARK  Name = 3081361
REMARK  5 active torsions:
REMARK  status: ('A' for Active; 'I' for Inactive)
REMARK    1  A    between atoms: N_2  and  C_15
REMARK    2  A    between atoms: C_4  and  O_23
REMARK    3  A    between atoms: C_5  and  O_21
REMARK    4  A    between atoms: O_23  and  C_24
REMARK    5  A    between atoms: C_24  and  C_26
REMARK                            x       y       z     vdW  Elec       q    Type
REMARK                         _______ _______ _______ _____ _____    ______ ____
ROOT
ATOM      1  N   UNL     1      31.472  -8.718 -19.101  0.00  0.00    -0.248 NA
ATOM      2  N   UNL     1      31.184  -7.285 -22.973  0.00  0.00    -0.296 N 
ATOM      3  N   UNL     1      31.151  -6.902 -20.651  0.00  0.00    -0.230 NA
ATOM      4  C   UNL     1      31.966 -11.835 -20.945  0.00  0.00    +0.156 C 
ATOM      5  C   UNL     1      31.878 -11.409 -22.259  0.00  0.00    +0.169 C 
ATOM      6  C   UNL     1      31.830 -10.934 -19.891  0.00  0.00    +0.112 C 
ATOM      7  C   UNL     1      31.603  -9.580 -20.125  0.00  0.00    +0.066 C 
ATOM      8  C   UNL     1      31.514  -9.151 -21.460  0.00  0.00    +0.048 C 
ATOM      9  C   UNL     1      31.651 -10.061 -22.522  0.00  0.00    +0.044 C 
ATOM     10  C   UNL     1      31.285  -7.791 -21.653  0.00  0.00    +0.131 C 
ATOM     11  C   UNL     1      31.254  -7.426 -19.420  0.00  0.00    +0.252 C 
ATOM     12  H   UNL     1      30.826  -7.934 -23.621  0.00  0.00    +0.154 HD
ENDROOT
BRANCH   2  15
ATOM     13 BR   UNL     1      32.528  -1.872 -25.417  0.00  0.00    -0.049 Br
ATOM     14  F   UNL     1      33.822  -6.490 -23.371  0.00  0.00    -0.203 F 
ATOM     15  C   UNL     1      31.496  -6.037 -23.535  0.00  0.00    +0.077 C 
ATOM     16  C   UNL     1      32.830  -5.661 -23.725  0.00  0.00    +0.154 C 
ATOM     17  C   UNL     1      30.473  -5.162 -23.912  0.00  0.00    +0.017 C 
ATOM     18  C   UNL     1      33.136  -4.421 -24.286  0.00  0.00    +0.038 C 
ATOM     19  C   UNL     1      30.780  -3.922 -24.471  0.00  0.00    +0.008 C 
ATOM     20  C   UNL     1      32.112  -3.551 -24.658  0.00  0.00    +0.037 C 
ENDBRANCH   2  15
BRANCH   5  21
ATOM     21  O   UNL     1      32.009 -12.285 -23.293  0.00  0.00    -0.469 OA
ATOM     22  C   UNL     1      32.993 -11.982 -24.281  0.00  0.00    +0.253 C 
ENDBRANCH   5  21
BRANCH   4  23
ATOM     23  O   UNL     1      32.189 -13.160 -20.663  0.00  0.00    -0.476 OA
BRANCH  23  24
ATOM     24  C   UNL     1      33.536 -13.595 -20.649  0.00  0.00    +0.205 C 
BRANCH  24  26
ATOM     25  N   UNL     1      35.200 -17.155 -22.445  0.00  0.00    +0.386 N 
ATOM     26  C   UNL     1      33.608 -14.969 -21.310  0.00  0.00    +0.040 C 
ATOM     27  C   UNL     1      34.386 -15.961 -20.437  0.00  0.00    -0.019 C 
ATOM     28  C   UNL     1      34.256 -14.882 -22.695  0.00  0.00    -0.019 C 
ATOM     29  C   UNL     1      34.549 -17.311 -21.137  0.00  0.00    -0.077 C 
ATOM     30  C   UNL     1      34.423 -16.268 -23.321  0.00  0.00    -0.077 C 
ATOM     31  C   UNL     1      35.395 -18.458 -23.078  0.00  0.00    -0.101 C 
ATOM     32  H   UNL     1      36.113 -16.726 -22.292  0.00  0.00    -0.080 HD
ENDBRANCH  24  26
ENDBRANCH  23  24
ENDBRANCH   4  23
TORSDOF 5
ENDMDL
MODEL 5
REMARK VINA RESULT:      -9.8      6.545     10.116
REMARK  Name = 3081361
REMARK  5 active torsions:
REMARK  status: ('A' for Active; 'I' for Inactive)
REMARK    1  A    between atoms: N_2  and  C_15
REMARK    2  A    between atoms: C_4  and  O_23
REMARK    3  A    between atoms: C_5  and  O_21
REMARK    4  A    between atoms: O_23  and  C_24
REMARK    5  A    between atoms: C_24  and  C_26
REMARK                            x       y       z     vdW  Elec       q    Type
REMARK                         _______ _______ _______ _____ _____    ______ ____
ROOT
ATOM      1  N   UNL     1      32.091 -21.758 -19.006  0.00  0.00    -0.248 NA
ATOM      2  N   UNL     1      34.751 -19.150 -20.809  0.00  0.00    -0.296 N 
ATOM      3  N   UNL     1      32.604 -20.104 -20.682  0.00  0.00    -0.230 NA
ATOM      4  C   UNL     1      35.048 -22.379 -16.949  0.00  0.00    +0.156 C 
ATOM      5  C   UNL     1      35.977 -21.523 -17.514  0.00  0.00    +0.169 C 
ATOM      6  C   UNL     1      33.750 -22.455 -17.448  0.00  0.00    +0.112 C 
ATOM      7  C   UNL     1      33.347 -21.676 -18.530  0.00  0.00    +0.066 C 
ATOM      8  C   UNL     1      34.293 -20.810 -19.102  0.00  0.00    +0.048 C 
ATOM      9  C   UNL     1      35.602 -20.733 -18.596  0.00  0.00    +0.044 C 
ATOM     10  C   UNL     1      33.853 -20.047 -20.181  0.00  0.00    +0.131 C 
ATOM     11  C   UNL     1      31.788 -20.966 -20.055  0.00  0.00    +0.252 C 
ATOM     12  H   UNL     1      35.692 -19.437 -20.770  0.00  0.00    +0.154 HD
ENDROOT
BRANCH   2  15
ATOM     13 BR   UNL     1      33.915 -13.853 -23.696  0.00  0.00    -0.049 Br
ATOM     14  F   UNL     1      34.424 -19.042 -23.571  0.00  0.00    -0.203 F 
ATOM     15  C   UNL     1      34.559 -17.929 -21.477  0.00  0.00    +0.077 C 
ATOM     16  C   UNL     1      34.397 -17.902 -22.866  0.00  0.00    +0.154 C 
ATOM     17  C   UNL     1      34.526 -16.733 -20.755  0.00  0.00    +0.017 C 
ATOM     18  C   UNL     1      34.205 -16.688 -23.526  0.00  0.00    +0.038 C 
ATOM     19  C   UNL     1      34.335 -15.519 -21.416  0.00  0.00    +0.008 C 
ATOM     20  C   UNL     1      34.175 -15.497 -22.801  0.00  0.00    +0.037 C 
ENDBRANCH   2  15
BRANCH   5  21
ATOM     21  O   UNL     1      37.248 -21.445 -17.031  0.00  0.00    -0.469 OA
ATOM     22  C   UNL     1      37.648 -20.203 -16.454  0.00  0.00    +0.253 C 
ENDBRANCH   5  21
BRANCH   4  23
ATOM     23  O   UNL     1      35.397 -23.168 -15.880  0.00  0.00    -0.476 OA
BRANCH  23  24
ATOM     24  C   UNL     1      35.779 -22.505 -14.689  0.00  0.00    +0.205 C 
BRANCH  24  26
ATOM     25  N   UNL     1      38.878 -25.455 -14.099  0.00  0.00    +0.386 N 
ATOM     26  C   UNL     1      37.037 -23.173 -14.144  0.00  0.00    +0.040 C 
ATOM     27  C   UNL     1      38.052 -23.434 -15.263  0.00  0.00    -0.019 C 
ATOM     28  C   UNL     1      36.700 -24.489 -13.435  0.00  0.00    -0.019 C 
ATOM     29  C   UNL     1      39.274 -24.194 -14.741  0.00  0.00    -0.077 C 
ATOM     30  C   UNL     1      37.965 -25.214 -12.974  0.00  0.00    -0.077 C 
ATOM     31  C   UNL     1      40.059 -26.194 -13.653  0.00  0.00    -0.101 C 
ATOM     32  H   UNL     1      38.383 -26.018 -14.791  0.00  0.00    -0.080 HD
ENDBRANCH  24  26
ENDBRANCH  23  24
ENDBRANCH   4  23
TORSDOF 5
ENDMDL
MODEL 6
REMARK VINA RESULT:      -9.8      6.651     10.174
REMARK  Name = 3081361
REMARK  5 active torsions:
REMARK  status: ('A' for Active; 'I' for Inactive)
REMARK    1  A    between atoms: N_2  and  C_15
REMARK    2  A    between atoms: C_4  and  O_23
REMARK    3  A    between atoms: C_5  and  O_21
REMARK    4  A    between atoms: O_23  and  C_24
REMARK    5  A    between atoms: C_24  and  C_26
REMARK                            x       y       z     vdW  Elec       q    Type
REMARK                         _______ _______ _______ _____ _____    ______ ____
ROOT
ATOM      1  N   UNL     1      32.039 -21.722 -18.998  0.00  0.00    -0.248 NA
ATOM      2  N   UNL     1      34.751 -19.268 -20.934  0.00  0.00    -0.296 N 
ATOM      3  N   UNL     1      32.577 -20.146 -20.739  0.00  0.00    -0.230 NA
ATOM      4  C   UNL     1      35.008 -22.369 -16.967  0.00  0.00    +0.156 C 
ATOM      5  C   UNL     1      35.955 -21.564 -17.577  0.00  0.00    +0.169 C 
ATOM      6  C   UNL     1      33.700 -22.419 -17.443  0.00  0.00    +0.112 C 
ATOM      7  C   UNL     1      33.305 -21.666 -18.545  0.00  0.00    +0.066 C 
ATOM      8  C   UNL     1      34.268 -20.851 -19.162  0.00  0.00    +0.048 C 
ATOM      9  C   UNL     1      35.587 -20.801 -18.680  0.00  0.00    +0.044 C 
ATOM     10  C   UNL     1      33.835 -20.113 -20.260  0.00  0.00    +0.131 C 
ATOM     11  C   UNL     1      31.744 -20.959 -20.070  0.00  0.00    +0.252 C 
ATOM     12  H   UNL     1      35.682 -19.585 -20.900  0.00  0.00    +0.154 HD
ENDROOT
BRANCH   2  15
ATOM     13 BR   UNL     1      34.040 -14.051 -23.994  0.00  0.00    -0.049 Br
ATOM     14  F   UNL     1      34.269 -19.251 -23.676  0.00  0.00    -0.203 F 
ATOM     15  C   UNL     1      34.588 -18.066 -21.642  0.00  0.00    +0.077 C 
ATOM     16  C   UNL     1      34.346 -18.085 -23.019  0.00  0.00    +0.154 C 
ATOM     17  C   UNL     1      34.664 -16.842 -20.972  0.00  0.00    +0.017 C 
ATOM     18  C   UNL     1      34.183 -16.889 -23.719  0.00  0.00    +0.038 C 
ATOM     19  C   UNL     1      34.501 -15.647 -21.672  0.00  0.00    +0.008 C 
ATOM     20  C   UNL     1      34.261 -15.671 -23.046  0.00  0.00    +0.037 C 
ENDBRANCH   2  15
BRANCH   5  21
ATOM     21  O   UNL     1      37.235 -21.512 -17.116  0.00  0.00    -0.469 OA
ATOM     22  C   UNL     1      37.548 -20.476 -16.186  0.00  0.00    +0.253 C 
ENDBRANCH   5  21
BRANCH   4  23
ATOM     23  O   UNL     1      35.349 -23.131 -15.876  0.00  0.00    -0.476 OA
BRANCH  23  24
ATOM     24  C   UNL     1      34.754 -22.785 -14.639  0.00  0.00    +0.205 C 
BRANCH  24  26
ATOM     25  N   UNL     1      30.796 -23.752 -13.205  0.00  0.00    +0.386 N 
ATOM     26  C   UNL     1      33.366 -23.416 -14.576  0.00  0.00    +0.040 C 
ATOM     27  C   UNL     1      32.271 -22.343 -14.605  0.00  0.00    -0.019 C 
ATOM     28  C   UNL     1      33.210 -24.280 -13.320  0.00  0.00    -0.019 C 
ATOM     29  C   UNL     1      30.881 -22.961 -14.440  0.00  0.00    -0.077 C 
ATOM     30  C   UNL     1      31.790 -24.834 -13.198  0.00  0.00    -0.077 C 
ATOM     31  C   UNL     1      29.448 -24.293 -13.036  0.00  0.00    -0.101 C 
ATOM     32  H   UNL     1      31.000 -23.133 -12.421  0.00  0.00    -0.080 HD
ENDBRANCH  24  26
ENDBRANCH  23  24
ENDBRANCH   4  23
TORSDOF 5
ENDMDL
MODEL 7
REMARK VINA RESULT:      -9.7      7.935     11.464
REMARK  Name = 3081361
REMARK  5 active torsions:
REMARK  status: ('A' for Active; 'I' for Inactive)
REMARK    1  A    between atoms: N_2  and  C_15
REMARK    2  A    between atoms: C_4  and  O_23
REMARK    3  A    between atoms: C_5  and  O_21
REMARK    4  A    between atoms: O_23  and  C_24
REMARK    5  A    between atoms: C_24  and  C_26
REMARK                            x       y       z     vdW  Elec       q    Type
REMARK                         _______ _______ _______ _____ _____    ______ ____
ROOT
ATOM      1  N   UNL     1      32.245 -22.544 -17.572  0.00  0.00    -0.248 NA
ATOM      2  N   UNL     1      35.019 -20.520 -19.882  0.00  0.00    -0.296 N 
ATOM      3  N   UNL     1      32.861 -21.419 -19.612  0.00  0.00    -0.230 NA
ATOM      4  C   UNL     1      35.079 -22.542 -15.263  0.00  0.00    +0.156 C 
ATOM      5  C   UNL     1      36.044 -21.870 -15.993  0.00  0.00    +0.169 C 
ATOM      6  C   UNL     1      33.809 -22.765 -15.793  0.00  0.00    +0.112 C 
ATOM      7  C   UNL     1      33.473 -22.322 -17.069  0.00  0.00    +0.066 C 
ATOM      8  C   UNL     1      34.455 -21.641 -17.807  0.00  0.00    +0.048 C 
ATOM      9  C   UNL     1      35.735 -21.416 -17.272  0.00  0.00    +0.044 C 
ATOM     10  C   UNL     1      34.081 -21.214 -19.079  0.00  0.00    +0.131 C 
ATOM     11  C   UNL     1      32.006 -22.079 -18.815  0.00  0.00    +0.252 C 
ATOM     12  H   UNL     1      35.954 -20.777 -19.713  0.00  0.00    +0.154 HD
ENDROOT
BRANCH   2  15
ATOM     13 BR   UNL     1      34.380 -16.259 -24.186  0.00  0.00    -0.049 Br
ATOM     14  F   UNL     1      36.917 -18.514 -20.227  0.00  0.00    -0.203 F 
ATOM     15  C   UNL     1      34.873 -19.535 -20.873  0.00  0.00    +0.077 C 
ATOM     16  C   UNL     1      35.841 -18.539 -21.026  0.00  0.00    +0.154 C 
ATOM     17  C   UNL     1      33.758 -19.549 -21.715  0.00  0.00    +0.017 C 
ATOM     18  C   UNL     1      35.694 -17.563 -22.013  0.00  0.00    +0.038 C 
ATOM     19  C   UNL     1      33.611 -18.573 -22.701  0.00  0.00    +0.008 C 
ATOM     20  C   UNL     1      34.579 -17.580 -22.849  0.00  0.00    +0.037 C 
ENDBRANCH   2  15
BRANCH   5  21
ATOM     21  O   UNL     1      37.286 -21.649 -15.481  0.00  0.00    -0.469 OA
ATOM     22  C   UNL     1      38.287 -22.626 -15.761  0.00  0.00    +0.253 C 
ENDBRANCH   5  21
BRANCH   4  23
ATOM     23  O   UNL     1      35.362 -22.999 -13.999  0.00  0.00    -0.476 OA
BRANCH  23  24
ATOM     24  C   UNL     1      34.992 -24.332 -13.701  0.00  0.00    +0.205 C 
BRANCH  24  26
ATOM     25  N   UNL     1      39.102 -25.621 -14.037  0.00  0.00    +0.386 N 
ATOM     26  C   UNL     1      36.262 -25.149 -13.479  0.00  0.00    +0.040 C 
ATOM     27  C   UNL     1      37.374 -24.286 -12.873  0.00  0.00    -0.019 C 
ATOM     28  C   UNL     1      36.750 -25.776 -14.789  0.00  0.00    -0.019 C 
ATOM     29  C   UNL     1      38.680 -25.073 -12.741  0.00  0.00    -0.077 C 
ATOM     30  C   UNL     1      38.076 -26.513 -14.595  0.00  0.00    -0.077 C 
ATOM     31  C   UNL     1      40.377 -26.324 -13.905  0.00  0.00    -0.101 C 
ATOM     32  H   UNL     1      39.225 -24.841 -14.683  0.00  0.00    -0.080 HD
ENDBRANCH  24  26
ENDBRANCH  23  24
ENDBRANCH   4  23
TORSDOF 5
ENDMDL
MODEL 8
REMARK VINA RESULT:      -9.4      6.743     12.139
REMARK  Name = 3081361
REMARK  5 active torsions:
REMARK  status: ('A' for Active; 'I' for Inactive)
REMARK    1  A    between atoms: N_2  and  C_15
REMARK    2  A    between atoms: C_4  and  O_23
REMARK    3  A    between atoms: C_5  and  O_21
REMARK    4  A    between atoms: O_23  and  C_24
REMARK    5  A    between atoms: C_24  and  C_26
REMARK                            x       y       z     vdW  Elec       q    Type
REMARK                         _______ _______ _______ _____ _____    ______ ____
ROOT
ATOM      1  N   UNL     1      36.758 -21.258 -17.567  0.00  0.00    -0.248 NA
ATOM      2  N   UNL     1      32.915 -22.717 -17.085  0.00  0.00    -0.296 N 
ATOM      3  N   UNL     1      35.147 -22.577 -16.354  0.00  0.00    -0.230 NA
ATOM      4  C   UNL     1      35.147 -19.703 -20.456  0.00  0.00    +0.156 C 
ATOM      5  C   UNL     1      33.846 -20.162 -20.342  0.00  0.00    +0.169 C 
ATOM      6  C   UNL     1      36.118 -20.070 -19.527  0.00  0.00    +0.112 C 
ATOM      7  C   UNL     1      35.813 -20.908 -18.458  0.00  0.00    +0.066 C 
ATOM      8  C   UNL     1      34.492 -21.373 -18.346  0.00  0.00    +0.048 C 
ATOM      9  C   UNL     1      33.513 -21.002 -19.283  0.00  0.00    +0.044 C 
ATOM     10  C   UNL     1      34.226 -22.209 -17.264  0.00  0.00    +0.131 C 
ATOM     11  C   UNL     1      36.374 -22.072 -16.563  0.00  0.00    +0.252 C 
ATOM     12  H   UNL     1      32.419 -22.839 -17.926  0.00  0.00    +0.154 HD
ENDROOT
BRANCH   2  15
ATOM     13 BR   UNL     1      29.766 -24.298 -12.119  0.00  0.00    -0.049 Br
ATOM     14  F   UNL     1      30.212 -22.105 -16.829  0.00  0.00    -0.203 F 
ATOM     15  C   UNL     1      32.188 -23.080 -15.940  0.00  0.00    +0.077 C 
ATOM     16  C   UNL     1      30.830 -22.761 -15.837  0.00  0.00    +0.154 C 
ATOM     17  C   UNL     1      32.817 -23.765 -14.898  0.00  0.00    +0.017 C 
ATOM     18  C   UNL     1      30.109 -23.124 -14.698  0.00  0.00    +0.038 C 
ATOM     19  C   UNL     1      32.096 -24.127 -13.760  0.00  0.00    +0.008 C 
ATOM     20  C   UNL     1      30.743 -23.806 -13.660  0.00  0.00    +0.037 C 
ENDBRANCH   2  15
BRANCH   5  21
ATOM     21  O   UNL     1      32.893 -19.808 -21.247  0.00  0.00    -0.469 OA
ATOM     22  C   UNL     1      31.539 -20.113 -20.918  0.00  0.00    +0.253 C 
ENDBRANCH   5  21
BRANCH   4  23
ATOM     23  O   UNL     1      35.498 -18.874 -21.493  0.00  0.00    -0.476 OA
BRANCH  23  24
ATOM     24  C   UNL     1      35.529 -17.485 -21.222  0.00  0.00    +0.205 C 
BRANCH  24  26
ATOM     25  N   UNL     1      33.763 -14.900 -24.200  0.00  0.00    +0.386 N 
ATOM     26  C   UNL     1      34.469 -16.800 -22.080  0.00  0.00    +0.040 C 
ATOM     27  C   UNL     1      34.678 -17.110 -23.567  0.00  0.00    -0.019 C 
ATOM     28  C   UNL     1      34.478 -15.283 -21.862  0.00  0.00    -0.019 C 
ATOM     29  C   UNL     1      33.681 -16.347 -24.441  0.00  0.00    -0.077 C 
ATOM     30  C   UNL     1      33.488 -14.580 -22.792  0.00  0.00    -0.077 C 
ATOM     31  C   UNL     1      32.842 -14.181 -25.079  0.00  0.00    -0.101 C 
ATOM     32  H   UNL     1      34.716 -14.600 -24.409  0.00  0.00    -0.080 HD
ENDBRANCH  24  26
ENDBRANCH  23  24
ENDBRANCH   4  23
TORSDOF 5
ENDMDL
MODEL 9
REMARK VINA RESULT:      -9.3      6.548     12.300
REMARK  Name = 3081361
REMARK  5 active torsions:
REMARK  status: ('A' for Active; 'I' for Inactive)
REMARK    1  A    between atoms: N_2  and  C_15
REMARK    2  A    between atoms: C_4  and  O_23
REMARK    3  A    between atoms: C_5  and  O_21
REMARK    4  A    between atoms: O_23  and  C_24
REMARK    5  A    between atoms: C_24  and  C_26
REMARK                            x       y       z     vdW  Elec       q    Type
REMARK                         _______ _______ _______ _____ _____    ______ ____
ROOT
ATOM      1  N   UNL     1      32.522 -21.739 -19.527  0.00  0.00    -0.248 NA
ATOM      2  N   UNL     1      35.523 -21.662 -16.678  0.00  0.00    -0.296 N 
ATOM      3  N   UNL     1      33.404 -22.402 -17.385  0.00  0.00    -0.230 NA
ATOM      4  C   UNL     1      34.928 -19.579 -21.232  0.00  0.00    +0.156 C 
ATOM      5  C   UNL     1      35.962 -19.519 -20.313  0.00  0.00    +0.169 C 
ATOM      6  C   UNL     1      33.779 -20.322 -20.967  0.00  0.00    +0.112 C 
ATOM      7  C   UNL     1      33.635 -21.025 -19.774  0.00  0.00    +0.066 C 
ATOM      8  C   UNL     1      34.686 -20.962 -18.844  0.00  0.00    +0.048 C 
ATOM      9  C   UNL     1      35.844 -20.212 -19.113  0.00  0.00    +0.044 C 
ATOM     10  C   UNL     1      34.505 -21.678 -17.664  0.00  0.00    +0.131 C 
ATOM     11  C   UNL     1      32.468 -22.389 -18.347  0.00  0.00    +0.252 C 
ATOM     12  H   UNL     1      36.049 -20.830 -16.665  0.00  0.00    +0.154 HD
ENDROOT
BRANCH   2  15
ATOM     13 BR   UNL     1      37.264 -25.740 -12.505  0.00  0.00    -0.049 Br
ATOM     14  F   UNL     1      38.214 -22.129 -16.145  0.00  0.00    -0.203 F 
ATOM     15  C   UNL     1      35.927 -22.602 -15.717  0.00  0.00    +0.077 C 
ATOM     16  C   UNL     1      37.285 -22.818 -15.468  0.00  0.00    +0.154 C 
ATOM     17  C   UNL     1      34.970 -23.328 -15.001  0.00  0.00    +0.017 C 
ATOM     18  C   UNL     1      37.683 -23.753 -14.511  0.00  0.00    +0.038 C 
ATOM     19  C   UNL     1      35.368 -24.262 -14.045  0.00  0.00    +0.008 C 
ATOM     20  C   UNL     1      36.725 -24.475 -13.801  0.00  0.00    +0.037 C 
ENDBRANCH   2  15
BRANCH   5  21
ATOM     21  O   UNL     1      37.086 -18.794 -20.566  0.00  0.00    -0.469 OA
ATOM     22  C   UNL     1      37.158 -18.125 -21.824  0.00  0.00    +0.253 C 
ENDBRANCH   5  21
BRANCH   4  23
ATOM     23  O   UNL     1      35.023 -18.902 -22.423  0.00  0.00    -0.476 OA
BRANCH  23  24
ATOM     24  C   UNL     1      33.821 -18.386 -22.966  0.00  0.00    +0.205 C 
BRANCH  24  26
ATOM     25  N   UNL     1      33.164 -14.185 -23.728  0.00  0.00    +0.386 N 
ATOM     26  C   UNL     1      34.076 -16.956 -23.435  0.00  0.00    +0.040 C 
ATOM     27  C   UNL     1      34.035 -15.975 -22.258  0.00  0.00    -0.019 C 
ATOM     28  C   UNL     1      33.056 -16.534 -24.496  0.00  0.00    -0.019 C 
ATOM     29  C   UNL     1      34.190 -14.529 -22.733  0.00  0.00    -0.077 C 
ATOM     30  C   UNL     1      33.242 -15.070 -24.898  0.00  0.00    -0.077 C 
ATOM     31  C   UNL     1      33.293 -12.786 -24.133  0.00  0.00    -0.101 C 
ATOM     32  H   UNL     1      32.250 -14.317 -23.294  0.00  0.00    -0.080 HD
ENDBRANCH  24  26
ENDBRANCH  23  24
ENDBRANCH   4  23
TORSDOF 5
ENDMDL
