MODEL 1
REMARK VINA RESULT:     -14.3      0.000      0.000
REMARK  Name = 23656870
REMARK  4 active torsions:
REMARK  status: ('A' for Active; 'I' for Inactive)
REMARK    1  A    between atoms: N_2  and  C_25
REMARK    2  A    between atoms: N_3  and  C_14
REMARK    3  A    between atoms: C_10  and  C_32
REMARK    4  A    between atoms: C_16  and  N_21
REMARK                            x       y       z     vdW  Elec       q    Type
REMARK                         _______ _______ _______ _____ _____    ______ ____
ROOT
ATOM      1  N   UNL     1      31.499 -23.072 -14.959  0.00  0.00    -0.123 N 
ATOM      2  N   UNL     1      33.785 -23.428 -14.490  0.00  0.00    -0.274 N 
ATOM      3  N   UNL     1      32.277 -21.911 -18.710  0.00  0.00    -0.238 N 
ATOM      4  N   UNL     1      33.036 -22.669 -16.606  0.00  0.00    -0.295 NA
ATOM      5  N   UNL     1      30.714 -22.321 -17.046  0.00  0.00    -0.314 NA
ATOM      6  N   UNL     1      31.122 -23.445 -13.722  0.00  0.00    -0.170 NA
ATOM      7  C   UNL     1      32.818 -23.051 -15.381  0.00  0.00    +0.279 C 
ATOM      8  C   UNL     1      30.465 -22.715 -15.776  0.00  0.00    +0.219 C 
ATOM      9  C   UNL     1      31.972 -22.306 -17.429  0.00  0.00    +0.207 C 
ATOM     10  C   UNL     1      29.327 -22.865 -15.017  0.00  0.00    +0.203 C 
ATOM     11  C   UNL     1      29.792 -23.315 -13.764  0.00  0.00    +0.116 C 
ATOM     12  H   UNL     1      33.467 -23.692 -13.596  0.00  0.00    +0.156 HD
ATOM     13  H   UNL     1      31.592 -22.094 -19.393  0.00  0.00    +0.166 HD
ENDROOT
BRANCH   3  14
ATOM     14  C   UNL     1      33.437 -21.285 -19.162  0.00  0.00    +0.060 C 
ATOM     15  C   UNL     1      33.360 -20.306 -20.153  0.00  0.00    +0.030 C 
ATOM     16  C   UNL     1      34.521 -19.678 -20.604  0.00  0.00    +0.052 C 
ATOM     17  C   UNL     1      34.675 -21.636 -18.622  0.00  0.00    +0.015 C 
ATOM     18  C   UNL     1      35.758 -20.029 -20.065  0.00  0.00    +0.015 C 
ATOM     19  C   UNL     1      35.836 -21.008 -19.074  0.00  0.00    +0.003 C 
BRANCH  16  21
ATOM     20  O   UNL     1      34.948 -16.702 -20.453  0.00  0.00    -0.275 OA
ATOM     21  N   UNL     1      34.445 -18.701 -21.596  0.00  0.00    -0.284 N 
ATOM     22  C   UNL     1      34.654 -17.320 -21.470  0.00  0.00    +0.227 C 
ATOM     23  C   UNL     1      34.477 -16.605 -22.786  0.00  0.00    +0.095 C 
ATOM     24  H   UNL     1      34.217 -19.020 -22.500  0.00  0.00    +0.155 HD
ENDBRANCH  16  21
ENDBRANCH   3  14
BRANCH   2  25
ATOM     25  C   UNL     1      35.168 -23.487 -14.686  0.00  0.00    +0.051 C 
ATOM     26  C   UNL     1      35.850 -22.376 -15.181  0.00  0.00    +0.015 C 
ATOM     27  C   UNL     1      35.866 -24.657 -14.387  0.00  0.00    +0.015 C 
ATOM     28  C   UNL     1      37.230 -22.434 -15.377  0.00  0.00    +0.001 C 
ATOM     29  C   UNL     1      37.246 -24.715 -14.582  0.00  0.00    +0.001 C 
ATOM     30  C   UNL     1      37.928 -23.604 -15.077  0.00  0.00    +0.000 C 
ENDBRANCH   2  25
BRANCH  10  32
ATOM     31  N   UNL     1      26.899 -22.409 -15.763  0.00  0.00    -0.195 NA
ATOM     32  C   UNL     1      27.992 -22.614 -15.428  0.00  0.00    +0.087 C 
ENDBRANCH  10  32
TORSDOF 4
ENDMDL
MODEL 2
REMARK VINA RESULT:     -11.9      2.625      6.299
REMARK  Name = 23656870
REMARK  4 active torsions:
REMARK  status: ('A' for Active; 'I' for Inactive)
REMARK    1  A    between atoms: N_2  and  C_25
REMARK    2  A    between atoms: N_3  and  C_14
REMARK    3  A    between atoms: C_10  and  C_32
REMARK    4  A    between atoms: C_16  and  N_21
REMARK                            x       y       z     vdW  Elec       q    Type
REMARK                         _______ _______ _______ _____ _____    ______ ____
ROOT
ATOM      1  N   UNL     1      30.861 -22.912 -16.461  0.00  0.00    -0.123 N 
ATOM      2  N   UNL     1      31.901 -21.814 -18.274  0.00  0.00    -0.274 N 
ATOM      3  N   UNL     1      34.214 -22.840 -14.277  0.00  0.00    -0.238 N 
ATOM      4  N   UNL     1      33.065 -22.324 -16.274  0.00  0.00    -0.295 NA
ATOM      5  N   UNL     1      31.980 -23.436 -14.459  0.00  0.00    -0.314 NA
ATOM      6  N   UNL     1      29.681 -22.992 -17.104  0.00  0.00    -0.170 NA
ATOM      7  C   UNL     1      31.992 -22.332 -17.011  0.00  0.00    +0.279 C 
ATOM      8  C   UNL     1      30.854 -23.453 -15.208  0.00  0.00    +0.219 C 
ATOM      9  C   UNL     1      33.044 -22.882 -14.997  0.00  0.00    +0.207 C 
ATOM     10  C   UNL     1      29.574 -23.922 -15.017  0.00  0.00    +0.203 C 
ATOM     11  C   UNL     1      28.899 -23.611 -16.215  0.00  0.00    +0.116 C 
ATOM     12  H   UNL     1      31.021 -21.893 -18.709  0.00  0.00    +0.156 HD
ATOM     13  H   UNL     1      34.117 -22.792 -13.299  0.00  0.00    +0.166 HD
ENDROOT
BRANCH   3  14
ATOM     14  C   UNL     1      35.521 -22.857 -14.760  0.00  0.00    +0.060 C 
ATOM     15  C   UNL     1      36.371 -23.915 -14.437  0.00  0.00    +0.030 C 
ATOM     16  C   UNL     1      37.678 -23.932 -14.922  0.00  0.00    +0.052 C 
ATOM     17  C   UNL     1      35.979 -21.816 -15.568  0.00  0.00    +0.015 C 
ATOM     18  C   UNL     1      38.136 -22.892 -15.730  0.00  0.00    +0.015 C 
ATOM     19  C   UNL     1      37.287 -21.833 -16.054  0.00  0.00    +0.003 C 
BRANCH  16  21
ATOM     20  O   UNL     1      40.578 -23.929 -14.111  0.00  0.00    -0.275 OA
ATOM     21  N   UNL     1      38.529 -24.989 -14.598  0.00  0.00    -0.284 N 
ATOM     22  C   UNL     1      39.879 -24.930 -14.226  0.00  0.00    +0.227 C 
ATOM     23  C   UNL     1      40.445 -26.302 -13.955  0.00  0.00    +0.095 C 
ATOM     24  H   UNL     1      38.132 -25.890 -14.634  0.00  0.00    +0.155 HD
ENDBRANCH  16  21
ENDBRANCH   3  14
BRANCH   2  25
ATOM     25  C   UNL     1      32.897 -21.186 -19.026  0.00  0.00    +0.051 C 
ATOM     26  C   UNL     1      34.234 -21.540 -18.848  0.00  0.00    +0.015 C 
ATOM     27  C   UNL     1      32.555 -20.204 -19.956  0.00  0.00    +0.015 C 
ATOM     28  C   UNL     1      35.229 -20.914 -19.598  0.00  0.00    +0.001 C 
ATOM     29  C   UNL     1      33.550 -19.577 -20.707  0.00  0.00    +0.001 C 
ATOM     30  C   UNL     1      34.887 -19.932 -20.528  0.00  0.00    +0.000 C 
ENDBRANCH   2  25
BRANCH  10  32
ATOM     31  N   UNL     1      28.659 -25.106 -12.914  0.00  0.00    -0.195 NA
ATOM     32  C   UNL     1      29.071 -24.573 -13.860  0.00  0.00    +0.087 C 
ENDBRANCH  10  32
TORSDOF 4
ENDMDL
