MODEL 1
REMARK VINA RESULT:     -12.7      0.000      0.000
REMARK  Name = 12606920
REMARK  3 active torsions:
REMARK  status: ('A' for Active; 'I' for Inactive)
REMARK    1  A    between atoms: S_1  and  C_11
REMARK    2  A    between atoms: S_1  and  N_16
REMARK    3  A    between atoms: N_16  and  C_19
REMARK                            x       y       z     vdW  Elec       q    Type
REMARK                         _______ _______ _______ _____ _____    ______ ____
ROOT
ATOM      1  S   UNL     1      35.293 -17.842 -21.664  0.00  0.00    +0.074 S 
ATOM      2  O   UNL     1      35.338 -17.364 -20.288  0.00  0.00    -0.150 OA
ATOM      3  O   UNL     1      36.532 -18.277 -22.298  0.00  0.00    -0.150 OA
ENDROOT
BRANCH   1  11
ATOM      4  N   UNL     1      33.530 -11.846 -23.367  0.00  0.00    +0.387 N 
ATOM      5  C   UNL     1      33.423 -14.567 -24.203  0.00  0.00    -0.030 C 
ATOM      6  C   UNL     1      33.907 -14.268 -22.917  0.00  0.00    -0.046 C 
ATOM      7  C   UNL     1      32.834 -13.479 -25.064  0.00  0.00    +0.003 C 
ATOM      8  C   UNL     1      33.760 -12.878 -22.348  0.00  0.00    -0.055 C 
ATOM      9  C   UNL     1      32.439 -12.240 -24.257  0.00  0.00    -0.077 C 
ATOM     10  C   UNL     1      34.472 -15.286 -22.138  0.00  0.00    +0.014 C 
ATOM     11  C   UNL     1      34.581 -16.582 -22.642  0.00  0.00    +0.125 C 
ATOM     12  C   UNL     1      33.547 -15.869 -24.705  0.00  0.00    -0.003 C 
ATOM     13  C   UNL     1      34.122 -16.872 -23.925  0.00  0.00    +0.020 C 
ATOM     14  H   UNL     1      34.382 -11.721 -23.916  0.00  0.00    -0.084 HD
ATOM     15  H   UNL     1      33.279 -10.974 -22.903  0.00  0.00    -0.084 HD
ENDBRANCH   1  11
BRANCH   1  16
ATOM     16  N   UNL     1      34.125 -19.104 -21.755  0.00  0.00    -0.215 N 
ATOM     17  H   UNL     1      33.573 -19.226 -22.562  0.00  0.00    +0.174 HD
BRANCH  16  19
ATOM     18 CL   UNL     1      33.520 -22.697 -17.066  0.00  0.00    -0.082 Cl
ATOM     19  C   UNL     1      33.979 -19.974 -20.619  0.00  0.00    +0.065 C 
ATOM     20  C   UNL     1      32.713 -20.220 -20.101  0.00  0.00    +0.017 C 
ATOM     21  C   UNL     1      35.105 -20.560 -20.053  0.00  0.00    +0.017 C 
ATOM     22  C   UNL     1      32.572 -21.064 -18.999  0.00  0.00    +0.013 C 
ATOM     23  C   UNL     1      34.963 -21.405 -18.952  0.00  0.00    +0.013 C 
ATOM     24  C   UNL     1      33.696 -21.657 -18.425  0.00  0.00    +0.058 C 
ENDBRANCH  16  19
ENDBRANCH   1  16
TORSDOF 3
ENDMDL
MODEL 2
REMARK VINA RESULT:     -12.3      0.905      1.940
REMARK  Name = 12606920
REMARK  3 active torsions:
REMARK  status: ('A' for Active; 'I' for Inactive)
REMARK    1  A    between atoms: S_1  and  C_11
REMARK    2  A    between atoms: S_1  and  N_16
REMARK    3  A    between atoms: N_16  and  C_19
REMARK                            x       y       z     vdW  Elec       q    Type
REMARK                         _______ _______ _______ _____ _____    ______ ____
ROOT
ATOM      1  S   UNL     1      35.435 -17.970 -21.548  0.00  0.00    +0.074 S 
ATOM      2  O   UNL     1      35.891 -17.879 -20.167  0.00  0.00    -0.150 OA
ATOM      3  O   UNL     1      36.404 -18.288 -22.589  0.00  0.00    -0.150 OA
ENDROOT
BRANCH   1  11
ATOM      4  N   UNL     1      32.437 -13.564 -25.230  0.00  0.00    +0.387 N 
ATOM      5  C   UNL     1      33.428 -14.029 -22.600  0.00  0.00    -0.030 C 
ATOM      6  C   UNL     1      33.720 -14.960 -23.612  0.00  0.00    -0.046 C 
ATOM      7  C   UNL     1      32.731 -12.736 -22.937  0.00  0.00    +0.003 C 
ATOM      8  C   UNL     1      33.422 -14.639 -25.057  0.00  0.00    -0.055 C 
ATOM      9  C   UNL     1      32.806 -12.398 -24.428  0.00  0.00    -0.077 C 
ATOM     10  C   UNL     1      34.347 -16.168 -23.280  0.00  0.00    +0.014 C 
ATOM     11  C   UNL     1      34.658 -16.459 -21.951  0.00  0.00    +0.125 C 
ATOM     12  C   UNL     1      33.734 -14.335 -21.267  0.00  0.00    -0.003 C 
ATOM     13  C   UNL     1      34.349 -15.545 -20.946  0.00  0.00    +0.020 C 
ATOM     14  H   UNL     1      31.520 -13.899 -24.932  0.00  0.00    -0.084 HD
ATOM     15  H   UNL     1      32.413 -13.294 -26.212  0.00  0.00    -0.084 HD
ENDBRANCH   1  11
BRANCH   1  16
ATOM     16  N   UNL     1      34.134 -19.097 -21.609  0.00  0.00    -0.215 N 
ATOM     17  H   UNL     1      33.519 -19.120 -22.378  0.00  0.00    +0.174 HD
BRANCH  16  19
ATOM     18 CL   UNL     1      33.463 -22.843 -17.050  0.00  0.00    -0.082 Cl
ATOM     19  C   UNL     1      33.971 -20.004 -20.504  0.00  0.00    +0.065 C 
ATOM     20  C   UNL     1      35.088 -20.612 -19.945  0.00  0.00    +0.017 C 
ATOM     21  C   UNL     1      32.699 -20.262 -20.009  0.00  0.00    +0.017 C 
ATOM     22  C   UNL     1      34.930 -21.493 -18.874  0.00  0.00    +0.013 C 
ATOM     23  C   UNL     1      32.541 -21.142 -18.938  0.00  0.00    +0.013 C 
ATOM     24  C   UNL     1      33.657 -21.757 -18.370  0.00  0.00    +0.058 C 
ENDBRANCH  16  19
ENDBRANCH   1  16
TORSDOF 3
ENDMDL
MODEL 3
REMARK VINA RESULT:     -11.5      3.302      7.838
REMARK  Name = 12606920
REMARK  3 active torsions:
REMARK  status: ('A' for Active; 'I' for Inactive)
REMARK    1  A    between atoms: S_1  and  C_11
REMARK    2  A    between atoms: S_1  and  N_16
REMARK    3  A    between atoms: N_16  and  C_19
REMARK                            x       y       z     vdW  Elec       q    Type
REMARK                         _______ _______ _______ _____ _____    ______ ____
ROOT
ATOM      1  S   UNL     1      34.960 -18.274 -21.843  0.00  0.00    +0.074 S 
ATOM      2  O   UNL     1      33.823 -18.357 -22.752  0.00  0.00    -0.150 OA
ATOM      3  O   UNL     1      36.307 -18.384 -22.391  0.00  0.00    -0.150 OA
ENDROOT
BRANCH   1  11
ATOM      4  N   UNL     1      31.833 -22.452 -18.007  0.00  0.00    +0.387 N 
ATOM      5  C   UNL     1      34.426 -21.463 -18.648  0.00  0.00    -0.030 C 
ATOM      6  C   UNL     1      33.299 -20.833 -19.205  0.00  0.00    -0.046 C 
ATOM      7  C   UNL     1      34.255 -22.546 -17.613  0.00  0.00    +0.003 C 
ATOM      8  C   UNL     1      31.912 -21.167 -18.712  0.00  0.00    -0.055 C 
ATOM      9  C   UNL     1      32.864 -22.534 -16.973  0.00  0.00    -0.077 C 
ATOM     10  C   UNL     1      33.474 -19.845 -20.182  0.00  0.00    +0.014 C 
ATOM     11  C   UNL     1      34.754 -19.504 -20.620  0.00  0.00    +0.125 C 
ATOM     12  C   UNL     1      35.706 -21.122 -19.102  0.00  0.00    -0.003 C 
ATOM     13  C   UNL     1      35.868 -20.144 -20.082  0.00  0.00    +0.020 C 
ATOM     14  H   UNL     1      31.967 -23.211 -18.676  0.00  0.00    -0.084 HD
ATOM     15  H   UNL     1      30.917 -22.530 -17.566  0.00  0.00    -0.084 HD
ENDBRANCH   1  11
BRANCH   1  16
ATOM     16  N   UNL     1      34.821 -16.812 -20.944  0.00  0.00    -0.215 N 
ATOM     17  H   UNL     1      35.027 -16.788 -19.981  0.00  0.00    +0.174 HD
BRANCH  16  19
ATOM     18 CL   UNL     1      33.065 -11.919 -23.814  0.00  0.00    -0.082 Cl
ATOM     19  C   UNL     1      34.396 -15.627 -21.639  0.00  0.00    +0.065 C 
ATOM     20  C   UNL     1      33.880 -14.556 -20.919  0.00  0.00    +0.017 C 
ATOM     21  C   UNL     1      34.506 -15.565 -23.023  0.00  0.00    +0.017 C 
ATOM     22  C   UNL     1      33.467 -13.407 -21.594  0.00  0.00    +0.013 C 
ATOM     23  C   UNL     1      34.094 -14.416 -23.698  0.00  0.00    +0.013 C 
ATOM     24  C   UNL     1      33.575 -13.337 -22.983  0.00  0.00    +0.058 C 
ENDBRANCH  16  19
ENDBRANCH   1  16
TORSDOF 3
ENDMDL
MODEL 4
REMARK VINA RESULT:     -11.1      3.293      7.879
REMARK  Name = 12606920
REMARK  3 active torsions:
REMARK  status: ('A' for Active; 'I' for Inactive)
REMARK    1  A    between atoms: S_1  and  C_11
REMARK    2  A    between atoms: S_1  and  N_16
REMARK    3  A    between atoms: N_16  and  C_19
REMARK                            x       y       z     vdW  Elec       q    Type
REMARK                         _______ _______ _______ _____ _____    ______ ____
ROOT
ATOM      1  S   UNL     1      34.837 -18.396 -21.856  0.00  0.00    +0.074 S 
ATOM      2  O   UNL     1      33.855 -18.258 -22.924  0.00  0.00    -0.150 OA
ATOM      3  O   UNL     1      36.195 -18.802 -22.198  0.00  0.00    -0.150 OA
ENDROOT
BRANCH   1  11
ATOM      4  N   UNL     1      34.805 -22.323 -16.705  0.00  0.00    +0.387 N 
ATOM      5  C   UNL     1      33.172 -21.345 -18.823  0.00  0.00    -0.030 C 
ATOM      6  C   UNL     1      34.544 -21.041 -18.826  0.00  0.00    -0.046 C 
ATOM      7  C   UNL     1      32.606 -22.294 -17.798  0.00  0.00    +0.003 C 
ATOM      8  C   UNL     1      35.483 -21.729 -17.864  0.00  0.00    -0.055 C 
ATOM      9  C   UNL     1      33.685 -23.157 -17.138  0.00  0.00    -0.077 C 
ATOM     10  C   UNL     1      35.050 -20.139 -19.771  0.00  0.00    +0.014 C 
ATOM     11  C   UNL     1      34.197 -19.524 -20.687  0.00  0.00    +0.125 C 
ATOM     12  C   UNL     1      32.320 -20.713 -19.739  0.00  0.00    -0.003 C 
ATOM     13  C   UNL     1      32.833 -19.809 -20.669  0.00  0.00    +0.020 C 
ATOM     14  H   UNL     1      34.455 -21.577 -16.103  0.00  0.00    -0.084 HD
ATOM     15  H   UNL     1      35.470 -22.903 -16.195  0.00  0.00    -0.084 HD
ENDBRANCH   1  11
BRANCH   1  16
ATOM     16  N   UNL     1      34.883 -16.917 -20.976  0.00  0.00    -0.215 N 
ATOM     17  H   UNL     1      35.195 -16.893 -20.041  0.00  0.00    +0.174 HD
BRANCH  16  19
ATOM     18 CL   UNL     1      33.107 -11.966 -23.734  0.00  0.00    -0.082 Cl
ATOM     19  C   UNL     1      34.452 -15.718 -21.644  0.00  0.00    +0.065 C 
ATOM     20  C   UNL     1      34.585 -15.615 -23.023  0.00  0.00    +0.017 C 
ATOM     21  C   UNL     1      33.908 -14.676 -20.902  0.00  0.00    +0.017 C 
ATOM     22  C   UNL     1      34.169 -14.451 -23.670  0.00  0.00    +0.013 C 
ATOM     23  C   UNL     1      33.491 -13.513 -21.550  0.00  0.00    +0.013 C 
ATOM     24  C   UNL     1      33.621 -13.401 -22.934  0.00  0.00    +0.058 C 
ENDBRANCH  16  19
ENDBRANCH   1  16
TORSDOF 3
ENDMDL
MODEL 5
REMARK VINA RESULT:     -10.5      4.159      6.032
REMARK  Name = 12606920
REMARK  3 active torsions:
REMARK  status: ('A' for Active; 'I' for Inactive)
REMARK    1  A    between atoms: S_1  and  C_11
REMARK    2  A    between atoms: S_1  and  N_16
REMARK    3  A    between atoms: N_16  and  C_19
REMARK                            x       y       z     vdW  Elec       q    Type
REMARK                         _______ _______ _______ _____ _____    ______ ____
ROOT
ATOM      1  S   UNL     1      33.374 -22.355 -18.239  0.00  0.00    +0.074 S 
ATOM      2  O   UNL     1      34.320 -22.173 -17.146  0.00  0.00    -0.150 OA
ATOM      3  O   UNL     1      33.348 -23.634 -18.940  0.00  0.00    -0.150 OA
ENDROOT
BRANCH   1  11
ATOM      4  N   UNL     1      36.762 -18.255 -21.935  0.00  0.00    +0.387 N 
ATOM      5  C   UNL     1      34.109 -19.042 -21.264  0.00  0.00    -0.030 C 
ATOM      6  C   UNL     1      35.183 -19.568 -20.525  0.00  0.00    -0.046 C 
ATOM      7  C   UNL     1      34.350 -17.968 -22.293  0.00  0.00    +0.003 C 
ATOM      8  C   UNL     1      36.573 -19.003 -20.686  0.00  0.00    -0.055 C 
ATOM      9  C   UNL     1      35.698 -17.267 -22.107  0.00  0.00    -0.077 C 
ATOM     10  C   UNL     1      34.945 -20.582 -19.588  0.00  0.00    +0.014 C 
ATOM     11  C   UNL     1      33.658 -21.087 -19.406  0.00  0.00    +0.125 C 
ATOM     12  C   UNL     1      32.821 -19.563 -21.082  0.00  0.00    -0.003 C 
ATOM     13  C   UNL     1      32.598 -20.580 -20.154  0.00  0.00    +0.020 C 
ATOM     14  H   UNL     1      36.746 -18.906 -22.722  0.00  0.00    -0.084 HD
ATOM     15  H   UNL     1      37.658 -17.771 -21.898  0.00  0.00    -0.084 HD
ENDBRANCH   1  11
BRANCH   1  16
ATOM     16  N   UNL     1      31.798 -21.989 -17.651  0.00  0.00    -0.215 N 
ATOM     17  H   UNL     1      31.200 -21.383 -18.147  0.00  0.00    +0.174 HD
BRANCH  16  19
ATOM     18 CL   UNL     1      30.071 -24.483 -12.545  0.00  0.00    -0.082 Cl
ATOM     19  C   UNL     1      31.379 -22.593 -16.414  0.00  0.00    +0.065 C 
ATOM     20  C   UNL     1      32.334 -23.071 -15.525  0.00  0.00    +0.017 C 
ATOM     21  C   UNL     1      30.024 -22.691 -16.121  0.00  0.00    +0.017 C 
ATOM     22  C   UNL     1      31.928 -23.657 -14.326  0.00  0.00    +0.013 C 
ATOM     23  C   UNL     1      29.618 -23.276 -14.922  0.00  0.00    +0.013 C 
ATOM     24  C   UNL     1      30.571 -23.759 -14.024  0.00  0.00    +0.058 C 
ENDBRANCH  16  19
ENDBRANCH   1  16
TORSDOF 3
ENDMDL
MODEL 6
REMARK VINA RESULT:     -10.4      4.247      9.075
REMARK  Name = 12606920
REMARK  3 active torsions:
REMARK  status: ('A' for Active; 'I' for Inactive)
REMARK    1  A    between atoms: S_1  and  C_11
REMARK    2  A    between atoms: S_1  and  N_16
REMARK    3  A    between atoms: N_16  and  C_19
REMARK                            x       y       z     vdW  Elec       q    Type
REMARK                         _______ _______ _______ _____ _____    ______ ____
ROOT
ATOM      1  S   UNL     1      34.394 -21.091 -19.490  0.00  0.00    +0.074 S 
ATOM      2  O   UNL     1      33.052 -20.557 -19.298  0.00  0.00    -0.150 OA
ATOM      3  O   UNL     1      34.585 -22.192 -20.426  0.00  0.00    -0.150 OA
ENDROOT
BRANCH   1  11
ATOM      4  N   UNL     1      34.507 -24.173 -13.794  0.00  0.00    +0.387 N 
ATOM      5  C   UNL     1      35.970 -22.342 -15.414  0.00  0.00    -0.030 C 
ATOM      6  C   UNL     1      34.675 -22.720 -15.812  0.00  0.00    -0.046 C 
ATOM      7  C   UNL     1      36.512 -22.784 -14.078  0.00  0.00    +0.003 C 
ATOM      8  C   UNL     1      33.780 -23.492 -14.873  0.00  0.00    -0.055 C 
ATOM      9  C   UNL     1      35.410 -23.242 -13.119  0.00  0.00    -0.077 C 
ATOM     10  C   UNL     1      34.195 -22.321 -17.066  0.00  0.00    +0.014 C 
ATOM     11  C   UNL     1      35.001 -21.577 -17.926  0.00  0.00    +0.125 C 
ATOM     12  C   UNL     1      36.777 -21.605 -16.290  0.00  0.00    -0.003 C 
ATOM     13  C   UNL     1      36.292 -21.222 -17.540  0.00  0.00    +0.020 C 
ATOM     14  H   UNL     1      35.050 -24.942 -14.189  0.00  0.00    -0.084 HD
ATOM     15  H   UNL     1      33.834 -24.529 -13.117  0.00  0.00    -0.084 HD
ENDBRANCH   1  11
BRANCH   1  16
ATOM     16  N   UNL     1      35.434 -19.786 -19.916  0.00  0.00    -0.215 N 
ATOM     17  H   UNL     1      36.271 -19.623 -19.422  0.00  0.00    +0.174 HD
BRANCH  16  19
ATOM     18 CL   UNL     1      33.836 -16.300 -24.451  0.00  0.00    -0.082 Cl
ATOM     19  C   UNL     1      35.047 -18.942 -21.014  0.00  0.00    +0.065 C 
ATOM     20  C   UNL     1      34.407 -19.497 -22.115  0.00  0.00    +0.017 C 
ATOM     21  C   UNL     1      35.317 -17.579 -20.961  0.00  0.00    +0.017 C 
ATOM     22  C   UNL     1      34.032 -18.678 -23.180  0.00  0.00    +0.013 C 
ATOM     23  C   UNL     1      34.941 -16.760 -22.027  0.00  0.00    +0.013 C 
ATOM     24  C   UNL     1      34.298 -17.310 -23.136  0.00  0.00    +0.058 C 
ENDBRANCH  16  19
ENDBRANCH   1  16
TORSDOF 3
ENDMDL
MODEL 7
REMARK VINA RESULT:     -10.4      5.036      8.490
REMARK  Name = 12606920
REMARK  3 active torsions:
REMARK  status: ('A' for Active; 'I' for Inactive)
REMARK    1  A    between atoms: S_1  and  C_11
REMARK    2  A    between atoms: S_1  and  N_16
REMARK    3  A    between atoms: N_16  and  C_19
REMARK                            x       y       z     vdW  Elec       q    Type
REMARK                         _______ _______ _______ _____ _____    ______ ____
ROOT
ATOM      1  S   UNL     1      32.799 -12.360 -23.496  0.00  0.00    +0.074 S 
ATOM      2  O   UNL     1      32.375 -12.738 -24.839  0.00  0.00    -0.150 OA
ATOM      3  O   UNL     1      33.777 -11.291 -23.343  0.00  0.00    -0.150 OA
ENDROOT
BRANCH   1  11
ATOM      4  N   UNL     1      35.342 -18.295 -22.982  0.00  0.00    +0.387 N 
ATOM      5  C   UNL     1      34.380 -16.097 -21.447  0.00  0.00    -0.030 C 
ATOM      6  C   UNL     1      34.201 -16.085 -22.841  0.00  0.00    -0.046 C 
ATOM      7  C   UNL     1      34.937 -17.320 -20.765  0.00  0.00    +0.003 C 
ATOM      8  C   UNL     1      34.477 -17.322 -23.660  0.00  0.00    -0.055 C 
ATOM      9  C   UNL     1      34.841 -18.575 -21.637  0.00  0.00    -0.077 C 
ATOM     10  C   UNL     1      33.703 -14.932 -23.463  0.00  0.00    +0.014 C 
ATOM     11  C   UNL     1      33.412 -13.794 -22.710  0.00  0.00    +0.125 C 
ATOM     12  C   UNL     1      34.096 -14.946 -20.701  0.00  0.00    -0.003 C 
ATOM     13  C   UNL     1      33.611 -13.801 -21.331  0.00  0.00    +0.020 C 
ATOM     14  H   UNL     1      36.287 -17.915 -22.916  0.00  0.00    -0.084 HD
ATOM     15  H   UNL     1      35.347 -19.162 -23.519  0.00  0.00    -0.084 HD
ENDBRANCH   1  11
BRANCH   1  16
ATOM     16  N   UNL     1      31.392 -11.991 -22.575  0.00  0.00    -0.215 N 
ATOM     17  H   UNL     1      30.618 -12.600 -22.565  0.00  0.00    +0.174 HD
BRANCH  16  19
ATOM     18 CL   UNL     1      31.341  -6.937 -19.456  0.00  0.00    -0.082 Cl
ATOM     19  C   UNL     1      31.379 -10.767 -21.819  0.00  0.00    +0.065 C 
ATOM     20  C   UNL     1      31.420  -9.548 -22.485  0.00  0.00    +0.017 C 
ATOM     21  C   UNL     1      31.325 -10.816 -20.431  0.00  0.00    +0.017 C 
ATOM     22  C   UNL     1      31.409  -8.361 -21.752  0.00  0.00    +0.013 C 
ATOM     23  C   UNL     1      31.313  -9.629 -19.698  0.00  0.00    +0.013 C 
ATOM     24  C   UNL     1      31.354  -8.402 -20.359  0.00  0.00    +0.058 C 
ENDBRANCH  16  19
ENDBRANCH   1  16
TORSDOF 3
ENDMDL
MODEL 8
REMARK VINA RESULT:     -10.2      4.806      8.046
REMARK  Name = 12606920
REMARK  3 active torsions:
REMARK  status: ('A' for Active; 'I' for Inactive)
REMARK    1  A    between atoms: S_1  and  C_11
REMARK    2  A    between atoms: S_1  and  N_16
REMARK    3  A    between atoms: N_16  and  C_19
REMARK                            x       y       z     vdW  Elec       q    Type
REMARK                         _______ _______ _______ _____ _____    ______ ____
ROOT
ATOM      1  S   UNL     1      32.945 -12.668 -23.680  0.00  0.00    +0.074 S 
ATOM      2  O   UNL     1      32.395 -12.477 -25.016  0.00  0.00    -0.150 OA
ATOM      3  O   UNL     1      34.049 -11.821 -23.246  0.00  0.00    -0.150 OA
ENDROOT
BRANCH   1  11
ATOM      4  N   UNL     1      34.789 -18.155 -20.774  0.00  0.00    +0.387 N 
ATOM      5  C   UNL     1      34.238 -17.012 -23.324  0.00  0.00    -0.030 C 
ATOM      6  C   UNL     1      34.274 -16.174 -22.195  0.00  0.00    -0.046 C 
ATOM      7  C   UNL     1      34.632 -18.462 -23.205  0.00  0.00    +0.003 C 
ATOM      8  C   UNL     1      34.791 -16.690 -20.875  0.00  0.00    -0.055 C 
ATOM      9  C   UNL     1      35.443 -18.749 -21.940  0.00  0.00    -0.077 C 
ATOM     10  C   UNL     1      33.883 -14.835 -22.317  0.00  0.00    +0.014 C 
ATOM     11  C   UNL     1      33.436 -14.339 -23.541  0.00  0.00    +0.125 C 
ATOM     12  C   UNL     1      33.776 -16.507 -24.547  0.00  0.00    -0.003 C 
ATOM     13  C   UNL     1      33.380 -15.175 -24.654  0.00  0.00    +0.020 C 
ATOM     14  H   UNL     1      33.825 -18.486 -20.725  0.00  0.00    -0.084 HD
ATOM     15  H   UNL     1      35.299 -18.429 -19.935  0.00  0.00    -0.084 HD
ENDBRANCH   1  11
BRANCH   1  16
ATOM     16  N   UNL     1      31.652 -12.554 -22.548  0.00  0.00    -0.215 N 
ATOM     17  H   UNL     1      31.012 -13.295 -22.433  0.00  0.00    +0.174 HD
BRANCH  16  19
ATOM     18 CL   UNL     1      31.159  -7.571 -19.355  0.00  0.00    -0.082 Cl
ATOM     19  C   UNL     1      31.533 -11.347 -21.775  0.00  0.00    +0.065 C 
ATOM     20  C   UNL     1      31.522 -11.419 -20.387  0.00  0.00    +0.017 C 
ATOM     21  C   UNL     1      31.430 -10.123 -22.424  0.00  0.00    +0.017 C 
ATOM     22  C   UNL     1      31.406 -10.248 -19.638  0.00  0.00    +0.013 C 
ATOM     23  C   UNL     1      31.315  -8.952 -21.674  0.00  0.00    +0.013 C 
ATOM     24  C   UNL     1      31.303  -9.015 -20.281  0.00  0.00    +0.058 C 
ENDBRANCH  16  19
ENDBRANCH   1  16
TORSDOF 3
ENDMDL
MODEL 9
REMARK VINA RESULT:     -10.1      4.817      9.498
REMARK  Name = 12606920
REMARK  3 active torsions:
REMARK  status: ('A' for Active; 'I' for Inactive)
REMARK    1  A    between atoms: S_1  and  C_11
REMARK    2  A    between atoms: S_1  and  N_16
REMARK    3  A    between atoms: N_16  and  C_19
REMARK                            x       y       z     vdW  Elec       q    Type
REMARK                         _______ _______ _______ _____ _____    ______ ____
ROOT
ATOM      1  S   UNL     1      33.443 -22.104 -18.688  0.00  0.00    +0.074 S 
ATOM      2  O   UNL     1      32.368 -21.126 -18.793  0.00  0.00    -0.150 OA
ATOM      3  O   UNL     1      33.364 -23.324 -19.483  0.00  0.00    -0.150 OA
ENDROOT
BRANCH   1  11
ATOM      4  N   UNL     1      36.255 -22.730 -12.887  0.00  0.00    +0.387 N 
ATOM      5  C   UNL     1      33.849 -23.268 -14.312  0.00  0.00    -0.030 C 
ATOM      6  C   UNL     1      34.969 -22.797 -15.020  0.00  0.00    -0.046 C 
ATOM      7  C   UNL     1      33.968 -23.623 -12.852  0.00  0.00    +0.003 C 
ATOM      8  C   UNL     1      36.321 -22.727 -14.354  0.00  0.00    -0.055 C 
ATOM      9  C   UNL     1      35.420 -23.833 -12.415  0.00  0.00    -0.077 C 
ATOM     10  C   UNL     1      34.836 -22.451 -16.371  0.00  0.00    +0.014 C 
ATOM     11  C   UNL     1      33.598 -22.546 -17.005  0.00  0.00    +0.125 C 
ATOM     12  C   UNL     1      32.606 -23.349 -14.955  0.00  0.00    -0.003 C 
ATOM     13  C   UNL     1      32.484 -22.992 -16.297  0.00  0.00    +0.020 C 
ATOM     14  H   UNL     1      35.857 -21.846 -12.567  0.00  0.00    -0.084 HD
ATOM     15  H   UNL     1      37.197 -22.847 -12.515  0.00  0.00    -0.084 HD
ENDBRANCH   1  11
BRANCH   1  16
ATOM     16  N   UNL     1      34.931 -21.301 -19.012  0.00  0.00    -0.215 N 
ATOM     17  H   UNL     1      35.758 -21.557 -18.542  0.00  0.00    +0.174 HD
BRANCH  16  19
ATOM     18 CL   UNL     1      34.936 -16.940 -23.043  0.00  0.00    -0.082 Cl
ATOM     19  C   UNL     1      34.932 -20.244 -19.988  0.00  0.00    +0.065 C 
ATOM     20  C   UNL     1      33.787 -19.998 -20.734  0.00  0.00    +0.017 C 
ATOM     21  C   UNL     1      36.079 -19.481 -20.173  0.00  0.00    +0.017 C 
ATOM     22  C   UNL     1      33.789 -18.974 -21.682  0.00  0.00    +0.013 C 
ATOM     23  C   UNL     1      36.080 -18.456 -21.120  0.00  0.00    +0.013 C 
ATOM     24  C   UNL     1      34.935 -18.203 -21.873  0.00  0.00    +0.058 C 
ENDBRANCH  16  19
ENDBRANCH   1  16
TORSDOF 3
ENDMDL
