MODEL 1
REMARK VINA RESULT:     -13.5      0.000      0.000
REMARK  Name = 11618268
REMARK  3 active torsions:
REMARK  status: ('A' for Active; 'I' for Inactive)
REMARK    1  A    between atoms: N_3  and  C_13
REMARK    2  A    between atoms: C_5  and  C_19
REMARK    3  A    between atoms: C_19  and  N_21
REMARK                            x       y       z     vdW  Elec       q    Type
REMARK                         _______ _______ _______ _____ _____    ______ ____
ROOT
ATOM      1  F   UNL     1      33.433 -19.686 -21.331  0.00  0.00    -0.204 F 
ATOM      2  O   UNL     1      30.829 -21.840 -17.628  0.00  0.00    -0.269 OA
ATOM      3  N   UNL     1      32.453 -22.793 -16.211  0.00  0.00    -0.211 N 
ATOM      4  N   UNL     1      34.753 -22.533 -16.764  0.00  0.00    -0.393 NA
ATOM      5  C   UNL     1      33.817 -23.003 -15.997  0.00  0.00    +0.187 C 
ATOM      6  C   UNL     1      31.999 -22.097 -17.351  0.00  0.00    +0.260 C 
ATOM      7  C   UNL     1      33.058 -21.583 -18.246  0.00  0.00    +0.082 C 
ATOM      8  C   UNL     1      34.391 -21.803 -17.900  0.00  0.00    +0.119 C 
ATOM      9  C   UNL     1      32.729 -20.868 -19.404  0.00  0.00    +0.036 C 
ATOM     10  C   UNL     1      35.399 -21.297 -18.730  0.00  0.00    +0.087 C 
ATOM     11  C   UNL     1      33.743 -20.371 -20.221  0.00  0.00    +0.137 C 
ATOM     12  C   UNL     1      35.077 -20.583 -19.885  0.00  0.00    +0.011 C 
ENDROOT
BRANCH   3  13
ATOM     13  C   UNL     1      31.456 -23.230 -15.273  0.00  0.00    +0.060 C 
ATOM     14  C   UNL     1      31.082 -22.394 -14.229  0.00  0.00    +0.015 C 
ATOM     15  C   UNL     1      30.880 -24.485 -15.421  0.00  0.00    +0.015 C 
ATOM     16  C   UNL     1      30.113 -22.819 -13.320  0.00  0.00    +0.001 C 
ATOM     17  C   UNL     1      29.911 -24.910 -14.512  0.00  0.00    +0.001 C 
ATOM     18  C   UNL     1      29.528 -24.077 -13.461  0.00  0.00    +0.000 C 
ENDBRANCH   3  13
BRANCH   5  19
ATOM     19  C   UNL     1      34.283 -23.871 -14.845  0.00  0.00    +0.138 C 
ATOM     20  C   UNL     1      34.012 -23.177 -13.530  0.00  0.00    +0.030 C 
BRANCH  19  21
ATOM     21  N   UNL     1      35.694 -24.086 -15.021  0.00  0.00    -0.315 N 
ATOM     22  N   UNL     1      38.717 -24.583 -15.317  0.00  0.00    -0.270 NA
ATOM     23  N   UNL     1      36.017 -25.105 -12.874  0.00  0.00    -0.232 NA
ATOM     24  N   UNL     1      39.980 -25.540 -13.749  0.00  0.00    -0.307 N 
ATOM     25  N   UNL     1      38.203 -25.889 -12.127  0.00  0.00    -0.232 NA
ATOM     26  C   UNL     1      36.512 -24.678 -14.068  0.00  0.00    +0.124 C 
ATOM     27  C   UNL     1      37.872 -24.866 -14.281  0.00  0.00    +0.164 C 
ATOM     28  C   UNL     1      38.679 -25.459 -13.320  0.00  0.00    +0.125 C 
ATOM     29  C   UNL     1      39.968 -25.005 -14.951  0.00  0.00    +0.163 C 
ATOM     30  C   UNL     1      36.877 -25.673 -11.995  0.00  0.00    +0.252 C 
ATOM     31  H   UNL     1      36.104 -23.796 -15.867  0.00  0.00    +0.148 HD
ATOM     32  H   UNL     1      38.471 -24.154 -16.168  0.00  0.00    +0.126 HD
ATOM     33  H   UNL     1      40.751 -25.915 -13.265  0.00  0.00    +0.149 HD
ENDBRANCH  19  21
ENDBRANCH   5  19
TORSDOF 3
ENDMDL
MODEL 2
REMARK VINA RESULT:     -11.9      3.231      6.678
REMARK  Name = 11618268
REMARK  3 active torsions:
REMARK  status: ('A' for Active; 'I' for Inactive)
REMARK    1  A    between atoms: N_3  and  C_13
REMARK    2  A    between atoms: C_5  and  C_19
REMARK    3  A    between atoms: C_19  and  N_21
REMARK                            x       y       z     vdW  Elec       q    Type
REMARK                         _______ _______ _______ _____ _____    ______ ____
ROOT
ATOM      1  F   UNL     1      37.941 -24.319 -11.241  0.00  0.00    -0.204 F 
ATOM      2  O   UNL     1      33.072 -23.913 -12.364  0.00  0.00    -0.269 OA
ATOM      3  N   UNL     1      33.012 -23.457 -14.675  0.00  0.00    -0.211 N 
ATOM      4  N   UNL     1      35.065 -23.328 -15.872  0.00  0.00    -0.393 NA
ATOM      5  C   UNL     1      33.769 -23.250 -15.830  0.00  0.00    +0.187 C 
ATOM      6  C   UNL     1      33.638 -23.700 -13.434  0.00  0.00    +0.260 C 
ATOM      7  C   UNL     1      35.115 -23.761 -13.468  0.00  0.00    +0.082 C 
ATOM      8  C   UNL     1      35.763 -23.597 -14.692  0.00  0.00    +0.119 C 
ATOM      9  C   UNL     1      35.846 -24.006 -12.300  0.00  0.00    +0.036 C 
ATOM     10  C   UNL     1      37.161 -23.680 -14.735  0.00  0.00    +0.087 C 
ATOM     11  C   UNL     1      37.237 -24.085 -12.357  0.00  0.00    +0.137 C 
ATOM     12  C   UNL     1      37.894 -23.924 -13.574  0.00  0.00    +0.011 C 
ENDROOT
BRANCH   3  13
ATOM     13  C   UNL     1      31.576 -23.478 -14.697  0.00  0.00    +0.060 C 
ATOM     14  C   UNL     1      30.871 -22.281 -14.647  0.00  0.00    +0.015 C 
ATOM     15  C   UNL     1      30.909 -24.694 -14.767  0.00  0.00    +0.015 C 
ATOM     16  C   UNL     1      29.476 -22.303 -14.669  0.00  0.00    +0.001 C 
ATOM     17  C   UNL     1      29.514 -24.715 -14.789  0.00  0.00    +0.001 C 
ATOM     18  C   UNL     1      28.798 -23.519 -14.740  0.00  0.00    +0.000 C 
ENDBRANCH   3  13
BRANCH   5  19
ATOM     19  C   UNL     1      33.090 -22.853 -17.125  0.00  0.00    +0.138 C 
ATOM     20  C   UNL     1      32.742 -24.085 -17.928  0.00  0.00    +0.030 C 
BRANCH  19  21
ATOM     21  N   UNL     1      34.014 -22.022 -17.850  0.00  0.00    -0.315 N 
ATOM     22  N   UNL     1      35.925 -20.218 -19.451  0.00  0.00    -0.270 NA
ATOM     23  N   UNL     1      32.367 -21.147 -19.358  0.00  0.00    -0.232 NA
ATOM     24  N   UNL     1      35.285 -18.934 -21.158  0.00  0.00    -0.307 N 
ATOM     25  N   UNL     1      32.932 -19.542 -21.105  0.00  0.00    -0.232 NA
ATOM     26  C   UNL     1      33.653 -21.210 -18.917  0.00  0.00    +0.124 C 
ATOM     27  C   UNL     1      34.581 -20.424 -19.588  0.00  0.00    +0.164 C 
ATOM     28  C   UNL     1      34.208 -19.616 -20.654  0.00  0.00    +0.125 C 
ATOM     29  C   UNL     1      36.300 -19.318 -20.414  0.00  0.00    +0.163 C 
ATOM     30  C   UNL     1      32.092 -20.332 -20.404  0.00  0.00    +0.252 C 
ATOM     31  H   UNL     1      34.958 -22.030 -17.573  0.00  0.00    +0.148 HD
ATOM     32  H   UNL     1      36.513 -20.639 -18.784  0.00  0.00    +0.126 HD
ATOM     33  H   UNL     1      35.297 -18.299 -21.910  0.00  0.00    +0.149 HD
ENDBRANCH  19  21
ENDBRANCH   5  19
TORSDOF 3
ENDMDL
MODEL 3
REMARK VINA RESULT:     -11.1      2.625      6.412
REMARK  Name = 11618268
REMARK  3 active torsions:
REMARK  status: ('A' for Active; 'I' for Inactive)
REMARK    1  A    between atoms: N_3  and  C_13
REMARK    2  A    between atoms: C_5  and  C_19
REMARK    3  A    between atoms: C_19  and  N_21
REMARK                            x       y       z     vdW  Elec       q    Type
REMARK                         _______ _______ _______ _____ _____    ______ ____
ROOT
ATOM      1  F   UNL     1      36.619 -19.267 -21.033  0.00  0.00    -0.204 F 
ATOM      2  O   UNL     1      37.540 -21.453 -16.616  0.00  0.00    -0.269 OA
ATOM      3  N   UNL     1      35.478 -22.376 -15.948  0.00  0.00    -0.211 N 
ATOM      4  N   UNL     1      33.592 -22.128 -17.377  0.00  0.00    -0.393 NA
ATOM      5  C   UNL     1      34.131 -22.548 -16.274  0.00  0.00    +0.187 C 
ATOM      6  C   UNL     1      36.340 -21.648 -16.795  0.00  0.00    +0.260 C 
ATOM      7  C   UNL     1      35.727 -21.140 -18.041  0.00  0.00    +0.082 C 
ATOM      8  C   UNL     1      34.384 -21.424 -18.290  0.00  0.00    +0.119 C 
ATOM      9  C   UNL     1      36.486 -20.413 -18.965  0.00  0.00    +0.036 C 
ATOM     10  C   UNL     1      33.804 -20.968 -19.480  0.00  0.00    +0.087 C 
ATOM     11  C   UNL     1      35.896 -19.964 -20.145  0.00  0.00    +0.137 C 
ATOM     12  C   UNL     1      34.556 -20.242 -20.404  0.00  0.00    +0.011 C 
ENDROOT
BRANCH   3  13
ATOM     13  C   UNL     1      36.059 -22.959 -14.770  0.00  0.00    +0.060 C 
ATOM     14  C   UNL     1      35.872 -22.348 -13.536  0.00  0.00    +0.015 C 
ATOM     15  C   UNL     1      36.802 -24.128 -14.880  0.00  0.00    +0.015 C 
ATOM     16  C   UNL     1      36.436 -22.916 -12.394  0.00  0.00    +0.001 C 
ATOM     17  C   UNL     1      37.366 -24.696 -13.737  0.00  0.00    +0.001 C 
ATOM     18  C   UNL     1      37.183 -24.090 -12.494  0.00  0.00    +0.000 C 
ENDBRANCH   3  13
BRANCH   5  19
ATOM     19  C   UNL     1      33.187 -23.209 -15.289  0.00  0.00    +0.138 C 
ATOM     20  C   UNL     1      33.377 -24.709 -15.316  0.00  0.00    +0.030 C 
BRANCH  19  21
ATOM     21  N   UNL     1      31.849 -22.863 -15.688  0.00  0.00    -0.315 N 
ATOM     22  N   UNL     1      28.956 -22.182 -16.485  0.00  0.00    -0.270 NA
ATOM     23  N   UNL     1      30.787 -24.490 -14.283  0.00  0.00    -0.232 NA
ATOM     24  N   UNL     1      27.162 -23.218 -15.661  0.00  0.00    -0.307 N 
ATOM     25  N   UNL     1      28.363 -24.748 -14.203  0.00  0.00    -0.232 NA
ATOM     26  C   UNL     1      30.709 -23.485 -15.197  0.00  0.00    +0.124 C 
ATOM     27  C   UNL     1      29.435 -23.116 -15.611  0.00  0.00    +0.164 C 
ATOM     28  C   UNL     1      28.303 -23.746 -15.112  0.00  0.00    +0.125 C 
ATOM     29  C   UNL     1      27.590 -22.282 -16.481  0.00  0.00    +0.163 C 
ATOM     30  C   UNL     1      29.631 -25.048 -13.851  0.00  0.00    +0.252 C 
ATOM     31  H   UNL     1      31.735 -22.142 -16.347  0.00  0.00    +0.148 HD
ATOM     32  H   UNL     1      29.494 -21.554 -17.018  0.00  0.00    +0.126 HD
ATOM     33  H   UNL     1      26.231 -23.481 -15.482  0.00  0.00    +0.149 HD
ENDBRANCH  19  21
ENDBRANCH   5  19
TORSDOF 3
ENDMDL
