MODEL 1
REMARK VINA RESULT:     -12.8      0.000      0.000
REMARK  Name = 4470378
REMARK  6 active torsions:
REMARK  status: ('A' for Active; 'I' for Inactive)
REMARK    1  A    between atoms: C_5  and  O_10
REMARK    2  A    between atoms: C_6  and  O_24
REMARK    3  A    between atoms: O_10  and  C_11
REMARK    4  A    between atoms: C_12  and  C_19
REMARK    5  A    between atoms: O_24  and  C_25
REMARK    6  A    between atoms: C_26  and  C_33
REMARK                            x       y       z     vdW  Elec       q    Type
REMARK                         _______ _______ _______ _____ _____    ______ ____
ROOT
ATOM      1  F   UNL     1      30.398 -21.715 -17.293  0.00  0.00    -0.221 F 
ATOM      2  F   UNL     1      32.104 -23.549 -13.254  0.00  0.00    -0.199 F 
ATOM      3  N   UNL     1      33.520 -23.426 -16.592  0.00  0.00    -0.331 NA
ATOM      4  C   UNL     1      31.206 -22.617 -15.247  0.00  0.00    +0.031 C 
ATOM      5  C   UNL     1      32.517 -22.776 -17.225  0.00  0.00    +0.298 C 
ATOM      6  C   UNL     1      33.331 -23.656 -15.280  0.00  0.00    +0.312 C 
ATOM      7  C   UNL     1      31.352 -22.354 -16.605  0.00  0.00    +0.270 C 
ATOM      8  C   UNL     1      32.216 -23.284 -14.561  0.00  0.00    +0.201 C 
ATOM      9  C   UNL     1      29.972 -22.187 -14.529  0.00  0.00    +0.032 C 
ENDROOT
BRANCH   5  10
ATOM     10  O   UNL     1      32.685 -22.530 -18.562  0.00  0.00    -0.428 OA
BRANCH  10  11
ATOM     11  C   UNL     1      33.732 -21.710 -18.931  0.00  0.00    +0.148 C 
ATOM     12  C   UNL     1      34.572 -19.878 -20.233  0.00  0.00    +0.032 C 
ATOM     13  C   UNL     1      33.512 -20.706 -19.860  0.00  0.00    +0.040 C 
ATOM     14  C   UNL     1      34.980 -21.909 -18.364  0.00  0.00    +0.038 C 
ATOM     15  C   UNL     1      35.835 -20.066 -19.671  0.00  0.00    +0.003 C 
ATOM     16  C   UNL     1      36.039 -21.081 -18.737  0.00  0.00    +0.003 C 
BRANCH  12  19
ATOM     17  N   UNL     1      34.735 -17.564 -20.929  0.00  0.00    -0.387 N 
ATOM     18  N   UNL     1      33.785 -19.095 -22.385  0.00  0.00    -0.345 N 
ATOM     19  C   UNL     1      34.361 -18.826 -21.201  0.00  0.00    +0.096 C 
ATOM     20  H   UNL     1      34.587 -16.853 -21.594  0.00  0.00    +0.157 HD
ATOM     21  H   UNL     1      35.157 -17.351 -20.065  0.00  0.00    +0.157 HD
ATOM     22  H   UNL     1      33.643 -18.373 -23.039  0.00  0.00    +0.144 HD
ATOM     23  H   UNL     1      33.504 -20.014 -22.598  0.00  0.00    +0.144 HD
ENDBRANCH  12  19
ENDBRANCH  10  11
ENDBRANCH   5  10
BRANCH   6  24
ATOM     24  O   UNL     1      34.350 -24.323 -14.621  0.00  0.00    -0.426 OA
BRANCH  24  25
ATOM     25  C   UNL     1      35.624 -23.892 -14.827  0.00  0.00    +0.148 C 
ATOM     26  C   UNL     1      38.003 -24.319 -14.837  0.00  0.00    +0.034 C 
ATOM     27  C   UNL     1      36.697 -24.762 -14.628  0.00  0.00    +0.040 C 
ATOM     28  C   UNL     1      35.859 -22.578 -15.233  0.00  0.00    +0.038 C 
ATOM     29  C   UNL     1      38.237 -23.005 -15.244  0.00  0.00    +0.003 C 
ATOM     30  C   UNL     1      37.165 -22.135 -15.442  0.00  0.00    +0.003 C 
BRANCH  26  33
ATOM     31  N   UNL     1      39.361 -25.807 -13.386  0.00  0.00    -0.343 N 
ATOM     32  N   UNL     1      39.933 -25.509 -15.632  0.00  0.00    -0.285 NA
ATOM     33  C   UNL     1      39.120 -25.226 -14.630  0.00  0.00    +0.117 C 
ATOM     34  H   UNL     1      40.123 -26.418 -13.268  0.00  0.00    +0.144 HD
ATOM     35  H   UNL     1      38.768 -25.607 -12.626  0.00  0.00    +0.144 HD
ATOM     36  H   UNL     1      40.690 -26.123 -15.493  0.00  0.00    +0.188 HD
ENDBRANCH  26  33
ENDBRANCH  24  25
ENDBRANCH   6  24
TORSDOF 6
ENDMDL
MODEL 2
REMARK VINA RESULT:     -12.7      5.108      8.371
REMARK  Name = 4470378
REMARK  6 active torsions:
REMARK  status: ('A' for Active; 'I' for Inactive)
REMARK    1  A    between atoms: C_5  and  O_10
REMARK    2  A    between atoms: C_6  and  O_24
REMARK    3  A    between atoms: O_10  and  C_11
REMARK    4  A    between atoms: C_12  and  C_19
REMARK    5  A    between atoms: O_24  and  C_25
REMARK    6  A    between atoms: C_26  and  C_33
REMARK                            x       y       z     vdW  Elec       q    Type
REMARK                         _______ _______ _______ _____ _____    ______ ____
ROOT
ATOM      1  F   UNL     1      33.105 -15.504 -24.619  0.00  0.00    -0.221 F 
ATOM      2  F   UNL     1      34.101 -19.980 -23.368  0.00  0.00    -0.199 F 
ATOM      3  N   UNL     1      35.153 -16.821 -21.928  0.00  0.00    -0.331 NA
ATOM      4  C   UNL     1      33.573 -17.761 -24.035  0.00  0.00    +0.031 C 
ATOM      5  C   UNL     1      34.509 -15.979 -22.768  0.00  0.00    +0.298 C 
ATOM      6  C   UNL     1      34.984 -18.133 -22.173  0.00  0.00    +0.312 C 
ATOM      7  C   UNL     1      33.715 -16.393 -23.825  0.00  0.00    +0.270 C 
ATOM      8  C   UNL     1      34.220 -18.659 -23.192  0.00  0.00    +0.201 C 
ATOM      9  C   UNL     1      32.732 -18.263 -25.158  0.00  0.00    +0.032 C 
ENDROOT
BRANCH   5  10
ATOM     10  O   UNL     1      34.665 -14.637 -22.541  0.00  0.00    -0.428 OA
BRANCH  10  11
ATOM     11  C   UNL     1      33.670 -13.992 -21.835  0.00  0.00    +0.148 C 
ATOM     12  C   UNL     1      32.108 -12.181 -21.638  0.00  0.00    +0.032 C 
ATOM     13  C   UNL     1      33.114 -12.833 -22.352  0.00  0.00    +0.040 C 
ATOM     14  C   UNL     1      33.249 -14.516 -20.624  0.00  0.00    +0.038 C 
ATOM     15  C   UNL     1      31.674 -12.697 -20.417  0.00  0.00    +0.003 C 
ATOM     16  C   UNL     1      32.244 -13.864 -19.910  0.00  0.00    +0.003 C 
BRANCH  12  19
ATOM     17  N   UNL     1      32.171 -10.235 -23.078  0.00  0.00    -0.387 N 
ATOM     18  N   UNL     1      30.308 -10.564 -21.741  0.00  0.00    -0.345 N 
ATOM     19  C   UNL     1      31.517 -10.971 -22.163  0.00  0.00    +0.096 C 
ATOM     20  H   UNL     1      31.762  -9.412 -23.431  0.00  0.00    +0.157 HD
ATOM     21  H   UNL     1      33.059 -10.519 -23.397  0.00  0.00    +0.157 HD
ATOM     22  H   UNL     1      29.912  -9.738 -22.103  0.00  0.00    +0.144 HD
ATOM     23  H   UNL     1      29.818 -11.092 -21.070  0.00  0.00    +0.144 HD
ENDBRANCH  12  19
ENDBRANCH  10  11
ENDBRANCH   5  10
BRANCH   6  24
ATOM     24  O   UNL     1      35.641 -19.005 -21.321  0.00  0.00    -0.426 OA
BRANCH  24  25
ATOM     25  C   UNL     1      34.883 -19.749 -20.471  0.00  0.00    +0.148 C 
ATOM     26  C   UNL     1      34.711 -21.213 -18.556  0.00  0.00    +0.034 C 
ATOM     27  C   UNL     1      35.488 -20.449 -19.427  0.00  0.00    +0.040 C 
ATOM     28  C   UNL     1      33.500 -19.815 -20.645  0.00  0.00    +0.038 C 
ATOM     29  C   UNL     1      33.328 -21.279 -18.730  0.00  0.00    +0.003 C 
ATOM     30  C   UNL     1      32.723 -20.579 -19.774  0.00  0.00    +0.003 C 
BRANCH  26  33
ATOM     31  N   UNL     1      36.703 -21.809 -17.200  0.00  0.00    -0.343 N 
ATOM     32  N   UNL     1      34.622 -22.756 -16.715  0.00  0.00    -0.285 NA
ATOM     33  C   UNL     1      35.342 -21.943 -17.468  0.00  0.00    +0.117 C 
ATOM     34  H   UNL     1      37.111 -22.313 -16.459  0.00  0.00    +0.144 HD
ATOM     35  H   UNL     1      37.258 -21.211 -17.751  0.00  0.00    +0.144 HD
ATOM     36  H   UNL     1      35.049 -23.250 -15.978  0.00  0.00    +0.188 HD
ENDBRANCH  26  33
ENDBRANCH  24  25
ENDBRANCH   6  24
TORSDOF 6
ENDMDL
MODEL 3
REMARK VINA RESULT:     -12.6      1.576      2.230
REMARK  Name = 4470378
REMARK  6 active torsions:
REMARK  status: ('A' for Active; 'I' for Inactive)
REMARK    1  A    between atoms: C_5  and  O_10
REMARK    2  A    between atoms: C_6  and  O_24
REMARK    3  A    between atoms: O_10  and  C_11
REMARK    4  A    between atoms: C_12  and  C_19
REMARK    5  A    between atoms: O_24  and  C_25
REMARK    6  A    between atoms: C_26  and  C_33
REMARK                            x       y       z     vdW  Elec       q    Type
REMARK                         _______ _______ _______ _____ _____    ______ ____
ROOT
ATOM      1  F   UNL     1      31.762 -23.143 -17.306  0.00  0.00    -0.221 F 
ATOM      2  F   UNL     1      33.878 -22.536 -13.093  0.00  0.00    -0.199 F 
ATOM      3  N   UNL     1      35.223 -22.456 -16.462  0.00  0.00    -0.331 NA
ATOM      4  C   UNL     1      32.773 -22.848 -15.174  0.00  0.00    +0.031 C 
ATOM      5  C   UNL     1      34.086 -22.702 -17.152  0.00  0.00    +0.298 C 
ATOM      6  C   UNL     1      35.097 -22.412 -15.123  0.00  0.00    +0.312 C 
ATOM      7  C   UNL     1      32.849 -22.903 -16.562  0.00  0.00    +0.270 C 
ATOM      8  C   UNL     1      33.920 -22.596 -14.430  0.00  0.00    +0.201 C 
ATOM      9  C   UNL     1      31.466 -23.058 -14.487  0.00  0.00    +0.032 C 
ENDROOT
BRANCH   5  10
ATOM     10  O   UNL     1      34.188 -22.753 -18.517  0.00  0.00    -0.428 OA
BRANCH  10  11
ATOM     11  C   UNL     1      33.887 -21.604 -19.219  0.00  0.00    +0.148 C 
ATOM     12  C   UNL     1      34.610 -19.693 -20.478  0.00  0.00    +0.032 C 
ATOM     13  C   UNL     1      34.915 -20.856 -19.769  0.00  0.00    +0.040 C 
ATOM     14  C   UNL     1      32.563 -21.223 -19.359  0.00  0.00    +0.038 C 
ATOM     15  C   UNL     1      33.282 -19.297 -20.628  0.00  0.00    +0.003 C 
ATOM     16  C   UNL     1      32.257 -20.061 -20.068  0.00  0.00    +0.003 C 
BRANCH  12  19
ATOM     17  N   UNL     1      35.569 -18.442 -22.317  0.00  0.00    -0.387 N 
ATOM     18  N   UNL     1      36.775 -18.615 -20.347  0.00  0.00    -0.345 N 
ATOM     19  C   UNL     1      35.671 -18.901 -21.058  0.00  0.00    +0.096 C 
ATOM     20  H   UNL     1      36.295 -17.903 -22.705  0.00  0.00    +0.157 HD
ATOM     21  H   UNL     1      34.766 -18.644 -22.851  0.00  0.00    +0.157 HD
ATOM     22  H   UNL     1      37.494 -18.076 -20.749  0.00  0.00    +0.144 HD
ATOM     23  H   UNL     1      36.865 -18.946 -19.424  0.00  0.00    +0.144 HD
ENDBRANCH  12  19
ENDBRANCH  10  11
ENDBRANCH   5  10
BRANCH   6  24
ATOM     24  O   UNL     1      36.255 -22.162 -14.406  0.00  0.00    -0.426 OA
BRANCH  24  25
ATOM     25  C   UNL     1      36.876 -23.221 -13.819  0.00  0.00    +0.148 C 
ATOM     26  C   UNL     1      38.582 -24.932 -13.858  0.00  0.00    +0.034 C 
ATOM     27  C   UNL     1      37.946 -23.845 -14.459  0.00  0.00    +0.040 C 
ATOM     28  C   UNL     1      36.441 -23.683 -12.576  0.00  0.00    +0.038 C 
ATOM     29  C   UNL     1      38.147 -25.394 -12.616  0.00  0.00    +0.003 C 
ATOM     30  C   UNL     1      37.077 -24.769 -11.975  0.00  0.00    +0.003 C 
BRANCH  26  33
ATOM     31  N   UNL     1      40.616 -26.354 -13.817  0.00  0.00    -0.343 N 
ATOM     32  N   UNL     1      39.857 -25.442 -15.830  0.00  0.00    -0.285 NA
ATOM     33  C   UNL     1      39.698 -25.583 -14.527  0.00  0.00    +0.117 C 
ATOM     34  H   UNL     1      41.364 -26.786 -14.289  0.00  0.00    +0.144 HD
ATOM     35  H   UNL     1      40.517 -26.469 -12.844  0.00  0.00    +0.144 HD
ATOM     36  H   UNL     1      40.611 -25.883 -16.284  0.00  0.00    +0.188 HD
ENDBRANCH  26  33
ENDBRANCH  24  25
ENDBRANCH   6  24
TORSDOF 6
ENDMDL
MODEL 4
REMARK VINA RESULT:     -12.5      2.683      5.115
REMARK  Name = 4470378
REMARK  6 active torsions:
REMARK  status: ('A' for Active; 'I' for Inactive)
REMARK    1  A    between atoms: C_5  and  O_10
REMARK    2  A    between atoms: C_6  and  O_24
REMARK    3  A    between atoms: O_10  and  C_11
REMARK    4  A    between atoms: C_12  and  C_19
REMARK    5  A    between atoms: O_24  and  C_25
REMARK    6  A    between atoms: C_26  and  C_33
REMARK                            x       y       z     vdW  Elec       q    Type
REMARK                         _______ _______ _______ _____ _____    ______ ____
ROOT
ATOM      1  F   UNL     1      33.385 -22.239 -19.360  0.00  0.00    -0.221 F 
ATOM      2  F   UNL     1      37.251 -20.484 -17.222  0.00  0.00    -0.199 F 
ATOM      3  N   UNL     1      34.598 -22.614 -15.961  0.00  0.00    -0.331 NA
ATOM      4  C   UNL     1      35.332 -21.336 -18.336  0.00  0.00    +0.031 C 
ATOM      5  C   UNL     1      33.851 -22.713 -17.084  0.00  0.00    +0.298 C 
ATOM      6  C   UNL     1      35.711 -21.865 -16.062  0.00  0.00    +0.312 C 
ATOM      7  C   UNL     1      34.171 -22.100 -18.285  0.00  0.00    +0.270 C 
ATOM      8  C   UNL     1      36.127 -21.211 -17.202  0.00  0.00    +0.201 C 
ATOM      9  C   UNL     1      35.724 -20.654 -19.603  0.00  0.00    +0.032 C 
ENDROOT
BRANCH   5  10
ATOM     10  O   UNL     1      32.712 -23.469 -17.007  0.00  0.00    -0.428 OA
BRANCH  10  11
ATOM     11  C   UNL     1      31.752 -23.081 -16.094  0.00  0.00    +0.148 C 
ATOM     12  C   UNL     1      29.469 -22.545 -15.587  0.00  0.00    +0.032 C 
ATOM     13  C   UNL     1      30.439 -22.939 -16.510  0.00  0.00    +0.040 C 
ATOM     14  C   UNL     1      32.124 -22.841 -14.781  0.00  0.00    +0.038 C 
ATOM     15  C   UNL     1      29.827 -22.300 -14.261  0.00  0.00    +0.003 C 
ATOM     16  C   UNL     1      31.155 -22.447 -13.858  0.00  0.00    +0.003 C 
BRANCH  12  19
ATOM     17  N   UNL     1      27.166 -21.942 -15.142  0.00  0.00    -0.387 N 
ATOM     18  N   UNL     1      27.724 -22.699 -17.259  0.00  0.00    -0.345 N 
ATOM     19  C   UNL     1      28.094 -22.392 -16.004  0.00  0.00    +0.096 C 
ATOM     20  H   UNL     1      26.231 -21.840 -15.433  0.00  0.00    +0.157 HD
ATOM     21  H   UNL     1      27.421 -21.713 -14.218  0.00  0.00    +0.157 HD
ATOM     22  H   UNL     1      26.785 -22.593 -17.535  0.00  0.00    +0.144 HD
ATOM     23  H   UNL     1      28.392 -23.032 -17.901  0.00  0.00    +0.144 HD
ENDBRANCH  12  19
ENDBRANCH  10  11
ENDBRANCH   5  10
BRANCH   6  24
ATOM     24  O   UNL     1      36.483 -21.756 -14.917  0.00  0.00    -0.426 OA
BRANCH  24  25
ATOM     25  C   UNL     1      36.855 -22.906 -14.294  0.00  0.00    +0.148 C 
ATOM     26  C   UNL     1      38.365 -24.782 -14.090  0.00  0.00    +0.034 C 
ATOM     27  C   UNL     1      37.983 -23.602 -14.729  0.00  0.00    +0.040 C 
ATOM     28  C   UNL     1      36.108 -23.392 -13.221  0.00  0.00    +0.038 C 
ATOM     29  C   UNL     1      37.618 -25.267 -13.017  0.00  0.00    +0.003 C 
ATOM     30  C   UNL     1      36.489 -24.572 -12.582  0.00  0.00    +0.003 C 
BRANCH  26  33
ATOM     31  N   UNL     1      40.316 -26.256 -13.661  0.00  0.00    -0.343 N 
ATOM     32  N   UNL     1      39.895 -25.458 -15.816  0.00  0.00    -0.285 NA
ATOM     33  C   UNL     1      39.541 -25.507 -14.544  0.00  0.00    +0.117 C 
ATOM     34  H   UNL     1      41.108 -26.739 -13.989  0.00  0.00    +0.144 HD
ATOM     35  H   UNL     1      40.071 -26.303 -12.708  0.00  0.00    +0.144 HD
ATOM     36  H   UNL     1      40.691 -25.948 -16.125  0.00  0.00    +0.188 HD
ENDBRANCH  26  33
ENDBRANCH  24  25
ENDBRANCH   6  24
TORSDOF 6
ENDMDL
MODEL 5
REMARK VINA RESULT:     -12.5      1.543      7.169
REMARK  Name = 4470378
REMARK  6 active torsions:
REMARK  status: ('A' for Active; 'I' for Inactive)
REMARK    1  A    between atoms: C_5  and  O_10
REMARK    2  A    between atoms: C_6  and  O_24
REMARK    3  A    between atoms: O_10  and  C_11
REMARK    4  A    between atoms: C_12  and  C_19
REMARK    5  A    between atoms: O_24  and  C_25
REMARK    6  A    between atoms: C_26  and  C_33
REMARK                            x       y       z     vdW  Elec       q    Type
REMARK                         _______ _______ _______ _____ _____    ______ ____
ROOT
ATOM      1  F   UNL     1      33.238 -22.605 -13.125  0.00  0.00    -0.221 F 
ATOM      2  F   UNL     1      31.747 -23.080 -17.614  0.00  0.00    -0.199 F 
ATOM      3  N   UNL     1      35.058 -22.469 -16.261  0.00  0.00    -0.331 NA
ATOM      4  C   UNL     1      32.442 -22.849 -15.352  0.00  0.00    +0.031 C 
ATOM      5  C   UNL     1      34.751 -22.451 -14.944  0.00  0.00    +0.298 C 
ATOM      6  C   UNL     1      34.027 -22.680 -17.100  0.00  0.00    +0.312 C 
ATOM      7  C   UNL     1      33.472 -22.635 -14.443  0.00  0.00    +0.270 C 
ATOM      8  C   UNL     1      32.718 -22.874 -16.715  0.00  0.00    +0.201 C 
ATOM      9  C   UNL     1      31.046 -23.051 -14.868  0.00  0.00    +0.032 C 
ENDROOT
BRANCH   5  10
ATOM     10  O   UNL     1      35.783 -22.237 -14.070  0.00  0.00    -0.428 OA
BRANCH  10  11
ATOM     11  C   UNL     1      36.428 -23.347 -13.564  0.00  0.00    +0.148 C 
ATOM     12  C   UNL     1      38.225 -24.932 -13.679  0.00  0.00    +0.032 C 
ATOM     13  C   UNL     1      37.574 -23.809 -14.190  0.00  0.00    +0.040 C 
ATOM     14  C   UNL     1      35.915 -23.976 -12.442  0.00  0.00    +0.038 C 
ATOM     15  C   UNL     1      37.721 -25.577 -12.549  0.00  0.00    +0.003 C 
ATOM     16  C   UNL     1      36.565 -25.099 -11.931  0.00  0.00    +0.003 C 
BRANCH  12  19
ATOM     17  N   UNL     1      39.696 -25.106 -15.596  0.00  0.00    -0.387 N 
ATOM     18  N   UNL     1      40.277 -26.218 -13.649  0.00  0.00    -0.345 N 
ATOM     19  C   UNL     1      39.423 -25.428 -14.319  0.00  0.00    +0.096 C 
ATOM     20  H   UNL     1      40.513 -25.447 -16.025  0.00  0.00    +0.157 HD
ATOM     21  H   UNL     1      39.078 -24.528 -16.101  0.00  0.00    +0.157 HD
ATOM     22  H   UNL     1      41.091 -26.553 -14.092  0.00  0.00    +0.144 HD
ATOM     23  H   UNL     1      40.090 -26.464 -12.714  0.00  0.00    +0.144 HD
ENDBRANCH  12  19
ENDBRANCH  10  11
ENDBRANCH   5  10
BRANCH   6  24
ATOM     24  O   UNL     1      34.329 -22.698 -18.451  0.00  0.00    -0.426 OA
BRANCH  24  25
ATOM     25  C   UNL     1      34.029 -21.590 -19.181  0.00  0.00    +0.148 C 
ATOM     26  C   UNL     1      34.745 -19.663 -20.451  0.00  0.00    +0.034 C 
ATOM     27  C   UNL     1      35.053 -20.800 -19.704  0.00  0.00    +0.040 C 
ATOM     28  C   UNL     1      32.697 -21.242 -19.405  0.00  0.00    +0.038 C 
ATOM     29  C   UNL     1      33.413 -19.315 -20.675  0.00  0.00    +0.003 C 
ATOM     30  C   UNL     1      32.389 -20.105 -20.152  0.00  0.00    +0.003 C 
BRANCH  26  33
ATOM     31  N   UNL     1      35.784 -18.396 -22.317  0.00  0.00    -0.343 N 
ATOM     32  N   UNL     1      36.839 -18.503 -20.235  0.00  0.00    -0.285 NA
ATOM     33  C   UNL     1      35.814 -18.839 -20.996  0.00  0.00    +0.117 C 
ATOM     34  H   UNL     1      36.517 -17.840 -22.666  0.00  0.00    +0.144 HD
ATOM     35  H   UNL     1      35.030 -18.639 -22.902  0.00  0.00    +0.144 HD
ATOM     36  H   UNL     1      37.563 -17.946 -20.602  0.00  0.00    +0.188 HD
ENDBRANCH  26  33
ENDBRANCH  24  25
ENDBRANCH   6  24
TORSDOF 6
ENDMDL
MODEL 6
REMARK VINA RESULT:     -12.3      5.400      8.927
REMARK  Name = 4470378
REMARK  6 active torsions:
REMARK  status: ('A' for Active; 'I' for Inactive)
REMARK    1  A    between atoms: C_5  and  O_10
REMARK    2  A    between atoms: C_6  and  O_24
REMARK    3  A    between atoms: O_10  and  C_11
REMARK    4  A    between atoms: C_12  and  C_19
REMARK    5  A    between atoms: O_24  and  C_25
REMARK    6  A    between atoms: C_26  and  C_33
REMARK                            x       y       z     vdW  Elec       q    Type
REMARK                         _______ _______ _______ _____ _____    ______ ____
ROOT
ATOM      1  F   UNL     1      32.826 -15.582 -24.641  0.00  0.00    -0.221 F 
ATOM      2  F   UNL     1      34.534 -19.803 -23.279  0.00  0.00    -0.199 F 
ATOM      3  N   UNL     1      35.363 -16.442 -22.194  0.00  0.00    -0.331 NA
ATOM      4  C   UNL     1      33.647 -17.717 -23.995  0.00  0.00    +0.031 C 
ATOM      5  C   UNL     1      34.512 -15.747 -22.983  0.00  0.00    +0.298 C 
ATOM      6  C   UNL     1      35.329 -17.780 -22.333  0.00  0.00    +0.312 C 
ATOM      7  C   UNL     1      33.643 -16.331 -23.890  0.00  0.00    +0.270 C 
ATOM      8  C   UNL     1      34.508 -18.467 -23.201  0.00  0.00    +0.201 C 
ATOM      9  C   UNL     1      32.733 -18.398 -24.956  0.00  0.00    +0.032 C 
ENDROOT
BRANCH   5  10
ATOM     10  O   UNL     1      34.528 -14.383 -22.861  0.00  0.00    -0.428 OA
BRANCH  10  11
ATOM     11  C   UNL     1      33.577 -13.807 -22.044  0.00  0.00    +0.148 C 
ATOM     12  C   UNL     1      31.985 -12.061 -21.627  0.00  0.00    +0.032 C 
ATOM     13  C   UNL     1      32.946 -12.643 -22.453  0.00  0.00    +0.040 C 
ATOM     14  C   UNL     1      33.272 -14.405 -20.832  0.00  0.00    +0.038 C 
ATOM     15  C   UNL     1      31.667 -12.651 -20.404  0.00  0.00    +0.003 C 
ATOM     16  C   UNL     1      32.311 -13.823 -20.006  0.00  0.00    +0.003 C 
BRANCH  12  19
ATOM     17  N   UNL     1      30.104 -10.536 -21.550  0.00  0.00    -0.387 N 
ATOM     18  N   UNL     1      31.900 -10.012 -22.916  0.00  0.00    -0.345 N 
ATOM     19  C   UNL     1      31.318 -10.846 -22.038  0.00  0.00    +0.096 C 
ATOM     20  H   UNL     1      29.656  -9.707 -21.836  0.00  0.00    +0.157 HD
ATOM     21  H   UNL     1      29.664 -11.138 -20.907  0.00  0.00    +0.157 HD
ATOM     22  H   UNL     1      31.439  -9.187 -23.193  0.00  0.00    +0.144 HD
ATOM     23  H   UNL     1      32.788 -10.227 -23.284  0.00  0.00    +0.144 HD
ENDBRANCH  12  19
ENDBRANCH  10  11
ENDBRANCH   5  10
BRANCH   6  24
ATOM     24  O   UNL     1      36.198 -18.502 -21.532  0.00  0.00    -0.426 OA
BRANCH  24  25
ATOM     25  C   UNL     1      35.658 -19.393 -20.657  0.00  0.00    +0.148 C 
ATOM     26  C   UNL     1      33.719 -20.466 -19.693  0.00  0.00    +0.034 C 
ATOM     27  C   UNL     1      34.273 -19.554 -20.591  0.00  0.00    +0.040 C 
ATOM     28  C   UNL     1      36.487 -20.144 -19.824  0.00  0.00    +0.038 C 
ATOM     29  C   UNL     1      34.549 -21.217 -18.860  0.00  0.00    +0.003 C 
ATOM     30  C   UNL     1      35.934 -21.056 -18.927  0.00  0.00    +0.003 C 
BRANCH  26  33
ATOM     31  N   UNL     1      31.673 -21.282 -18.547  0.00  0.00    -0.343 N 
ATOM     32  N   UNL     1      31.512 -20.172 -20.597  0.00  0.00    -0.285 NA
ATOM     33  C   UNL     1      32.276 -20.634 -19.624  0.00  0.00    +0.117 C 
ATOM     34  H   UNL     1      30.695 -21.385 -18.521  0.00  0.00    +0.144 HD
ATOM     35  H   UNL     1      32.225 -21.637 -17.813  0.00  0.00    +0.144 HD
ATOM     36  H   UNL     1      30.536 -20.284 -20.552  0.00  0.00    +0.188 HD
ENDBRANCH  26  33
ENDBRANCH  24  25
ENDBRANCH   6  24
TORSDOF 6
ENDMDL
MODEL 7
REMARK VINA RESULT:     -12.3      0.187      6.647
REMARK  Name = 4470378
REMARK  6 active torsions:
REMARK  status: ('A' for Active; 'I' for Inactive)
REMARK    1  A    between atoms: C_5  and  O_10
REMARK    2  A    between atoms: C_6  and  O_24
REMARK    3  A    between atoms: O_10  and  C_11
REMARK    4  A    between atoms: C_12  and  C_19
REMARK    5  A    between atoms: O_24  and  C_25
REMARK    6  A    between atoms: C_26  and  C_33
REMARK                            x       y       z     vdW  Elec       q    Type
REMARK                         _______ _______ _______ _____ _____    ______ ____
ROOT
ATOM      1  F   UNL     1      32.259 -23.843 -13.304  0.00  0.00    -0.221 F 
ATOM      2  F   UNL     1      30.402 -21.603 -17.062  0.00  0.00    -0.199 F 
ATOM      3  N   UNL     1      33.470 -23.506 -16.707  0.00  0.00    -0.331 NA
ATOM      4  C   UNL     1      31.288 -22.707 -15.153  0.00  0.00    +0.031 C 
ATOM      5  C   UNL     1      33.362 -23.844 -15.402  0.00  0.00    +0.298 C 
ATOM      6  C   UNL     1      32.464 -22.764 -17.205  0.00  0.00    +0.312 C 
ATOM      7  C   UNL     1      32.303 -23.474 -14.590  0.00  0.00    +0.270 C 
ATOM      8  C   UNL     1      31.363 -22.340 -16.493  0.00  0.00    +0.201 C 
ATOM      9  C   UNL     1      30.125 -22.280 -14.324  0.00  0.00    +0.032 C 
ENDROOT
BRANCH   5  10
ATOM     10  O   UNL     1      34.375 -24.598 -14.871  0.00  0.00    -0.428 OA
BRANCH  10  11
ATOM     11  C   UNL     1      35.654 -24.087 -14.948  0.00  0.00    +0.148 C 
ATOM     12  C   UNL     1      38.026 -24.393 -14.741  0.00  0.00    +0.032 C 
ATOM     13  C   UNL     1      36.732 -24.911 -14.664  0.00  0.00    +0.040 C 
ATOM     14  C   UNL     1      35.835 -22.761 -15.306  0.00  0.00    +0.038 C 
ATOM     15  C   UNL     1      38.223 -23.060 -15.100  0.00  0.00    +0.003 C 
ATOM     16  C   UNL     1      37.127 -22.244 -15.383  0.00  0.00    +0.003 C 
BRANCH  12  19
ATOM     17  N   UNL     1      39.258 -25.862 -13.261  0.00  0.00    -0.387 N 
ATOM     18  N   UNL     1      40.135 -25.410 -15.357  0.00  0.00    -0.345 N 
ATOM     19  C   UNL     1      39.161 -25.238 -14.448  0.00  0.00    +0.096 C 
ATOM     20  H   UNL     1      40.034 -26.436 -13.069  0.00  0.00    +0.157 HD
ATOM     21  H   UNL     1      38.552 -25.745 -12.584  0.00  0.00    +0.157 HD
ATOM     22  H   UNL     1      40.906 -25.987 -15.150  0.00  0.00    +0.144 HD
ATOM     23  H   UNL     1      40.079 -24.959 -16.230  0.00  0.00    +0.144 HD
ENDBRANCH  12  19
ENDBRANCH  10  11
ENDBRANCH   5  10
BRANCH   6  24
ATOM     24  O   UNL     1      32.565 -22.411 -18.540  0.00  0.00    -0.426 OA
BRANCH  24  25
ATOM     25  C   UNL     1      33.624 -21.642 -18.912  0.00  0.00    +0.148 C 
ATOM     26  C   UNL     1      34.546 -19.862 -20.262  0.00  0.00    +0.034 C 
ATOM     27  C   UNL     1      33.461 -20.649 -19.879  0.00  0.00    +0.040 C 
ATOM     28  C   UNL     1      34.875 -21.847 -18.329  0.00  0.00    +0.038 C 
ATOM     29  C   UNL     1      35.797 -20.067 -19.679  0.00  0.00    +0.003 C 
ATOM     30  C   UNL     1      35.960 -21.060 -18.712  0.00  0.00    +0.003 C 
BRANCH  26  33
ATOM     31  N   UNL     1      34.776 -17.514 -21.034  0.00  0.00    -0.343 N 
ATOM     32  N   UNL     1      33.826 -19.126 -22.433  0.00  0.00    -0.285 NA
ATOM     33  C   UNL     1      34.375 -18.827 -21.270  0.00  0.00    +0.117 C 
ATOM     34  H   UNL     1      34.651 -16.829 -21.730  0.00  0.00    +0.144 HD
ATOM     35  H   UNL     1      35.184 -17.270 -20.172  0.00  0.00    +0.144 HD
ATOM     36  H   UNL     1      33.709 -18.427 -23.116  0.00  0.00    +0.188 HD
ENDBRANCH  26  33
ENDBRANCH  24  25
ENDBRANCH   6  24
TORSDOF 6
ENDMDL
MODEL 8
REMARK VINA RESULT:     -12.3      3.079      5.521
REMARK  Name = 4470378
REMARK  6 active torsions:
REMARK  status: ('A' for Active; 'I' for Inactive)
REMARK    1  A    between atoms: C_5  and  O_10
REMARK    2  A    between atoms: C_6  and  O_24
REMARK    3  A    between atoms: O_10  and  C_11
REMARK    4  A    between atoms: C_12  and  C_19
REMARK    5  A    between atoms: O_24  and  C_25
REMARK    6  A    between atoms: C_26  and  C_33
REMARK                            x       y       z     vdW  Elec       q    Type
REMARK                         _______ _______ _______ _____ _____    ______ ____
ROOT
ATOM      1  F   UNL     1      33.225 -22.133 -19.277  0.00  0.00    -0.221 F 
ATOM      2  F   UNL     1      37.262 -20.559 -17.324  0.00  0.00    -0.199 F 
ATOM      3  N   UNL     1      34.684 -22.749 -16.013  0.00  0.00    -0.331 NA
ATOM      4  C   UNL     1      35.255 -21.318 -18.345  0.00  0.00    +0.031 C 
ATOM      5  C   UNL     1      33.854 -22.765 -17.080  0.00  0.00    +0.298 C 
ATOM      6  C   UNL     1      35.796 -22.003 -16.147  0.00  0.00    +0.312 C 
ATOM      7  C   UNL     1      34.091 -22.074 -18.258  0.00  0.00    +0.270 C 
ATOM      8  C   UNL     1      36.134 -21.277 -17.268  0.00  0.00    +0.201 C 
ATOM      9  C   UNL     1      35.559 -20.554 -19.589  0.00  0.00    +0.032 C 
ENDROOT
BRANCH   5  10
ATOM     10  O   UNL     1      32.714 -23.516 -16.968  0.00  0.00    -0.428 OA
BRANCH  10  11
ATOM     11  C   UNL     1      31.760 -23.091 -16.066  0.00  0.00    +0.148 C 
ATOM     12  C   UNL     1      29.479 -22.533 -15.568  0.00  0.00    +0.032 C 
ATOM     13  C   UNL     1      30.444 -22.964 -16.481  0.00  0.00    +0.040 C 
ATOM     14  C   UNL     1      32.138 -22.799 -14.766  0.00  0.00    +0.038 C 
ATOM     15  C   UNL     1      29.845 -22.236 -14.256  0.00  0.00    +0.003 C 
ATOM     16  C   UNL     1      31.174 -22.368 -13.854  0.00  0.00    +0.003 C 
BRANCH  12  19
ATOM     17  N   UNL     1      27.196 -21.830 -15.167  0.00  0.00    -0.387 N 
ATOM     18  N   UNL     1      27.708 -22.832 -17.192  0.00  0.00    -0.345 N 
ATOM     19  C   UNL     1      28.102 -22.395 -15.984  0.00  0.00    +0.096 C 
ATOM     20  H   UNL     1      26.260 -21.740 -15.457  0.00  0.00    +0.157 HD
ATOM     21  H   UNL     1      27.470 -21.505 -14.278  0.00  0.00    +0.157 HD
ATOM     22  H   UNL     1      26.767 -22.735 -17.468  0.00  0.00    +0.144 HD
ATOM     23  H   UNL     1      28.359 -23.249 -17.801  0.00  0.00    +0.144 HD
ENDBRANCH  12  19
ENDBRANCH  10  11
ENDBRANCH   5  10
BRANCH   6  24
ATOM     24  O   UNL     1      36.653 -21.978 -15.059  0.00  0.00    -0.426 OA
BRANCH  24  25
ATOM     25  C   UNL     1      36.658 -23.059 -14.233  0.00  0.00    +0.148 C 
ATOM     26  C   UNL     1      36.233 -24.039 -12.066  0.00  0.00    +0.034 C 
ATOM     27  C   UNL     1      36.227 -22.931 -12.913  0.00  0.00    +0.040 C 
ATOM     28  C   UNL     1      37.097 -24.296 -14.706  0.00  0.00    +0.038 C 
ATOM     29  C   UNL     1      36.672 -25.276 -12.538  0.00  0.00    +0.003 C 
ATOM     30  C   UNL     1      37.104 -25.404 -13.859  0.00  0.00    +0.003 C 
BRANCH  26  33
ATOM     31  N   UNL     1      36.202 -22.841  -9.891  0.00  0.00    -0.343 N 
ATOM     32  N   UNL     1      34.967 -24.805 -10.172  0.00  0.00    -0.285 NA
ATOM     33  C   UNL     1      35.784 -23.904 -10.689  0.00  0.00    +0.117 C 
ATOM     34  H   UNL     1      35.885 -22.769  -8.962  0.00  0.00    +0.144 HD
ATOM     35  H   UNL     1      36.813 -22.161 -10.256  0.00  0.00    +0.144 HD
ATOM     36  H   UNL     1      34.662 -24.715  -9.241  0.00  0.00    +0.188 HD
ENDBRANCH  26  33
ENDBRANCH  24  25
ENDBRANCH   6  24
TORSDOF 6
ENDMDL
MODEL 9
REMARK VINA RESULT:     -12.1      2.700      7.723
REMARK  Name = 4470378
REMARK  6 active torsions:
REMARK  status: ('A' for Active; 'I' for Inactive)
REMARK    1  A    between atoms: C_5  and  O_10
REMARK    2  A    between atoms: C_6  and  O_24
REMARK    3  A    between atoms: O_10  and  C_11
REMARK    4  A    between atoms: C_12  and  C_19
REMARK    5  A    between atoms: O_24  and  C_25
REMARK    6  A    between atoms: C_26  and  C_33
REMARK                            x       y       z     vdW  Elec       q    Type
REMARK                         _______ _______ _______ _____ _____    ______ ____
ROOT
ATOM      1  F   UNL     1      37.264 -20.409 -17.109  0.00  0.00    -0.221 F 
ATOM      2  F   UNL     1      33.461 -22.240 -19.295  0.00  0.00    -0.199 F 
ATOM      3  N   UNL     1      34.614 -22.556 -15.870  0.00  0.00    -0.331 NA
ATOM      4  C   UNL     1      35.377 -21.301 -18.248  0.00  0.00    +0.031 C 
ATOM      5  C   UNL     1      35.728 -21.793 -15.948  0.00  0.00    +0.298 C 
ATOM      6  C   UNL     1      33.903 -22.671 -17.006  0.00  0.00    +0.312 C 
ATOM      7  C   UNL     1      36.149 -21.150 -17.101  0.00  0.00    +0.270 C 
ATOM      8  C   UNL     1      34.225 -22.078 -18.208  0.00  0.00    +0.201 C 
ATOM      9  C   UNL     1      35.784 -20.632 -19.517  0.00  0.00    +0.032 C 
ENDROOT
BRANCH   5  10
ATOM     10  O   UNL     1      36.471 -21.662 -14.805  0.00  0.00    -0.428 OA
BRANCH  10  11
ATOM     11  C   UNL     1      36.848 -22.820 -14.157  0.00  0.00    +0.148 C 
ATOM     12  C   UNL     1      38.350 -24.679 -13.937  0.00  0.00    +0.032 C 
ATOM     13  C   UNL     1      37.969 -23.507 -14.593  0.00  0.00    +0.040 C 
ATOM     14  C   UNL     1      36.098 -23.271 -13.083  0.00  0.00    +0.038 C 
ATOM     15  C   UNL     1      37.604 -25.146 -12.855  0.00  0.00    +0.003 C 
ATOM     16  C   UNL     1      36.478 -24.442 -12.428  0.00  0.00    +0.003 C 
BRANCH  12  19
ATOM     17  N   UNL     1      40.220 -26.159 -13.514  0.00  0.00    -0.387 N 
ATOM     18  N   UNL     1      39.914 -25.345 -15.661  0.00  0.00    -0.345 N 
ATOM     19  C   UNL     1      39.516 -25.409 -14.380  0.00  0.00    +0.096 C 
ATOM     20  H   UNL     1      41.014 -26.652 -13.823  0.00  0.00    +0.157 HD
ATOM     21  H   UNL     1      39.942 -26.214 -12.571  0.00  0.00    +0.157 HD
ATOM     22  H   UNL     1      40.711 -25.845 -15.955  0.00  0.00    +0.144 HD
ATOM     23  H   UNL     1      39.410 -24.799 -16.307  0.00  0.00    +0.144 HD
ENDBRANCH  12  19
ENDBRANCH  10  11
ENDBRANCH   5  10
BRANCH   6  24
ATOM     24  O   UNL     1      32.761 -23.452 -16.938  0.00  0.00    -0.426 OA
BRANCH  24  25
ATOM     25  C   UNL     1      31.803 -23.094 -16.041  0.00  0.00    +0.148 C 
ATOM     26  C   UNL     1      29.510 -22.510 -15.548  0.00  0.00    +0.034 C 
ATOM     27  C   UNL     1      30.492 -22.877 -16.468  0.00  0.00    +0.040 C 
ATOM     28  C   UNL     1      32.131 -22.942 -14.694  0.00  0.00    +0.038 C 
ATOM     29  C   UNL     1      29.838 -22.357 -14.201  0.00  0.00    +0.003 C 
ATOM     30  C   UNL     1      31.149 -22.574 -13.774  0.00  0.00    +0.003 C 
BRANCH  26  33
ATOM     31  N   UNL     1      27.680 -22.806 -17.200  0.00  0.00    -0.343 N 
ATOM     32  N   UNL     1      27.320 -21.565 -15.253  0.00  0.00    -0.285 NA
ATOM     33  C   UNL     1      28.144 -22.283 -15.994  0.00  0.00    +0.117 C 
ATOM     34  H   UNL     1      26.752 -22.641 -17.483  0.00  0.00    +0.144 HD
ATOM     35  H   UNL     1      28.280 -23.342 -17.769  0.00  0.00    +0.144 HD
ATOM     36  H   UNL     1      26.396 -21.412 -15.554  0.00  0.00    +0.188 HD
ENDBRANCH  26  33
ENDBRANCH  24  25
ENDBRANCH   6  24
TORSDOF 6
ENDMDL
