MODEL 1
REMARK VINA RESULT:     -11.3      0.000      0.000
REMARK  Name = 4177750
REMARK  5 active torsions:
REMARK  status: ('A' for Active; 'I' for Inactive)
REMARK    1  A    between atoms: N_3  and  C_17
REMARK    2  A    between atoms: C_8  and  N_23
REMARK    3  A    between atoms: N_23  and  C_25
REMARK    4  A    between atoms: C_25  and  C_26
REMARK    5  A    between atoms: C_26  and  O_27
REMARK                            x       y       z     vdW  Elec       q    Type
REMARK                         _______ _______ _______ _____ _____    ______ ____
ROOT
ATOM      1  O   UNL     1      34.190 -15.382 -19.814  0.00  0.00    -0.269 OA
ATOM      2  O   UNL     1      34.197 -17.223 -24.142  0.00  0.00    -0.269 OA
ATOM      3  N   UNL     1      34.237 -16.405 -21.934  0.00  0.00    -0.201 N 
ATOM      4  C   UNL     1      33.250 -13.973 -22.970  0.00  0.00    +0.010 C 
ATOM      5  C   UNL     1      32.754 -12.750 -23.491  0.00  0.00    +0.013 C 
ATOM      6  C   UNL     1      33.380 -14.120 -21.586  0.00  0.00    +0.055 C 
ATOM      7  C   UNL     1      33.595 -14.999 -23.855  0.00  0.00    +0.054 C 
ATOM      8  C   UNL     1      32.390 -11.718 -22.613  0.00  0.00    +0.045 C 
ATOM      9  C   UNL     1      33.950 -15.363 -21.021  0.00  0.00    +0.259 C 
ATOM     10  C   UNL     1      34.060 -16.305 -23.334  0.00  0.00    +0.259 C 
ATOM     11  C   UNL     1      33.011 -13.079 -20.721  0.00  0.00    +0.006 C 
ATOM     12  C   UNL     1      32.633 -12.586 -24.879  0.00  0.00    +0.001 C 
ATOM     13  C   UNL     1      32.514 -11.885 -21.236  0.00  0.00    +0.014 C 
ATOM     14  C   UNL     1      33.469 -14.819 -25.240  0.00  0.00    +0.005 C 
ATOM     15  C   UNL     1      32.992 -13.613 -25.747  0.00  0.00    +0.000 C 
ENDROOT
BRANCH   3  17
ATOM     16 BR   UNL     1      33.154 -21.071 -19.663  0.00  0.00    -0.049 Br
ATOM     17  C   UNL     1      34.744 -17.653 -21.403  0.00  0.00    +0.062 C 
ATOM     18  C   UNL     1      33.859 -18.588 -20.883  0.00  0.00    +0.022 C 
ATOM     19  C   UNL     1      36.111 -17.898 -21.417  0.00  0.00    +0.015 C 
ATOM     20  C   UNL     1      34.349 -19.789 -20.371  0.00  0.00    +0.036 C 
ATOM     21  C   UNL     1      36.602 -19.099 -20.906  0.00  0.00    +0.002 C 
ATOM     22  C   UNL     1      35.720 -20.045 -20.382  0.00  0.00    +0.007 C 
ENDBRANCH   3  17
BRANCH   8  23
ATOM     23  N   UNL     1      31.886 -10.482 -23.083  0.00  0.00    -0.331 N 
ATOM     24  H   UNL     1      32.056 -10.225 -24.019  0.00  0.00    +0.147 HD
BRANCH  23  25
ATOM     25  C   UNL     1      31.146  -9.600 -22.258  0.00  0.00    +0.119 C 
BRANCH  25  26
ATOM     26  C   UNL     1      31.846  -8.255 -22.175  0.00  0.00    +0.158 C 
BRANCH  26  27
ATOM     27  O   UNL     1      33.028  -8.288 -22.964  0.00  0.00    -0.380 OA
ATOM     28  H   UNL     1      32.924  -7.698 -23.728  0.00  0.00    +0.211 HD
ENDBRANCH  26  27
ENDBRANCH  25  26
ENDBRANCH  23  25
ENDBRANCH   8  23
TORSDOF 5
ENDMDL
MODEL 2
REMARK VINA RESULT:     -10.9      5.243     10.353
REMARK  Name = 4177750
REMARK  5 active torsions:
REMARK  status: ('A' for Active; 'I' for Inactive)
REMARK    1  A    between atoms: N_3  and  C_17
REMARK    2  A    between atoms: C_8  and  N_23
REMARK    3  A    between atoms: N_23  and  C_25
REMARK    4  A    between atoms: C_25  and  C_26
REMARK    5  A    between atoms: C_26  and  O_27
REMARK                            x       y       z     vdW  Elec       q    Type
REMARK                         _______ _______ _______ _____ _____    ______ ____
ROOT
ATOM      1  O   UNL     1      36.575 -19.549 -19.726  0.00  0.00    -0.269 OA
ATOM      2  O   UNL     1      32.017 -20.516 -20.367  0.00  0.00    -0.269 OA
ATOM      3  N   UNL     1      34.295 -19.962 -20.143  0.00  0.00    -0.201 N 
ATOM      4  C   UNL     1      34.318 -21.595 -17.841  0.00  0.00    +0.010 C 
ATOM      5  C   UNL     1      34.328 -22.415 -16.684  0.00  0.00    +0.013 C 
ATOM      6  C   UNL     1      35.518 -21.040 -18.294  0.00  0.00    +0.055 C 
ATOM      7  C   UNL     1      33.105 -21.362 -18.499  0.00  0.00    +0.054 C 
ATOM      8  C   UNL     1      35.540 -22.667 -16.024  0.00  0.00    +0.045 C 
ATOM      9  C   UNL     1      35.524 -20.134 -19.464  0.00  0.00    +0.259 C 
ATOM     10  C   UNL     1      33.076 -20.558 -19.742  0.00  0.00    +0.259 C 
ATOM     11  C   UNL     1      36.722 -21.303 -17.624  0.00  0.00    +0.006 C 
ATOM     12  C   UNL     1      33.127 -22.964 -16.212  0.00  0.00    +0.001 C 
ATOM     13  C   UNL     1      36.729 -22.117 -16.495  0.00  0.00    +0.014 C 
ATOM     14  C   UNL     1      31.913 -21.918 -18.014  0.00  0.00    +0.005 C 
ATOM     15  C   UNL     1      31.928 -22.713 -16.871  0.00  0.00    +0.000 C 
ENDROOT
BRANCH   3  17
ATOM     16 BR   UNL     1      34.232 -15.055 -22.149  0.00  0.00    -0.049 Br
ATOM     17  C   UNL     1      34.283 -19.124 -21.324  0.00  0.00    +0.062 C 
ATOM     18  C   UNL     1      34.266 -17.742 -21.186  0.00  0.00    +0.022 C 
ATOM     19  C   UNL     1      34.288 -19.714 -22.581  0.00  0.00    +0.015 C 
ATOM     20  C   UNL     1      34.255 -16.937 -22.324  0.00  0.00    +0.036 C 
ATOM     21  C   UNL     1      34.276 -18.909 -23.720  0.00  0.00    +0.002 C 
ATOM     22  C   UNL     1      34.259 -17.520 -23.592  0.00  0.00    +0.007 C 
ENDBRANCH   3  17
BRANCH   8  23
ATOM     23  N   UNL     1      35.604 -23.483 -14.869  0.00  0.00    -0.331 N 
ATOM     24  H   UNL     1      34.959 -23.326 -14.141  0.00  0.00    +0.147 HD
BRANCH  23  25
ATOM     25  C   UNL     1      36.563 -24.515 -14.720  0.00  0.00    +0.119 C 
BRANCH  25  26
ATOM     26  C   UNL     1      35.878 -25.870 -14.757  0.00  0.00    +0.158 C 
BRANCH  26  27
ATOM     27  O   UNL     1      36.396 -26.632 -15.840  0.00  0.00    -0.380 OA
ATOM     28  H   UNL     1      37.327 -26.848 -15.667  0.00  0.00    +0.211 HD
ENDBRANCH  26  27
ENDBRANCH  25  26
ENDBRANCH  23  25
ENDBRANCH   8  23
TORSDOF 5
ENDMDL
MODEL 3
REMARK VINA RESULT:     -10.3      5.290     10.168
REMARK  Name = 4177750
REMARK  5 active torsions:
REMARK  status: ('A' for Active; 'I' for Inactive)
REMARK    1  A    between atoms: N_3  and  C_17
REMARK    2  A    between atoms: C_8  and  N_23
REMARK    3  A    between atoms: N_23  and  C_25
REMARK    4  A    between atoms: C_25  and  C_26
REMARK    5  A    between atoms: C_26  and  O_27
REMARK                            x       y       z     vdW  Elec       q    Type
REMARK                         _______ _______ _______ _____ _____    ______ ____
ROOT
ATOM      1  O   UNL     1      32.013 -20.531 -20.355  0.00  0.00    -0.269 OA
ATOM      2  O   UNL     1      36.575 -19.602 -19.688  0.00  0.00    -0.269 OA
ATOM      3  N   UNL     1      34.295 -20.001 -20.121  0.00  0.00    -0.201 N 
ATOM      4  C   UNL     1      34.279 -21.595 -17.793  0.00  0.00    +0.010 C 
ATOM      5  C   UNL     1      34.272 -22.397 -16.622  0.00  0.00    +0.013 C 
ATOM      6  C   UNL     1      33.076 -21.360 -18.465  0.00  0.00    +0.055 C 
ATOM      7  C   UNL     1      35.490 -21.060 -18.244  0.00  0.00    +0.054 C 
ATOM      8  C   UNL     1      33.061 -22.927 -16.153  0.00  0.00    +0.045 C 
ATOM      9  C   UNL     1      33.066 -20.576 -19.720  0.00  0.00    +0.259 C 
ATOM     10  C   UNL     1      35.516 -20.173 -19.428  0.00  0.00    +0.259 C 
ATOM     11  C   UNL     1      31.873 -21.896 -17.982  0.00  0.00    +0.006 C 
ATOM     12  C   UNL     1      35.475 -22.651 -15.949  0.00  0.00    +0.001 C 
ATOM     13  C   UNL     1      31.869 -22.674 -16.827  0.00  0.00    +0.014 C 
ATOM     14  C   UNL     1      36.685 -21.324 -17.558  0.00  0.00    +0.005 C 
ATOM     15  C   UNL     1      36.674 -22.121 -16.417  0.00  0.00    +0.000 C 
ENDROOT
BRANCH   3  17
ATOM     16 BR   UNL     1      34.262 -15.128 -22.210  0.00  0.00    -0.049 Br
ATOM     17  C   UNL     1      34.303 -19.183 -21.316  0.00  0.00    +0.062 C 
ATOM     18  C   UNL     1      34.282 -17.799 -21.201  0.00  0.00    +0.022 C 
ATOM     19  C   UNL     1      34.330 -19.793 -22.563  0.00  0.00    +0.015 C 
ATOM     20  C   UNL     1      34.290 -17.012 -22.353  0.00  0.00    +0.036 C 
ATOM     21  C   UNL     1      34.338 -19.008 -23.715  0.00  0.00    +0.002 C 
ATOM     22  C   UNL     1      34.317 -17.616 -23.610  0.00  0.00    +0.007 C 
ENDBRANCH   3  17
BRANCH   8  23
ATOM     23  N   UNL     1      33.000 -23.728 -14.987  0.00  0.00    -0.331 N 
ATOM     24  H   UNL     1      33.573 -24.527 -14.931  0.00  0.00    +0.147 HD
BRANCH  23  25
ATOM     25  C   UNL     1      32.144 -23.424 -13.900  0.00  0.00    +0.119 C 
BRANCH  25  26
ATOM     26  C   UNL     1      31.379 -24.666 -13.478  0.00  0.00    +0.158 C 
BRANCH  26  27
ATOM     27  O   UNL     1      30.407 -24.312 -12.501  0.00  0.00    -0.380 OA
ATOM     28  H   UNL     1      29.553 -24.159 -12.936  0.00  0.00    +0.211 HD
ENDBRANCH  26  27
ENDBRANCH  25  26
ENDBRANCH  23  25
ENDBRANCH   8  23
TORSDOF 5
ENDMDL
MODEL 4
REMARK VINA RESULT:     -10.1      9.520     11.672
REMARK  Name = 4177750
REMARK  5 active torsions:
REMARK  status: ('A' for Active; 'I' for Inactive)
REMARK    1  A    between atoms: N_3  and  C_17
REMARK    2  A    between atoms: C_8  and  N_23
REMARK    3  A    between atoms: N_23  and  C_25
REMARK    4  A    between atoms: C_25  and  C_26
REMARK    5  A    between atoms: C_26  and  O_27
REMARK                            x       y       z     vdW  Elec       q    Type
REMARK                         _______ _______ _______ _____ _____    ______ ____
ROOT
ATOM      1  O   UNL     1      33.418 -23.761 -12.464  0.00  0.00    -0.269 OA
ATOM      2  O   UNL     1      36.081 -22.745 -16.205  0.00  0.00    -0.269 OA
ATOM      3  N   UNL     1      34.848 -23.274 -14.270  0.00  0.00    -0.201 N 
ATOM      4  C   UNL     1      32.524 -22.734 -15.777  0.00  0.00    +0.010 C 
ATOM      5  C   UNL     1      31.356 -22.461 -16.535  0.00  0.00    +0.013 C 
ATOM      6  C   UNL     1      32.392 -23.234 -14.479  0.00  0.00    +0.055 C 
ATOM      7  C   UNL     1      33.778 -22.493 -16.349  0.00  0.00    +0.054 C 
ATOM      8  C   UNL     1      30.094 -22.712 -15.977  0.00  0.00    +0.045 C 
ATOM      9  C   UNL     1      33.593 -23.472 -13.647  0.00  0.00    +0.259 C 
ATOM     10  C   UNL     1      35.012 -22.824 -15.601  0.00  0.00    +0.259 C 
ATOM     11  C   UNL     1      31.122 -23.481 -13.936  0.00  0.00    +0.006 C 
ATOM     12  C   UNL     1      31.478 -21.944 -17.833  0.00  0.00    +0.001 C 
ATOM     13  C   UNL     1      29.979 -23.222 -14.687  0.00  0.00    +0.014 C 
ATOM     14  C   UNL     1      33.881 -21.976 -17.648  0.00  0.00    +0.005 C 
ATOM     15  C   UNL     1      32.732 -21.700 -18.383  0.00  0.00    +0.000 C 
ENDROOT
BRANCH   3  17
ATOM     16 BR   UNL     1      39.645 -25.525 -14.092  0.00  0.00    -0.049 Br
ATOM     17  C   UNL     1      36.041 -23.551 -13.496  0.00  0.00    +0.062 C 
ATOM     18  C   UNL     1      37.078 -24.275 -14.069  0.00  0.00    +0.022 C 
ATOM     19  C   UNL     1      36.131 -23.091 -12.189  0.00  0.00    +0.015 C 
ATOM     20  C   UNL     1      38.226 -24.542 -13.323  0.00  0.00    +0.036 C 
ATOM     21  C   UNL     1      37.278 -23.357 -11.442  0.00  0.00    +0.002 C 
ATOM     22  C   UNL     1      38.326 -24.083 -12.009  0.00  0.00    +0.007 C 
ENDBRANCH   3  17
BRANCH   8  23
ATOM     23  N   UNL     1      28.899 -22.461 -16.694  0.00  0.00    -0.331 N 
ATOM     24  H   UNL     1      28.932 -21.863 -17.476  0.00  0.00    +0.147 HD
BRANCH  23  25
ATOM     25  C   UNL     1      27.659 -23.039 -16.328  0.00  0.00    +0.119 C 
BRANCH  25  26
ATOM     26  C   UNL     1      26.677 -21.952 -15.927  0.00  0.00    +0.158 C 
BRANCH  26  27
ATOM     27  O   UNL     1      26.526 -21.031 -17.000  0.00  0.00    -0.380 OA
ATOM     28  H   UNL     1      25.668 -21.174 -17.430  0.00  0.00    +0.211 HD
ENDBRANCH  26  27
ENDBRANCH  25  26
ENDBRANCH  23  25
ENDBRANCH   8  23
TORSDOF 5
ENDMDL
MODEL 5
REMARK VINA RESULT:     -10.0      3.400      7.681
REMARK  Name = 4177750
REMARK  5 active torsions:
REMARK  status: ('A' for Active; 'I' for Inactive)
REMARK    1  A    between atoms: N_3  and  C_17
REMARK    2  A    between atoms: C_8  and  N_23
REMARK    3  A    between atoms: N_23  and  C_25
REMARK    4  A    between atoms: C_25  and  C_26
REMARK    5  A    between atoms: C_26  and  O_27
REMARK                            x       y       z     vdW  Elec       q    Type
REMARK                         _______ _______ _______ _____ _____    ______ ____
ROOT
ATOM      1  O   UNL     1      32.715 -12.280 -20.289  0.00  0.00    -0.269 OA
ATOM      2  O   UNL     1      32.644 -12.189 -24.990  0.00  0.00    -0.269 OA
ATOM      3  N   UNL     1      32.635 -12.123 -22.636  0.00  0.00    -0.201 N 
ATOM      4  C   UNL     1      33.621 -14.766 -22.702  0.00  0.00    +0.010 C 
ATOM      5  C   UNL     1      34.116 -16.096 -22.736  0.00  0.00    +0.013 C 
ATOM      6  C   UNL     1      33.508 -14.113 -21.472  0.00  0.00    +0.055 C 
ATOM      7  C   UNL     1      33.259 -14.144 -23.902  0.00  0.00    +0.054 C 
ATOM      8  C   UNL     1      34.496 -16.724 -21.541  0.00  0.00    +0.045 C 
ATOM      9  C   UNL     1      32.940 -12.748 -21.404  0.00  0.00    +0.259 C 
ATOM     10  C   UNL     1      32.795 -12.739 -23.900  0.00  0.00    +0.259 C 
ATOM     11  C   UNL     1      33.893 -14.755 -20.286  0.00  0.00    +0.006 C 
ATOM     12  C   UNL     1      34.220 -16.766 -23.964  0.00  0.00    +0.001 C 
ATOM     13  C   UNL     1      34.388 -16.056 -20.325  0.00  0.00    +0.014 C 
ATOM     14  C   UNL     1      33.369 -14.829 -25.121  0.00  0.00    +0.005 C 
ATOM     15  C   UNL     1      33.845 -16.137 -25.147  0.00  0.00    +0.000 C 
ENDROOT
BRANCH   3  17
ATOM     16 BR   UNL     1      33.542  -6.983 -23.568  0.00  0.00    -0.049 Br
ATOM     17  C   UNL     1      32.129 -10.767 -22.603  0.00  0.00    +0.062 C 
ATOM     18  C   UNL     1      32.939  -9.721 -23.026  0.00  0.00    +0.022 C 
ATOM     19  C   UNL     1      30.840 -10.529 -22.145  0.00  0.00    +0.015 C 
ATOM     20  C   UNL     1      32.450  -8.415 -22.993  0.00  0.00    +0.036 C 
ATOM     21  C   UNL     1      30.351  -9.223 -22.111  0.00  0.00    +0.002 C 
ATOM     22  C   UNL     1      31.156  -8.166 -22.535  0.00  0.00    +0.007 C 
ENDBRANCH   3  17
BRANCH   8  23
ATOM     23  N   UNL     1      35.000 -18.047 -21.522  0.00  0.00    -0.331 N 
ATOM     24  H   UNL     1      35.951 -18.196 -21.733  0.00  0.00    +0.147 HD
BRANCH  23  25
ATOM     25  C   UNL     1      34.187 -19.165 -21.213  0.00  0.00    +0.119 C 
BRANCH  25  26
ATOM     26  C   UNL     1      34.916 -20.089 -20.253  0.00  0.00    +0.158 C 
BRANCH  26  27
ATOM     27  O   UNL     1      36.128 -19.474 -19.833  0.00  0.00    -0.380 OA
ATOM     28  H   UNL     1      35.977 -18.996 -19.002  0.00  0.00    +0.211 HD
ENDBRANCH  26  27
ENDBRANCH  25  26
ENDBRANCH  23  25
ENDBRANCH   8  23
TORSDOF 5
ENDMDL
MODEL 6
REMARK VINA RESULT:      -9.7      6.822     11.898
REMARK  Name = 4177750
REMARK  5 active torsions:
REMARK  status: ('A' for Active; 'I' for Inactive)
REMARK    1  A    between atoms: N_3  and  C_17
REMARK    2  A    between atoms: C_8  and  N_23
REMARK    3  A    between atoms: N_23  and  C_25
REMARK    4  A    between atoms: C_25  and  C_26
REMARK    5  A    between atoms: C_26  and  O_27
REMARK                            x       y       z     vdW  Elec       q    Type
REMARK                         _______ _______ _______ _____ _____    ______ ____
ROOT
ATOM      1  O   UNL     1      36.358 -21.134 -17.759  0.00  0.00    -0.269 OA
ATOM      2  O   UNL     1      31.741 -21.988 -18.027  0.00  0.00    -0.269 OA
ATOM      3  N   UNL     1      34.044 -21.496 -17.993  0.00  0.00    -0.201 N 
ATOM      4  C   UNL     1      34.182 -22.991 -15.604  0.00  0.00    +0.010 C 
ATOM      5  C   UNL     1      34.250 -23.743 -14.402  0.00  0.00    +0.013 C 
ATOM      6  C   UNL     1      35.363 -22.503 -16.171  0.00  0.00    +0.055 C 
ATOM      7  C   UNL     1      32.933 -22.758 -16.190  0.00  0.00    +0.054 C 
ATOM      8  C   UNL     1      35.498 -23.995 -13.813  0.00  0.00    +0.045 C 
ATOM      9  C   UNL     1      35.312 -21.668 -17.391  0.00  0.00    +0.259 C 
ATOM     10  C   UNL     1      32.839 -22.027 -17.474  0.00  0.00    +0.259 C 
ATOM     11  C   UNL     1      36.603 -22.766 -15.570  0.00  0.00    +0.006 C 
ATOM     12  C   UNL     1      33.070 -24.224 -13.818  0.00  0.00    +0.001 C 
ATOM     13  C   UNL     1      36.666 -23.513 -14.396  0.00  0.00    +0.014 C 
ATOM     14  C   UNL     1      31.763 -23.247 -15.592  0.00  0.00    +0.005 C 
ATOM     15  C   UNL     1      31.835 -23.974 -14.407  0.00  0.00    +0.000 C 
ENDROOT
BRANCH   3  17
ATOM     16 BR   UNL     1      36.611 -18.596 -21.614  0.00  0.00    -0.049 Br
ATOM     17  C   UNL     1      33.973 -20.729 -19.219  0.00  0.00    +0.062 C 
ATOM     18  C   UNL     1      35.123 -20.140 -19.729  0.00  0.00    +0.022 C 
ATOM     19  C   UNL     1      32.754 -20.589 -19.870  0.00  0.00    +0.015 C 
ATOM     20  C   UNL     1      35.053 -19.401 -20.909  0.00  0.00    +0.036 C 
ATOM     21  C   UNL     1      32.683 -19.850 -21.050  0.00  0.00    +0.002 C 
ATOM     22  C   UNL     1      33.833 -19.256 -21.570  0.00  0.00    +0.007 C 
ENDBRANCH   3  17
BRANCH   8  23
ATOM     23  N   UNL     1      35.620 -24.744 -12.618  0.00  0.00    -0.331 N 
ATOM     24  H   UNL     1      35.059 -25.545 -12.500  0.00  0.00    +0.147 HD
BRANCH  23  25
ATOM     25  C   UNL     1      36.518 -24.382 -11.584  0.00  0.00    +0.119 C 
BRANCH  25  26
ATOM     26  C   UNL     1      35.763 -23.712 -10.449  0.00  0.00    +0.158 C 
BRANCH  26  27
ATOM     27  O   UNL     1      34.918 -24.665  -9.816  0.00  0.00    -0.380 OA
ATOM     28  H   UNL     1      35.395 -25.505  -9.718  0.00  0.00    +0.211 HD
ENDBRANCH  26  27
ENDBRANCH  25  26
ENDBRANCH  23  25
ENDBRANCH   8  23
TORSDOF 5
ENDMDL
MODEL 7
REMARK VINA RESULT:      -9.7      6.296     10.015
REMARK  Name = 4177750
REMARK  5 active torsions:
REMARK  status: ('A' for Active; 'I' for Inactive)
REMARK    1  A    between atoms: N_3  and  C_17
REMARK    2  A    between atoms: C_8  and  N_23
REMARK    3  A    between atoms: N_23  and  C_25
REMARK    4  A    between atoms: C_25  and  C_26
REMARK    5  A    between atoms: C_26  and  O_27
REMARK                            x       y       z     vdW  Elec       q    Type
REMARK                         _______ _______ _______ _____ _____    ______ ____
ROOT
ATOM      1  O   UNL     1      37.590 -22.456 -16.096  0.00  0.00    -0.269 OA
ATOM      2  O   UNL     1      33.326 -23.705 -14.553  0.00  0.00    -0.269 OA
ATOM      3  N   UNL     1      35.508 -23.135 -15.231  0.00  0.00    -0.201 N 
ATOM      4  C   UNL     1      34.332 -21.886 -17.471  0.00  0.00    +0.010 C 
ATOM      5  C   UNL     1      33.741 -21.259 -18.598  0.00  0.00    +0.013 C 
ATOM      6  C   UNL     1      35.711 -21.768 -17.272  0.00  0.00    +0.055 C 
ATOM      7  C   UNL     1      33.521 -22.607 -16.590  0.00  0.00    +0.054 C 
ATOM      8  C   UNL     1      34.542 -20.521 -19.481  0.00  0.00    +0.045 C 
ATOM      9  C   UNL     1      36.360 -22.461 -16.137  0.00  0.00    +0.259 C 
ATOM     10  C   UNL     1      34.104 -23.222 -15.376  0.00  0.00    +0.259 C 
ATOM     11  C   UNL     1      36.499 -21.025 -18.164  0.00  0.00    +0.006 C 
ATOM     12  C   UNL     1      32.360 -21.383 -18.815  0.00  0.00    +0.001 C 
ATOM     13  C   UNL     1      35.912 -20.402 -19.262  0.00  0.00    +0.014 C 
ATOM     14  C   UNL     1      32.142 -22.722 -16.822  0.00  0.00    +0.005 C 
ATOM     15  C   UNL     1      31.569 -22.114 -17.935  0.00  0.00    +0.000 C 
ENDROOT
BRANCH   3  17
ATOM     16 BR   UNL     1      35.809 -23.492  -9.950  0.00  0.00    -0.049 Br
ATOM     17  C   UNL     1      36.112 -23.776 -14.081  0.00  0.00    +0.062 C 
ATOM     18  C   UNL     1      35.734 -23.390 -12.802  0.00  0.00    +0.022 C 
ATOM     19  C   UNL     1      37.064 -24.769 -14.273  0.00  0.00    +0.015 C 
ATOM     20  C   UNL     1      36.316 -24.008 -11.696  0.00  0.00    +0.036 C 
ATOM     21  C   UNL     1      37.647 -25.388 -13.167  0.00  0.00    +0.002 C 
ATOM     22  C   UNL     1      37.273 -25.007 -11.878  0.00  0.00    +0.007 C 
ENDBRANCH   3  17
BRANCH   8  23
ATOM     23  N   UNL     1      33.999 -19.873 -20.617  0.00  0.00    -0.331 N 
ATOM     24  H   UNL     1      33.020 -19.833 -20.717  0.00  0.00    +0.147 HD
BRANCH  23  25
ATOM     25  C   UNL     1      34.812 -19.280 -21.614  0.00  0.00    +0.119 C 
BRANCH  25  26
ATOM     26  C   UNL     1      34.607 -17.775 -21.625  0.00  0.00    +0.158 C 
BRANCH  26  27
ATOM     27  O   UNL     1      35.270 -17.199 -20.506  0.00  0.00    -0.380 OA
ATOM     28  H   UNL     1      35.146 -17.768 -19.729  0.00  0.00    +0.211 HD
ENDBRANCH  26  27
ENDBRANCH  25  26
ENDBRANCH  23  25
ENDBRANCH   8  23
TORSDOF 5
ENDMDL
MODEL 8
REMARK VINA RESULT:      -9.3      5.345     10.137
REMARK  Name = 4177750
REMARK  5 active torsions:
REMARK  status: ('A' for Active; 'I' for Inactive)
REMARK    1  A    between atoms: N_3  and  C_17
REMARK    2  A    between atoms: C_8  and  N_23
REMARK    3  A    between atoms: N_23  and  C_25
REMARK    4  A    between atoms: C_25  and  C_26
REMARK    5  A    between atoms: C_26  and  O_27
REMARK                            x       y       z     vdW  Elec       q    Type
REMARK                         _______ _______ _______ _____ _____    ______ ____
ROOT
ATOM      1  O   UNL     1      36.664 -19.531 -19.413  0.00  0.00    -0.269 OA
ATOM      2  O   UNL     1      32.137 -20.499 -20.241  0.00  0.00    -0.269 OA
ATOM      3  N   UNL     1      34.402 -19.940 -19.921  0.00  0.00    -0.201 N 
ATOM      4  C   UNL     1      34.365 -21.672 -17.693  0.00  0.00    +0.010 C 
ATOM      5  C   UNL     1      34.346 -22.543 -16.573  0.00  0.00    +0.013 C 
ATOM      6  C   UNL     1      35.574 -21.090 -18.082  0.00  0.00    +0.055 C 
ATOM      7  C   UNL     1      33.172 -21.419 -18.378  0.00  0.00    +0.054 C 
ATOM      8  C   UNL     1      35.538 -22.816 -15.886  0.00  0.00    +0.045 C 
ATOM      9  C   UNL     1      35.610 -20.133 -19.211  0.00  0.00    +0.259 C 
ATOM     10  C   UNL     1      33.175 -20.561 -19.585  0.00  0.00    +0.259 C 
ATOM     11  C   UNL     1      36.759 -21.374 -17.386  0.00  0.00    +0.006 C 
ATOM     12  C   UNL     1      33.134 -23.120 -16.164  0.00  0.00    +0.001 C 
ATOM     13  C   UNL     1      36.737 -22.237 -16.294  0.00  0.00    +0.014 C 
ATOM     14  C   UNL     1      31.970 -22.004 -17.956  0.00  0.00    +0.005 C 
ATOM     15  C   UNL     1      31.955 -22.849 -16.850  0.00  0.00    +0.000 C 
ENDROOT
BRANCH   3  17
ATOM     16 BR   UNL     1      32.791 -18.994 -24.882  0.00  0.00    -0.049 Br
ATOM     17  C   UNL     1      34.420 -19.051 -21.064  0.00  0.00    +0.062 C 
ATOM     18  C   UNL     1      33.721 -19.395 -22.213  0.00  0.00    +0.022 C 
ATOM     19  C   UNL     1      35.140 -17.865 -20.996  0.00  0.00    +0.015 C 
ATOM     20  C   UNL     1      33.740 -18.538 -23.313  0.00  0.00    +0.036 C 
ATOM     21  C   UNL     1      35.160 -17.008 -22.096  0.00  0.00    +0.002 C 
ATOM     22  C   UNL     1      34.460 -17.344 -23.255  0.00  0.00    +0.007 C 
ENDBRANCH   3  17
BRANCH   8  23
ATOM     23  N   UNL     1      35.572 -23.681 -14.766  0.00  0.00    -0.331 N 
ATOM     24  H   UNL     1      34.825 -24.306 -14.627  0.00  0.00    +0.147 HD
BRANCH  23  25
ATOM     25  C   UNL     1      36.642 -23.678 -13.838  0.00  0.00    +0.119 C 
BRANCH  25  26
ATOM     26  C   UNL     1      36.282 -22.827 -12.632  0.00  0.00    +0.158 C 
BRANCH  26  27
ATOM     27  O   UNL     1      37.468 -22.278 -12.071  0.00  0.00    -0.380 OA
ATOM     28  H   UNL     1      37.789 -22.859 -11.362  0.00  0.00    +0.211 HD
ENDBRANCH  26  27
ENDBRANCH  25  26
ENDBRANCH  23  25
ENDBRANCH   8  23
TORSDOF 5
ENDMDL
MODEL 9
REMARK VINA RESULT:      -9.2      6.069      9.916
REMARK  Name = 4177750
REMARK  5 active torsions:
REMARK  status: ('A' for Active; 'I' for Inactive)
REMARK    1  A    between atoms: N_3  and  C_17
REMARK    2  A    between atoms: C_8  and  N_23
REMARK    3  A    between atoms: N_23  and  C_25
REMARK    4  A    between atoms: C_25  and  C_26
REMARK    5  A    between atoms: C_26  and  O_27
REMARK                            x       y       z     vdW  Elec       q    Type
REMARK                         _______ _______ _______ _____ _____    ______ ____
ROOT
ATOM      1  O   UNL     1      30.379 -21.905 -17.095  0.00  0.00    -0.269 OA
ATOM      2  O   UNL     1      34.099 -23.422 -14.649  0.00  0.00    -0.269 OA
ATOM      3  N   UNL     1      32.166 -22.707 -15.788  0.00  0.00    -0.201 N 
ATOM      4  C   UNL     1      33.891 -21.639 -17.749  0.00  0.00    +0.010 C 
ATOM      5  C   UNL     1      34.758 -21.101 -18.735  0.00  0.00    +0.013 C 
ATOM      6  C   UNL     1      32.510 -21.602 -17.965  0.00  0.00    +0.055 C 
ATOM      7  C   UNL     1      34.440 -22.191 -16.588  0.00  0.00    +0.054 C 
ATOM      8  C   UNL     1      34.220 -20.558 -19.911  0.00  0.00    +0.045 C 
ATOM      9  C   UNL     1      31.582 -22.103 -16.926  0.00  0.00    +0.259 C 
ATOM     10  C   UNL     1      33.560 -22.811 -15.571  0.00  0.00    +0.259 C 
ATOM     11  C   UNL     1      31.987 -21.056 -19.146  0.00  0.00    +0.006 C 
ATOM     12  C   UNL     1      36.145 -21.120 -18.522  0.00  0.00    +0.001 C 
ATOM     13  C   UNL     1      32.843 -20.540 -20.116  0.00  0.00    +0.014 C 
ATOM     14  C   UNL     1      35.828 -22.201 -16.391  0.00  0.00    +0.005 C 
ATOM     15  C   UNL     1      36.675 -21.662 -17.356  0.00  0.00    +0.000 C 
ENDROOT
BRANCH   3  17
ATOM     16 BR   UNL     1      28.157 -25.988 -14.660  0.00  0.00    -0.049 Br
ATOM     17  C   UNL     1      31.281 -23.255 -14.781  0.00  0.00    +0.062 C 
ATOM     18  C   UNL     1      30.320 -24.189 -15.146  0.00  0.00    +0.022 C 
ATOM     19  C   UNL     1      31.403 -22.838 -13.462  0.00  0.00    +0.015 C 
ATOM     20  C   UNL     1      29.468 -24.716 -14.176  0.00  0.00    +0.036 C 
ATOM     21  C   UNL     1      30.551 -23.363 -12.491  0.00  0.00    +0.002 C 
ATOM     22  C   UNL     1      29.583 -24.303 -12.848  0.00  0.00    +0.007 C 
ENDBRANCH   3  17
BRANCH   8  23
ATOM     23  N   UNL     1      35.043 -20.014 -20.926  0.00  0.00    -0.331 N 
ATOM     24  H   UNL     1      35.831 -20.526 -21.223  0.00  0.00    +0.147 HD
BRANCH  23  25
ATOM     25  C   UNL     1      34.777 -18.761 -21.529  0.00  0.00    +0.119 C 
BRANCH  25  26
ATOM     26  C   UNL     1      36.045 -17.925 -21.574  0.00  0.00    +0.158 C 
BRANCH  26  27
ATOM     27  O   UNL     1      36.893 -18.294 -20.494  0.00  0.00    -0.380 OA
ATOM     28  H   UNL     1      36.434 -18.131 -19.654  0.00  0.00    +0.211 HD
ENDBRANCH  26  27
ENDBRANCH  25  26
ENDBRANCH  23  25
ENDBRANCH   8  23
TORSDOF 5
ENDMDL
