MODEL 1
REMARK VINA RESULT:     -13.1      0.000      0.000
REMARK  Name = 447735
REMARK  4 active torsions:
REMARK  status: ('A' for Active; 'I' for Inactive)
REMARK    1  A    between atoms: N_2  and  C_13
REMARK    2  A    between atoms: C_3  and  C_18
REMARK    3  A    between atoms: C_7  and  C_15
REMARK    4  A    between atoms: C_26  and  C_30
REMARK                            x       y       z     vdW  Elec       q    Type
REMARK                         _______ _______ _______ _____ _____    ______ ____
ROOT
ATOM      1  O   UNL     1      33.227 -21.015 -19.874  0.00  0.00    -0.270 OA
ATOM      2  N   UNL     1      35.057 -19.551 -20.065  0.00  0.00    -0.280 N 
ATOM      3  C   UNL     1      34.315 -20.595 -19.496  0.00  0.00    +0.249 C 
ATOM      4  H   UNL     1      35.916 -19.346 -19.629  0.00  0.00    +0.155 HD
ENDROOT
BRANCH   2  13
ATOM      5  N   UNL     1      34.209 -14.371 -23.148  0.00  0.00    -0.274 NA
ATOM      6  C   UNL     1      34.323 -16.608 -22.161  0.00  0.00    +0.010 C 
ATOM      7  C   UNL     1      34.196 -15.129 -22.102  0.00  0.00    +0.053 C 
ATOM      8  C   UNL     1      34.083 -17.213 -23.402  0.00  0.00    -0.019 C 
ATOM      9  C   UNL     1      33.705 -16.346 -24.565  0.00  0.00    +0.053 C 
ATOM     10  C   UNL     1      34.426 -15.009 -24.452  0.00  0.00    +0.130 C 
ATOM     11  C   UNL     1      34.652 -17.383 -21.047  0.00  0.00    +0.016 C 
ATOM     12  C   UNL     1      34.148 -18.605 -23.514  0.00  0.00    -0.003 C 
ATOM     13  C   UNL     1      34.730 -18.771 -21.173  0.00  0.00    +0.051 C 
ATOM     14  C   UNL     1      34.475 -19.380 -22.402  0.00  0.00    +0.014 C 
BRANCH   7  15
ATOM     15  C   UNL     1      34.035 -14.467 -20.755  0.00  0.00    +0.040 C 
ATOM     16  C   UNL     1      34.185 -12.966 -20.931  0.00  0.00    +0.006 C 
ATOM     17  C   UNL     1      32.684 -14.839 -20.173  0.00  0.00    +0.006 C 
ENDBRANCH   7  15
ENDBRANCH   2  13
BRANCH   3  18
ATOM     18  C   UNL     1      34.919 -21.225 -18.292  0.00  0.00    +0.054 C 
ATOM     19  C   UNL     1      34.687 -22.629 -16.354  0.00  0.00    +0.000 C 
ATOM     20  C   UNL     1      36.049 -22.402 -16.047  0.00  0.00    +0.000 C 
ATOM     21  C   UNL     1      34.130 -22.027 -17.494  0.00  0.00    +0.005 C 
ATOM     22  C   UNL     1      36.246 -20.987 -18.016  0.00  0.00    +0.005 C 
ATOM     23  C   UNL     1      36.816 -21.577 -16.887  0.00  0.00    +0.000 C 
ATOM     24  C   UNL     1      36.606 -23.003 -14.906  0.00  0.00    +0.003 C 
ATOM     25  C   UNL     1      33.922 -23.453 -15.513  0.00  0.00    +0.000 C 
ATOM     26  C   UNL     1      35.830 -23.819 -14.081  0.00  0.00    +0.031 C 
ATOM     27  C   UNL     1      34.491 -24.043 -14.384  0.00  0.00    +0.003 C 
BRANCH  26  30
ATOM     28  N   UNL     1      37.800 -24.436 -12.701  0.00  0.00    -0.343 N 
ATOM     29  N   UNL     1      35.645 -25.015 -12.005  0.00  0.00    -0.285 NA
ATOM     30  C   UNL     1      36.421 -24.436 -12.905  0.00  0.00    +0.117 C 
ATOM     31  H   UNL     1      38.178 -24.860 -11.897  0.00  0.00    +0.144 HD
ATOM     32  H   UNL     1      38.395 -24.013 -13.361  0.00  0.00    +0.144 HD
ATOM     33  H   UNL     1      36.044 -25.434 -11.207  0.00  0.00    +0.188 HD
ENDBRANCH  26  30
ENDBRANCH   3  18
TORSDOF 4
ENDMDL
MODEL 2
REMARK VINA RESULT:     -12.8      6.586     11.216
REMARK  Name = 447735
REMARK  4 active torsions:
REMARK  status: ('A' for Active; 'I' for Inactive)
REMARK    1  A    between atoms: N_2  and  C_13
REMARK    2  A    between atoms: C_3  and  C_18
REMARK    3  A    between atoms: C_7  and  C_15
REMARK    4  A    between atoms: C_26  and  C_30
REMARK                            x       y       z     vdW  Elec       q    Type
REMARK                         _______ _______ _______ _____ _____    ______ ____
ROOT
ATOM      1  O   UNL     1      30.763 -10.521 -22.077  0.00  0.00    -0.270 OA
ATOM      2  N   UNL     1      32.750  -9.469 -22.765  0.00  0.00    -0.280 N 
ATOM      3  C   UNL     1      31.917 -10.561 -22.487  0.00  0.00    +0.249 C 
ATOM      4  H   UNL     1      33.653  -9.687 -23.090  0.00  0.00    +0.155 HD
ENDROOT
BRANCH   2  13
ATOM      5  N   UNL     1      32.279  -3.696 -24.638  0.00  0.00    -0.274 NA
ATOM      6  C   UNL     1      32.477  -5.874 -23.541  0.00  0.00    +0.010 C 
ATOM      7  C   UNL     1      32.810  -4.872 -24.585  0.00  0.00    +0.053 C 
ATOM      8  C   UNL     1      31.849  -5.395 -22.384  0.00  0.00    -0.019 C 
ATOM      9  C   UNL     1      31.573  -3.926 -22.270  0.00  0.00    +0.053 C 
ATOM     10  C   UNL     1      31.246  -3.367 -23.649  0.00  0.00    +0.130 C 
ATOM     11  C   UNL     1      32.776  -7.232 -23.674  0.00  0.00    +0.016 C 
ATOM     12  C   UNL     1      31.545  -6.282 -21.346  0.00  0.00    -0.003 C 
ATOM     13  C   UNL     1      32.454  -8.112 -22.639  0.00  0.00    +0.051 C 
ATOM     14  C   UNL     1      31.844  -7.637 -21.478  0.00  0.00    +0.014 C 
BRANCH   7  15
ATOM     15  C   UNL     1      33.827  -5.233 -25.641  0.00  0.00    +0.040 C 
ATOM     16  C   UNL     1      33.097  -5.507 -26.944  0.00  0.00    +0.006 C 
ATOM     17  C   UNL     1      34.829  -4.101 -25.777  0.00  0.00    +0.006 C 
ENDBRANCH   7  15
ENDBRANCH   2  13
BRANCH   3  18
ATOM     18  C   UNL     1      32.531 -11.900 -22.696  0.00  0.00    +0.054 C 
ATOM     19  C   UNL     1      33.458 -13.918 -21.773  0.00  0.00    +0.000 C 
ATOM     20  C   UNL     1      33.675 -14.398 -23.086  0.00  0.00    +0.000 C 
ATOM     21  C   UNL     1      32.877 -12.652 -21.592  0.00  0.00    +0.005 C 
ATOM     22  C   UNL     1      32.732 -12.343 -23.982  0.00  0.00    +0.005 C 
ATOM     23  C   UNL     1      33.307 -13.599 -24.181  0.00  0.00    +0.000 C 
ATOM     24  C   UNL     1      34.256 -15.664 -23.266  0.00  0.00    +0.003 C 
ATOM     25  C   UNL     1      33.827 -14.717 -20.680  0.00  0.00    +0.000 C 
ATOM     26  C   UNL     1      34.617 -16.446 -22.168  0.00  0.00    +0.031 C 
ATOM     27  C   UNL     1      34.403 -15.973 -20.876  0.00  0.00    +0.003 C 
BRANCH  26  30
ATOM     28  N   UNL     1      34.472 -18.824 -22.863  0.00  0.00    -0.343 N 
ATOM     29  N   UNL     1      36.492 -17.946 -22.083  0.00  0.00    -0.285 NA
ATOM     30  C   UNL     1      35.216 -17.754 -22.371  0.00  0.00    +0.117 C 
ATOM     31  H   UNL     1      34.899 -19.702 -22.993  0.00  0.00    +0.144 HD
ATOM     32  H   UNL     1      33.519 -18.703 -23.081  0.00  0.00    +0.144 HD
ATOM     33  H   UNL     1      36.900 -18.832 -22.219  0.00  0.00    +0.188 HD
ENDBRANCH  26  30
ENDBRANCH   3  18
TORSDOF 4
ENDMDL
MODEL 3
REMARK VINA RESULT:     -12.8      2.199     10.390
REMARK  Name = 447735
REMARK  4 active torsions:
REMARK  status: ('A' for Active; 'I' for Inactive)
REMARK    1  A    between atoms: N_2  and  C_13
REMARK    2  A    between atoms: C_3  and  C_18
REMARK    3  A    between atoms: C_7  and  C_15
REMARK    4  A    between atoms: C_26  and  C_30
REMARK                            x       y       z     vdW  Elec       q    Type
REMARK                         _______ _______ _______ _____ _____    ______ ____
ROOT
ATOM      1  O   UNL     1      33.408 -23.595 -17.707  0.00  0.00    -0.270 OA
ATOM      2  N   UNL     1      34.647 -22.051 -16.436  0.00  0.00    -0.280 N 
ATOM      3  C   UNL     1      33.922 -22.493 -17.552  0.00  0.00    +0.249 C 
ATOM      4  H   UNL     1      34.990 -21.130 -16.482  0.00  0.00    +0.155 HD
ENDROOT
BRANCH   2  13
ATOM      5  N   UNL     1      38.211 -25.006 -12.483  0.00  0.00    -0.274 NA
ATOM      6  C   UNL     1      36.497 -24.004 -13.914  0.00  0.00    +0.010 C 
ATOM      7  C   UNL     1      37.818 -24.632 -13.656  0.00  0.00    +0.053 C 
ATOM      8  C   UNL     1      35.519 -24.161 -12.923  0.00  0.00    -0.019 C 
ATOM      9  C   UNL     1      35.858 -24.950 -11.694  0.00  0.00    +0.053 C 
ATOM     10  C   UNL     1      37.325 -24.733 -11.346  0.00  0.00    +0.130 C 
ATOM     11  C   UNL     1      36.212 -23.299 -15.085  0.00  0.00    +0.016 C 
ATOM     12  C   UNL     1      34.242 -23.628 -13.124  0.00  0.00    -0.003 C 
ATOM     13  C   UNL     1      34.939 -22.757 -15.269  0.00  0.00    +0.051 C 
ATOM     14  C   UNL     1      33.957 -22.924 -14.293  0.00  0.00    +0.014 C 
BRANCH   7  15
ATOM     15  C   UNL     1      38.756 -24.856 -14.817  0.00  0.00    +0.040 C 
ATOM     16  C   UNL     1      39.137 -23.507 -15.400  0.00  0.00    +0.006 C 
ATOM     17  C   UNL     1      39.969 -25.632 -14.336  0.00  0.00    +0.006 C 
ENDBRANCH   7  15
ENDBRANCH   2  13
BRANCH   3  18
ATOM     18  C   UNL     1      33.801 -21.511 -18.662  0.00  0.00    +0.054 C 
ATOM     19  C   UNL     1      34.844 -19.969 -20.185  0.00  0.00    +0.000 C 
ATOM     20  C   UNL     1      33.574 -19.680 -20.736  0.00  0.00    +0.000 C 
ATOM     21  C   UNL     1      34.943 -20.899 -19.136  0.00  0.00    +0.005 C 
ATOM     22  C   UNL     1      32.554 -21.248 -19.180  0.00  0.00    +0.005 C 
ATOM     23  C   UNL     1      32.437 -20.327 -20.222  0.00  0.00    +0.000 C 
ATOM     24  C   UNL     1      33.476 -18.750 -21.784  0.00  0.00    +0.003 C 
ATOM     25  C   UNL     1      35.979 -19.321 -20.698  0.00  0.00    +0.000 C 
ATOM     26  C   UNL     1      34.614 -18.116 -22.282  0.00  0.00    +0.031 C 
ATOM     27  C   UNL     1      35.864 -18.401 -21.740  0.00  0.00    +0.003 C 
BRANCH  26  30
ATOM     28  N   UNL     1      34.989 -15.859 -23.247  0.00  0.00    -0.343 N 
ATOM     29  N   UNL     1      33.907 -17.510 -24.498  0.00  0.00    -0.285 NA
ATOM     30  C   UNL     1      34.496 -17.157 -23.368  0.00  0.00    +0.117 C 
ATOM     31  H   UNL     1      34.898 -15.226 -23.996  0.00  0.00    +0.144 HD
ATOM     32  H   UNL     1      35.428 -15.575 -22.413  0.00  0.00    +0.144 HD
ATOM     33  H   UNL     1      33.825 -16.862 -25.235  0.00  0.00    +0.188 HD
ENDBRANCH  26  30
ENDBRANCH   3  18
TORSDOF 4
ENDMDL
MODEL 4
REMARK VINA RESULT:     -12.8      6.430     11.283
REMARK  Name = 447735
REMARK  4 active torsions:
REMARK  status: ('A' for Active; 'I' for Inactive)
REMARK    1  A    between atoms: N_2  and  C_13
REMARK    2  A    between atoms: C_3  and  C_18
REMARK    3  A    between atoms: C_7  and  C_15
REMARK    4  A    between atoms: C_26  and  C_30
REMARK                            x       y       z     vdW  Elec       q    Type
REMARK                         _______ _______ _______ _____ _____    ______ ____
ROOT
ATOM      1  O   UNL     1      30.147 -10.295 -22.106  0.00  0.00    -0.270 OA
ATOM      2  N   UNL     1      32.247  -9.238 -22.056  0.00  0.00    -0.280 N 
ATOM      3  C   UNL     1      31.368 -10.327 -21.992  0.00  0.00    +0.249 C 
ATOM      4  H   UNL     1      33.202  -9.447 -21.943  0.00  0.00    +0.155 HD
ENDROOT
BRANCH   2  13
ATOM      5  N   UNL     1      31.654  -4.108 -25.280  0.00  0.00    -0.274 NA
ATOM      6  C   UNL     1      31.906  -5.947 -23.686  0.00  0.00    +0.010 C 
ATOM      7  C   UNL     1      32.204  -5.230 -24.952  0.00  0.00    +0.053 C 
ATOM      8  C   UNL     1      31.294  -5.204 -22.668  0.00  0.00    -0.019 C 
ATOM      9  C   UNL     1      30.999  -3.754 -22.912  0.00  0.00    +0.053 C 
ATOM     10  C   UNL     1      30.637  -3.555 -24.378  0.00  0.00    +0.130 C 
ATOM     11  C   UNL     1      32.222  -7.293 -23.487  0.00  0.00    +0.016 C 
ATOM     12  C   UNL     1      31.025  -5.810 -21.437  0.00  0.00    -0.003 C 
ATOM     13  C   UNL     1      31.934  -7.894 -22.261  0.00  0.00    +0.051 C 
ATOM     14  C   UNL     1      31.341  -7.154 -21.238  0.00  0.00    +0.014 C 
BRANCH   7  15
ATOM     15  C   UNL     1      33.204  -5.830 -25.909  0.00  0.00    +0.040 C 
ATOM     16  C   UNL     1      32.741  -5.557 -27.329  0.00  0.00    +0.006 C 
ATOM     17  C   UNL     1      34.575  -5.239 -25.634  0.00  0.00    +0.006 C 
ENDBRANCH   7  15
ENDBRANCH   2  13
BRANCH   3  18
ATOM     18  C   UNL     1      32.004 -11.645 -21.733  0.00  0.00    +0.054 C 
ATOM     19  C   UNL     1      33.312 -13.503 -22.522  0.00  0.00    +0.000 C 
ATOM     20  C   UNL     1      33.194 -14.106 -21.247  0.00  0.00    +0.000 C 
ATOM     21  C   UNL     1      32.705 -12.257 -22.751  0.00  0.00    +0.005 C 
ATOM     22  C   UNL     1      31.874 -12.209 -20.485  0.00  0.00    +0.005 C 
ATOM     23  C   UNL     1      32.471 -13.446 -20.238  0.00  0.00    +0.000 C 
ATOM     24  C   UNL     1      33.801 -15.352 -21.017  0.00  0.00    +0.003 C 
ATOM     25  C   UNL     1      34.034 -14.163 -23.528  0.00  0.00    +0.000 C 
ATOM     26  C   UNL     1      34.515 -15.993 -22.030  0.00  0.00    +0.031 C 
ATOM     27  C   UNL     1      34.631 -15.400 -23.284  0.00  0.00    +0.003 C 
BRANCH  26  30
ATOM     28  N   UNL     1      35.246 -18.245 -22.778  0.00  0.00    -0.343 N 
ATOM     29  N   UNL     1      35.612 -17.558 -20.574  0.00  0.00    -0.285 NA
ATOM     30  C   UNL     1      35.138 -17.282 -21.776  0.00  0.00    +0.117 C 
ATOM     31  H   UNL     1      35.673 -19.111 -22.583  0.00  0.00    +0.144 HD
ATOM     32  H   UNL     1      34.897 -18.059 -23.679  0.00  0.00    +0.144 HD
ATOM     33  H   UNL     1      36.034 -18.431 -20.399  0.00  0.00    +0.188 HD
ENDBRANCH  26  30
ENDBRANCH   3  18
TORSDOF 4
ENDMDL
MODEL 5
REMARK VINA RESULT:     -12.7      2.084     10.328
REMARK  Name = 447735
REMARK  4 active torsions:
REMARK  status: ('A' for Active; 'I' for Inactive)
REMARK    1  A    between atoms: N_2  and  C_13
REMARK    2  A    between atoms: C_3  and  C_18
REMARK    3  A    between atoms: C_7  and  C_15
REMARK    4  A    between atoms: C_26  and  C_30
REMARK                            x       y       z     vdW  Elec       q    Type
REMARK                         _______ _______ _______ _____ _____    ______ ____
ROOT
ATOM      1  O   UNL     1      34.096 -22.897 -17.337  0.00  0.00    -0.270 OA
ATOM      2  N   UNL     1      36.174 -21.839 -17.026  0.00  0.00    -0.280 N 
ATOM      3  C   UNL     1      34.925 -22.041 -17.629  0.00  0.00    +0.249 C 
ATOM      4  H   UNL     1      36.713 -21.101 -17.389  0.00  0.00    +0.155 HD
ENDROOT
BRANCH   2  13
ATOM      5  N   UNL     1      36.175 -24.990 -11.817  0.00  0.00    -0.274 NA
ATOM      6  C   UNL     1      36.533 -23.656 -13.836  0.00  0.00    +0.010 C 
ATOM      7  C   UNL     1      35.768 -24.077 -12.635  0.00  0.00    +0.053 C 
ATOM      8  C   UNL     1      37.891 -23.999 -13.873  0.00  0.00    -0.019 C 
ATOM      9  C   UNL     1      38.477 -24.743 -12.711  0.00  0.00    +0.053 C 
ATOM     10  C   UNL     1      37.428 -25.685 -12.135  0.00  0.00    +0.130 C 
ATOM     11  C   UNL     1      35.956 -22.939 -14.887  0.00  0.00    +0.016 C 
ATOM     12  C   UNL     1      38.676 -23.596 -14.958  0.00  0.00    -0.003 C 
ATOM     13  C   UNL     1      36.744 -22.555 -15.973  0.00  0.00    +0.051 C 
ATOM     14  C   UNL     1      38.100 -22.880 -16.006  0.00  0.00    +0.014 C 
BRANCH   7  15
ATOM     15  C   UNL     1      34.449 -23.406 -12.341  0.00  0.00    +0.040 C 
ATOM     16  C   UNL     1      33.342 -24.193 -13.021  0.00  0.00    +0.006 C 
ATOM     17  C   UNL     1      34.252 -23.329 -10.838  0.00  0.00    +0.006 C 
ENDBRANCH   7  15
ENDBRANCH   2  13
BRANCH   3  18
ATOM     18  C   UNL     1      34.606 -21.126 -18.756  0.00  0.00    +0.054 C 
ATOM     19  C   UNL     1      35.339 -19.518 -20.387  0.00  0.00    +0.000 C 
ATOM     20  C   UNL     1      34.010 -19.418 -20.861  0.00  0.00    +0.000 C 
ATOM     21  C   UNL     1      35.625 -20.388 -19.321  0.00  0.00    +0.005 C 
ATOM     22  C   UNL     1      33.305 -21.047 -19.197  0.00  0.00    +0.005 C 
ATOM     23  C   UNL     1      33.003 -20.189 -20.255  0.00  0.00    +0.000 C 
ATOM     24  C   UNL     1      33.725 -18.548 -21.926  0.00  0.00    +0.003 C 
ATOM     25  C   UNL     1      36.344 -18.747 -20.993  0.00  0.00    +0.000 C 
ATOM     26  C   UNL     1      34.736 -17.789 -22.517  0.00  0.00    +0.031 C 
ATOM     27  C   UNL     1      36.044 -17.888 -22.050  0.00  0.00    +0.003 C 
BRANCH  26  30
ATOM     28  N   UNL     1      34.842 -15.565 -23.614  0.00  0.00    -0.343 N 
ATOM     29  N   UNL     1      33.729 -17.339 -24.651  0.00  0.00    -0.285 NA
ATOM     30  C   UNL     1      34.425 -16.894 -23.619  0.00  0.00    +0.117 C 
ATOM     31  H   UNL     1      34.620 -14.976 -24.372  0.00  0.00    +0.144 HD
ATOM     32  H   UNL     1      35.359 -15.213 -22.854  0.00  0.00    +0.144 HD
ATOM     33  H   UNL     1      33.516 -16.734 -25.399  0.00  0.00    +0.188 HD
ENDBRANCH  26  30
ENDBRANCH   3  18
TORSDOF 4
ENDMDL
MODEL 6
REMARK VINA RESULT:     -11.7      1.501     10.133
REMARK  Name = 447735
REMARK  4 active torsions:
REMARK  status: ('A' for Active; 'I' for Inactive)
REMARK    1  A    between atoms: N_2  and  C_13
REMARK    2  A    between atoms: C_3  and  C_18
REMARK    3  A    between atoms: C_7  and  C_15
REMARK    4  A    between atoms: C_26  and  C_30
REMARK                            x       y       z     vdW  Elec       q    Type
REMARK                         _______ _______ _______ _____ _____    ______ ____
ROOT
ATOM      1  O   UNL     1      35.992 -20.256 -20.118  0.00  0.00    -0.270 OA
ATOM      2  N   UNL     1      33.718 -20.400 -19.534  0.00  0.00    -0.280 N 
ATOM      3  C   UNL     1      34.818 -19.938 -20.271  0.00  0.00    +0.249 C 
ATOM      4  H   UNL     1      32.842 -20.037 -19.795  0.00  0.00    +0.155 HD
ENDROOT
BRANCH   2  13
ATOM      5  N   UNL     1      35.973 -23.230 -14.639  0.00  0.00    -0.274 NA
ATOM      6  C   UNL     1      34.851 -22.394 -16.646  0.00  0.00    +0.010 C 
ATOM      7  C   UNL     1      36.038 -22.646 -15.790  0.00  0.00    +0.053 C 
ATOM      8  C   UNL     1      33.697 -23.134 -16.360  0.00  0.00    -0.019 C 
ATOM      9  C   UNL     1      33.738 -24.127 -15.238  0.00  0.00    +0.053 C 
ATOM     10  C   UNL     1      34.647 -23.602 -14.134  0.00  0.00    +0.130 C 
ATOM     11  C   UNL     1      34.862 -21.478 -17.701  0.00  0.00    +0.016 C 
ATOM     12  C   UNL     1      32.559 -22.972 -17.156  0.00  0.00    -0.003 C 
ATOM     13  C   UNL     1      33.715 -21.312 -18.479  0.00  0.00    +0.051 C 
ATOM     14  C   UNL     1      32.569 -22.059 -18.209  0.00  0.00    +0.014 C 
BRANCH   7  15
ATOM     15  C   UNL     1      37.396 -22.207 -16.282  0.00  0.00    +0.040 C 
ATOM     16  C   UNL     1      37.507 -20.702 -16.120  0.00  0.00    +0.006 C 
ATOM     17  C   UNL     1      38.471 -22.944 -15.503  0.00  0.00    +0.006 C 
ENDBRANCH   7  15
ENDBRANCH   2  13
BRANCH   3  18
ATOM     18  C   UNL     1      34.503 -18.938 -21.326  0.00  0.00    +0.054 C 
ATOM     19  C   UNL     1      34.216 -16.642 -21.982  0.00  0.00    +0.000 C 
ATOM     20  C   UNL     1      33.917 -17.073 -23.296  0.00  0.00    +0.000 C 
ATOM     21  C   UNL     1      34.511 -17.599 -20.996  0.00  0.00    +0.005 C 
ATOM     22  C   UNL     1      34.216 -19.383 -22.595  0.00  0.00    +0.005 C 
ATOM     23  C   UNL     1      33.921 -18.447 -23.588  0.00  0.00    +0.000 C 
ATOM     24  C   UNL     1      33.622 -16.116 -24.281  0.00  0.00    +0.003 C 
ATOM     25  C   UNL     1      34.211 -15.269 -21.692  0.00  0.00    +0.000 C 
ATOM     26  C   UNL     1      33.622 -14.755 -23.975  0.00  0.00    +0.031 C 
ATOM     27  C   UNL     1      33.916 -14.332 -22.682  0.00  0.00    +0.003 C 
BRANCH  26  30
ATOM     28  N   UNL     1      33.160 -12.427 -24.702  0.00  0.00    -0.343 N 
ATOM     29  N   UNL     1      33.175 -14.167 -26.262  0.00  0.00    -0.285 NA
ATOM     30  C   UNL     1      33.316 -13.777 -25.006  0.00  0.00    +0.117 C 
ATOM     31  H   UNL     1      32.953 -11.782 -25.417  0.00  0.00    +0.144 HD
ATOM     32  H   UNL     1      33.258 -12.117 -23.773  0.00  0.00    +0.144 HD
ATOM     33  H   UNL     1      32.967 -13.506 -26.962  0.00  0.00    +0.188 HD
ENDBRANCH  26  30
ENDBRANCH   3  18
TORSDOF 4
ENDMDL
MODEL 7
REMARK VINA RESULT:     -11.7      1.811      2.870
REMARK  Name = 447735
REMARK  4 active torsions:
REMARK  status: ('A' for Active; 'I' for Inactive)
REMARK    1  A    between atoms: N_2  and  C_13
REMARK    2  A    between atoms: C_3  and  C_18
REMARK    3  A    between atoms: C_7  and  C_15
REMARK    4  A    between atoms: C_26  and  C_30
REMARK                            x       y       z     vdW  Elec       q    Type
REMARK                         _______ _______ _______ _____ _____    ______ ____
ROOT
ATOM      1  O   UNL     1      33.906 -19.345 -22.568  0.00  0.00    -0.270 OA
ATOM      2  N   UNL     1      34.387 -17.414 -21.316  0.00  0.00    -0.280 N 
ATOM      3  C   UNL     1      34.281 -18.793 -21.540  0.00  0.00    +0.249 C 
ATOM      4  H   UNL     1      34.708 -17.145 -20.426  0.00  0.00    +0.155 HD
ENDROOT
BRANCH   2  13
ATOM      5  N   UNL     1      33.074 -11.689 -22.919  0.00  0.00    -0.274 NA
ATOM      6  C   UNL     1      33.450 -14.086 -22.601  0.00  0.00    +0.010 C 
ATOM      7  C   UNL     1      33.041 -12.730 -22.154  0.00  0.00    +0.053 C 
ATOM      8  C   UNL     1      33.523 -14.300 -23.984  0.00  0.00    -0.019 C 
ATOM      9  C   UNL     1      33.174 -13.171 -24.907  0.00  0.00    +0.053 C 
ATOM     10  C   UNL     1      33.606 -11.854 -24.276  0.00  0.00    +0.130 C 
ATOM     11  C   UNL     1      33.741 -15.120 -21.708  0.00  0.00    +0.016 C 
ATOM     12  C   UNL     1      33.863 -15.567 -24.469  0.00  0.00    -0.003 C 
ATOM     13  C   UNL     1      34.095 -16.376 -22.202  0.00  0.00    +0.051 C 
ATOM     14  C   UNL     1      34.153 -16.599 -23.578  0.00  0.00    +0.014 C 
BRANCH   7  15
ATOM     15  C   UNL     1      32.552 -12.548 -20.738  0.00  0.00    +0.040 C 
ATOM     16  C   UNL     1      31.564 -11.396 -20.710  0.00  0.00    +0.006 C 
ATOM     17  C   UNL     1      31.928 -13.845 -20.254  0.00  0.00    +0.006 C 
ENDBRANCH   7  15
ENDBRANCH   2  13
BRANCH   3  18
ATOM     18  C   UNL     1      34.642 -19.656 -20.384  0.00  0.00    +0.054 C 
ATOM     19  C   UNL     1      33.977 -21.214 -18.678  0.00  0.00    +0.000 C 
ATOM     20  C   UNL     1      35.317 -21.267 -18.227  0.00  0.00    +0.000 C 
ATOM     21  C   UNL     1      33.652 -20.395 -19.771  0.00  0.00    +0.005 C 
ATOM     22  C   UNL     1      35.952 -19.688 -19.966  0.00  0.00    +0.005 C 
ATOM     23  C   UNL     1      36.294 -20.497 -18.881  0.00  0.00    +0.000 C 
ATOM     24  C   UNL     1      35.643 -22.086 -17.133  0.00  0.00    +0.003 C 
ATOM     25  C   UNL     1      33.002 -21.984 -18.023  0.00  0.00    +0.000 C 
ATOM     26  C   UNL     1      34.661 -22.844 -16.494  0.00  0.00    +0.031 C 
ATOM     27  C   UNL     1      33.343 -22.793 -16.938  0.00  0.00    +0.003 C 
BRANCH  26  30
ATOM     28  N   UNL     1      34.049 -24.134 -14.463  0.00  0.00    -0.343 N 
ATOM     29  N   UNL     1      36.273 -24.042 -15.176  0.00  0.00    -0.285 NA
ATOM     30  C   UNL     1      35.014 -23.688 -15.364  0.00  0.00    +0.117 C 
ATOM     31  H   UNL     1      34.311 -24.705 -13.705  0.00  0.00    +0.144 HD
ATOM     32  H   UNL     1      33.106 -23.879 -14.585  0.00  0.00    +0.144 HD
ATOM     33  H   UNL     1      36.515 -24.613 -14.411  0.00  0.00    +0.188 HD
ENDBRANCH  26  30
ENDBRANCH   3  18
TORSDOF 4
ENDMDL
MODEL 8
REMARK VINA RESULT:     -11.4      5.695     10.167
REMARK  Name = 447735
REMARK  4 active torsions:
REMARK  status: ('A' for Active; 'I' for Inactive)
REMARK    1  A    between atoms: N_2  and  C_13
REMARK    2  A    between atoms: C_3  and  C_18
REMARK    3  A    between atoms: C_7  and  C_15
REMARK    4  A    between atoms: C_26  and  C_30
REMARK                            x       y       z     vdW  Elec       q    Type
REMARK                         _______ _______ _______ _____ _____    ______ ____
ROOT
ATOM      1  O   UNL     1      31.981 -11.154 -23.794  0.00  0.00    -0.270 OA
ATOM      2  N   UNL     1      34.048 -10.243 -23.138  0.00  0.00    -0.280 N 
ATOM      3  C   UNL     1      33.077 -11.248 -23.252  0.00  0.00    +0.249 C 
ATOM      4  H   UNL     1      34.876 -10.495 -22.669  0.00  0.00    +0.155 HD
ENDROOT
BRANCH   2  13
ATOM      5  N   UNL     1      31.929  -4.543 -23.422  0.00  0.00    -0.274 NA
ATOM      6  C   UNL     1      32.907  -6.774 -23.653  0.00  0.00    +0.010 C 
ATOM      7  C   UNL     1      31.838  -5.821 -23.259  0.00  0.00    +0.053 C 
ATOM      8  C   UNL     1      33.872  -6.303 -24.553  0.00  0.00    -0.019 C 
ATOM      9  C   UNL     1      33.757  -4.898 -25.063  0.00  0.00    +0.053 C 
ATOM     10  C   UNL     1      33.183  -4.010 -23.966  0.00  0.00    +0.130 C 
ATOM     11  C   UNL     1      32.964  -8.086 -23.176  0.00  0.00    +0.016 C 
ATOM     12  C   UNL     1      34.881  -7.164 -24.995  0.00  0.00    -0.003 C 
ATOM     13  C   UNL     1      33.985  -8.932 -23.611  0.00  0.00    +0.051 C 
ATOM     14  C   UNL     1      34.938  -8.474 -24.520  0.00  0.00    +0.014 C 
BRANCH   7  15
ATOM     15  C   UNL     1      30.572  -6.364 -22.641  0.00  0.00    +0.040 C 
ATOM     16  C   UNL     1      29.835  -5.222 -21.964  0.00  0.00    +0.006 C 
ATOM     17  C   UNL     1      29.733  -7.024 -23.720  0.00  0.00    +0.006 C 
ENDBRANCH   7  15
ENDBRANCH   2  13
BRANCH   3  18
ATOM     18  C   UNL     1      33.427 -12.546 -22.618  0.00  0.00    +0.054 C 
ATOM     19  C   UNL     1      34.091 -14.847 -22.843  0.00  0.00    +0.000 C 
ATOM     20  C   UNL     1      34.082 -14.970 -21.434  0.00  0.00    +0.000 C 
ATOM     21  C   UNL     1      33.758 -13.613 -23.427  0.00  0.00    +0.005 C 
ATOM     22  C   UNL     1      33.410 -12.639 -21.246  0.00  0.00    +0.005 C 
ATOM     23  C   UNL     1      33.739 -13.856 -20.648  0.00  0.00    +0.000 C 
ATOM     24  C   UNL     1      34.415 -16.203 -20.850  0.00  0.00    +0.003 C 
ATOM     25  C   UNL     1      34.434 -15.960 -23.627  0.00  0.00    +0.000 C 
ATOM     26  C   UNL     1      34.753 -17.299 -21.645  0.00  0.00    +0.031 C 
ATOM     27  C   UNL     1      34.762 -17.178 -23.031  0.00  0.00    +0.003 C 
BRANCH  26  30
ATOM     28  N   UNL     1      34.221 -19.653 -21.060  0.00  0.00    -0.343 N 
ATOM     29  N   UNL     1      36.257 -18.708 -20.409  0.00  0.00    -0.285 NA
ATOM     30  C   UNL     1      35.096 -18.569 -21.025  0.00  0.00    +0.117 C 
ATOM     31  H   UNL     1      34.474 -20.503 -20.633  0.00  0.00    +0.144 HD
ATOM     32  H   UNL     1      33.350 -19.568 -21.511  0.00  0.00    +0.144 HD
ATOM     33  H   UNL     1      36.491 -19.567 -19.988  0.00  0.00    +0.188 HD
ENDBRANCH  26  30
ENDBRANCH   3  18
TORSDOF 4
ENDMDL
MODEL 9
REMARK VINA RESULT:     -11.1      1.891     10.104
REMARK  Name = 447735
REMARK  4 active torsions:
REMARK  status: ('A' for Active; 'I' for Inactive)
REMARK    1  A    between atoms: N_2  and  C_13
REMARK    2  A    between atoms: C_3  and  C_18
REMARK    3  A    between atoms: C_7  and  C_15
REMARK    4  A    between atoms: C_26  and  C_30
REMARK                            x       y       z     vdW  Elec       q    Type
REMARK                         _______ _______ _______ _____ _____    ______ ____
ROOT
ATOM      1  O   UNL     1      35.040 -22.242 -19.496  0.00  0.00    -0.270 OA
ATOM      2  N   UNL     1      36.025 -20.817 -17.905  0.00  0.00    -0.280 N 
ATOM      3  C   UNL     1      35.446 -21.141 -19.140  0.00  0.00    +0.249 C 
ATOM      4  H   UNL     1      36.295 -19.878 -17.789  0.00  0.00    +0.155 HD
ENDROOT
BRANCH   2  13
ATOM      5  N   UNL     1      34.518 -24.624 -13.400  0.00  0.00    -0.274 NA
ATOM      6  C   UNL     1      35.437 -23.034 -15.018  0.00  0.00    +0.010 C 
ATOM      7  C   UNL     1      34.350 -23.613 -14.187  0.00  0.00    +0.053 C 
ATOM      8  C   UNL     1      36.750 -23.364 -14.658  0.00  0.00    -0.019 C 
ATOM      9  C   UNL     1      36.971 -24.251 -13.470  0.00  0.00    +0.053 C 
ATOM     10  C   UNL     1      35.837 -25.265 -13.382  0.00  0.00    +0.130 C 
ATOM     11  C   UNL     1      35.190 -22.189 -16.102  0.00  0.00    +0.016 C 
ATOM     12  C   UNL     1      37.819 -22.819 -15.376  0.00  0.00    -0.003 C 
ATOM     13  C   UNL     1      36.264 -21.662 -16.822  0.00  0.00    +0.051 C 
ATOM     14  C   UNL     1      37.574 -21.974 -16.458  0.00  0.00    +0.014 C 
BRANCH   7  15
ATOM     15  C   UNL     1      32.976 -22.992 -14.252  0.00  0.00    +0.040 C 
ATOM     16  C   UNL     1      32.372 -23.293 -15.612  0.00  0.00    +0.006 C 
ATOM     17  C   UNL     1      32.127 -23.538 -13.118  0.00  0.00    +0.006 C 
ENDBRANCH   7  15
ENDBRANCH   2  13
BRANCH   3  18
ATOM     18  C   UNL     1      35.350 -20.020 -20.112  0.00  0.00    +0.054 C 
ATOM     19  C   UNL     1      34.265 -19.012 -22.006  0.00  0.00    +0.000 C 
ATOM     20  C   UNL     1      35.169 -17.927 -21.925  0.00  0.00    +0.000 C 
ATOM     21  C   UNL     1      34.369 -20.063 -21.081  0.00  0.00    +0.005 C 
ATOM     22  C   UNL     1      36.242 -18.978 -20.011  0.00  0.00    +0.005 C 
ATOM     23  C   UNL     1      36.153 -17.924 -20.922  0.00  0.00    +0.000 C 
ATOM     24  C   UNL     1      35.066 -16.875 -22.851  0.00  0.00    +0.003 C 
ATOM     25  C   UNL     1      33.283 -19.013 -23.010  0.00  0.00    +0.000 C 
ATOM     26  C   UNL     1      34.083 -16.893 -23.842  0.00  0.00    +0.031 C 
ATOM     27  C   UNL     1      33.193 -17.961 -23.921  0.00  0.00    +0.003 C 
BRANCH  26  30
ATOM     28  N   UNL     1      35.031 -14.888 -24.957  0.00  0.00    -0.343 N 
ATOM     29  N   UNL     1      32.892 -15.647 -25.516  0.00  0.00    -0.285 NA
ATOM     30  C   UNL     1      33.988 -15.797 -24.792  0.00  0.00    +0.117 C 
ATOM     31  H   UNL     1      34.945 -14.153 -25.607  0.00  0.00    +0.144 HD
ATOM     32  H   UNL     1      35.854 -14.981 -24.425  0.00  0.00    +0.144 HD
ATOM     33  H   UNL     1      32.825 -14.905 -26.160  0.00  0.00    +0.188 HD
ENDBRANCH  26  30
ENDBRANCH   3  18
TORSDOF 4
ENDMDL
