MODEL 1
REMARK VINA RESULT:     -10.9      0.000      0.000
REMARK  Name = 2313
REMARK  6 active torsions:
REMARK  status: ('A' for Active; 'I' for Inactive)
REMARK    1  A    between atoms: N_1  and  C_16
REMARK    2  A    between atoms: C_5  and  O_10
REMARK    3  A    between atoms: O_10  and  C_11
REMARK    4  A    between atoms: C_11  and  C_13
REMARK    5  A    between atoms: C_13  and  O_14
REMARK    6  A    between atoms: C_16  and  C_17
REMARK                            x       y       z     vdW  Elec       q    Type
REMARK                         _______ _______ _______ _____ _____    ______ ____
ROOT
ATOM      1  N   UNL     1      34.919 -17.559 -21.664  0.00  0.00    -0.244 N 
ATOM      2  N   UNL     1      34.906 -16.739 -20.601  0.00  0.00    -0.131 NA
ATOM      3  C   UNL     1      34.411 -17.005 -22.808  0.00  0.00    +0.083 A 
ATOM      4  C   UNL     1      34.034 -15.714 -22.453  0.00  0.00    +0.072 A 
ATOM      5  C   UNL     1      34.366 -15.617 -21.084  0.00  0.00    +0.244 A 
ATOM      6  C   UNL     1      34.253 -17.517 -24.098  0.00  0.00    +0.019 C 
ATOM      7  C   UNL     1      33.466 -14.872 -23.423  0.00  0.00    +0.006 C 
ATOM      8  C   UNL     1      33.685 -16.666 -25.052  0.00  0.00    +0.002 C 
ATOM      9  C   UNL     1      33.298 -15.366 -24.722  0.00  0.00    +0.000 C 
ENDROOT
BRANCH   5  10
ATOM     10  O   UNL     1      34.205 -14.574 -20.258  0.00  0.00    -0.447 OA
BRANCH  10  11
ATOM     11  C   UNL     1      33.534 -13.412 -20.770  0.00  0.00    +0.315 C 
BRANCH  11  13
ATOM     12  O   UNL     1      31.564 -14.241 -19.613  0.00  0.00    -0.246 OA
ATOM     13  C   UNL     1      32.074 -13.469 -20.411  0.00  0.00    +0.359 C 
BRANCH  13  14
ATOM     14  O   UNL     1      31.384 -12.529 -21.105  0.00  0.00    -0.478 OA
ATOM     15  H   UNL     1      31.374 -12.551 -22.041  0.00  0.00    +0.295 HD
ENDBRANCH  13  14
ENDBRANCH  11  13
ENDBRANCH  10  11
ENDBRANCH   5  10
BRANCH   1  16
ATOM     16  C   UNL     1      35.448 -18.895 -21.515  0.00  0.00    +0.154 C 
BRANCH  16  17
ATOM     17  C   UNL     1      34.567 -19.739 -20.633  0.00  0.00    +0.002 C 
ATOM     18  C   UNL     1      33.188 -19.617 -20.727  0.00  0.00    -0.002 C 
ATOM     19  C   UNL     1      35.146 -20.627 -19.737  0.00  0.00    -0.002 C 
ATOM     20  C   UNL     1      32.371 -20.399 -19.910  0.00  0.00    -0.000 C 
ATOM     21  C   UNL     1      34.330 -21.409 -18.920  0.00  0.00    -0.000 C 
ATOM     22  C   UNL     1      32.943 -21.294 -19.006  0.00  0.00    -0.000 C 
ENDBRANCH  16  17
ENDBRANCH   1  16
TORSDOF 6
ENDMDL
MODEL 2
REMARK VINA RESULT:     -10.2      5.974      9.310
REMARK  Name = 2313
REMARK  6 active torsions:
REMARK  status: ('A' for Active; 'I' for Inactive)
REMARK    1  A    between atoms: N_1  and  C_16
REMARK    2  A    between atoms: C_5  and  O_10
REMARK    3  A    between atoms: O_10  and  C_11
REMARK    4  A    between atoms: C_11  and  C_13
REMARK    5  A    between atoms: C_13  and  O_14
REMARK    6  A    between atoms: C_16  and  C_17
REMARK                            x       y       z     vdW  Elec       q    Type
REMARK                         _______ _______ _______ _____ _____    ______ ____
ROOT
ATOM      1  N   UNL     1      33.155 -23.000 -17.002  0.00  0.00    -0.244 N 
ATOM      2  N   UNL     1      34.333 -23.036 -16.358  0.00  0.00    -0.131 NA
ATOM      3  C   UNL     1      32.074 -22.804 -16.185  0.00  0.00    +0.083 A 
ATOM      4  C   UNL     1      32.599 -22.706 -14.901  0.00  0.00    +0.072 A 
ATOM      5  C   UNL     1      33.991 -22.858 -15.080  0.00  0.00    +0.244 A 
ATOM      6  C   UNL     1      30.708 -22.706 -16.458  0.00  0.00    +0.019 C 
ATOM      7  C   UNL     1      31.730 -22.500 -13.816  0.00  0.00    +0.006 C 
ATOM      8  C   UNL     1      29.856 -22.501 -15.368  0.00  0.00    +0.002 C 
ATOM      9  C   UNL     1      30.357 -22.400 -14.069  0.00  0.00    +0.000 C 
ENDROOT
BRANCH   5  10
ATOM     10  O   UNL     1      34.959 -22.844 -14.152  0.00  0.00    -0.447 OA
BRANCH  10  11
ATOM     11  C   UNL     1      36.289 -22.508 -14.578  0.00  0.00    +0.315 C 
BRANCH  11  13
ATOM     12  O   UNL     1      38.142 -23.752 -13.616  0.00  0.00    -0.246 OA
ATOM     13  C   UNL     1      37.197 -23.692 -14.389  0.00  0.00    +0.359 C 
BRANCH  13  14
ATOM     14  O   UNL     1      36.821 -24.707 -15.208  0.00  0.00    -0.478 OA
ATOM     15  H   UNL     1      36.017 -25.161 -15.052  0.00  0.00    +0.295 HD
ENDBRANCH  13  14
ENDBRANCH  11  13
ENDBRANCH  10  11
ENDBRANCH   5  10
BRANCH   1  16
ATOM     16  C   UNL     1      33.133 -23.162 -18.437  0.00  0.00    +0.154 C 
BRANCH  16  17
ATOM     17  C   UNL     1      33.568 -21.903 -19.138  0.00  0.00    +0.002 C 
ATOM     18  C   UNL     1      34.921 -21.623 -19.265  0.00  0.00    -0.002 C 
ATOM     19  C   UNL     1      32.609 -21.038 -19.647  0.00  0.00    -0.002 C 
ATOM     20  C   UNL     1      35.324 -20.456 -19.915  0.00  0.00    -0.000 C 
ATOM     21  C   UNL     1      33.011 -19.872 -20.298  0.00  0.00    -0.000 C 
ATOM     22  C   UNL     1      34.369 -19.580 -20.431  0.00  0.00    -0.000 C 
ENDBRANCH  16  17
ENDBRANCH   1  16
TORSDOF 6
ENDMDL
MODEL 3
REMARK VINA RESULT:     -10.0      1.062      1.351
REMARK  Name = 2313
REMARK  6 active torsions:
REMARK  status: ('A' for Active; 'I' for Inactive)
REMARK    1  A    between atoms: N_1  and  C_16
REMARK    2  A    between atoms: C_5  and  O_10
REMARK    3  A    between atoms: O_10  and  C_11
REMARK    4  A    between atoms: C_11  and  C_13
REMARK    5  A    between atoms: C_13  and  O_14
REMARK    6  A    between atoms: C_16  and  C_17
REMARK                            x       y       z     vdW  Elec       q    Type
REMARK                         _______ _______ _______ _____ _____    ______ ____
ROOT
ATOM      1  N   UNL     1      34.859 -16.503 -22.110  0.00  0.00    -0.244 N 
ATOM      2  N   UNL     1      34.671 -15.928 -20.911  0.00  0.00    -0.131 NA
ATOM      3  C   UNL     1      34.282 -15.830 -23.153  0.00  0.00    +0.083 A 
ATOM      4  C   UNL     1      33.665 -14.725 -22.578  0.00  0.00    +0.072 A 
ATOM      5  C   UNL     1      33.943 -14.847 -21.199  0.00  0.00    +0.244 A 
ATOM      6  C   UNL     1      34.250 -16.093 -24.523  0.00  0.00    +0.019 C 
ATOM      7  C   UNL     1      32.971 -13.819 -23.398  0.00  0.00    +0.006 C 
ATOM      8  C   UNL     1      33.555 -15.183 -25.327  0.00  0.00    +0.002 C 
ATOM      9  C   UNL     1      32.927 -14.065 -24.776  0.00  0.00    +0.000 C 
ENDROOT
BRANCH   5  10
ATOM     10  O   UNL     1      33.573 -14.035 -20.197  0.00  0.00    -0.447 OA
BRANCH  10  11
ATOM     11  C   UNL     1      32.167 -13.869 -19.955  0.00  0.00    +0.315 C 
BRANCH  11  13
ATOM     12  O   UNL     1      32.013 -11.452 -19.755  0.00  0.00    -0.246 OA
ATOM     13  C   UNL     1      31.743 -12.483 -20.354  0.00  0.00    +0.359 C 
BRANCH  13  14
ATOM     14  O   UNL     1      31.004 -12.528 -21.492  0.00  0.00    -0.478 OA
ATOM     15  H   UNL     1      31.429 -12.609 -22.323  0.00  0.00    +0.295 HD
ENDBRANCH  13  14
ENDBRANCH  11  13
ENDBRANCH  10  11
ENDBRANCH   5  10
BRANCH   1  16
ATOM     16  C   UNL     1      35.624 -17.726 -22.190  0.00  0.00    +0.154 C 
BRANCH  16  17
ATOM     17  C   UNL     1      35.075 -18.778 -21.264  0.00  0.00    +0.002 C 
ATOM     18  C   UNL     1      33.712 -19.044 -21.262  0.00  0.00    -0.002 C 
ATOM     19  C   UNL     1      35.938 -19.468 -20.425  0.00  0.00    -0.002 C 
ATOM     20  C   UNL     1      33.204 -20.019 -20.404  0.00  0.00    -0.000 C 
ATOM     21  C   UNL     1      35.430 -20.444 -19.567  0.00  0.00    -0.000 C 
ATOM     22  C   UNL     1      34.062 -20.719 -19.556  0.00  0.00    -0.000 C 
ENDBRANCH  16  17
ENDBRANCH   1  16
TORSDOF 6
ENDMDL
MODEL 4
REMARK VINA RESULT:      -9.9      5.435      8.899
REMARK  Name = 2313
REMARK  6 active torsions:
REMARK  status: ('A' for Active; 'I' for Inactive)
REMARK    1  A    between atoms: N_1  and  C_16
REMARK    2  A    between atoms: C_5  and  O_10
REMARK    3  A    between atoms: O_10  and  C_11
REMARK    4  A    between atoms: C_11  and  C_13
REMARK    5  A    between atoms: C_13  and  O_14
REMARK    6  A    between atoms: C_16  and  C_17
REMARK                            x       y       z     vdW  Elec       q    Type
REMARK                         _______ _______ _______ _____ _____    ______ ____
ROOT
ATOM      1  N   UNL     1      32.605 -22.789 -17.266  0.00  0.00    -0.244 N 
ATOM      2  N   UNL     1      31.371 -22.419 -17.645  0.00  0.00    -0.131 NA
ATOM      3  C   UNL     1      32.747 -22.971 -15.917  0.00  0.00    +0.083 A 
ATOM      4  C   UNL     1      31.497 -22.693 -15.376  0.00  0.00    +0.072 A 
ATOM      5  C   UNL     1      30.699 -22.361 -16.493  0.00  0.00    +0.244 A 
ATOM      6  C   UNL     1      33.845 -23.349 -15.141  0.00  0.00    +0.019 C 
ATOM      7  C   UNL     1      31.310 -22.790 -13.987  0.00  0.00    +0.006 C 
ATOM      8  C   UNL     1      33.644 -23.441 -13.760  0.00  0.00    +0.002 C 
ATOM      9  C   UNL     1      32.398 -23.167 -13.191  0.00  0.00    +0.000 C 
ENDROOT
BRANCH   5  10
ATOM     10  O   UNL     1      29.405 -22.010 -16.521  0.00  0.00    -0.447 OA
BRANCH  10  11
ATOM     11  C   UNL     1      28.440 -22.981 -16.088  0.00  0.00    +0.315 C 
BRANCH  11  13
ATOM     12  O   UNL     1      26.241 -22.057 -15.621  0.00  0.00    -0.246 OA
ATOM     13  C   UNL     1      27.053 -22.502 -16.419  0.00  0.00    +0.359 C 
BRANCH  13  14
ATOM     14  O   UNL     1      26.817 -22.632 -17.749  0.00  0.00    -0.478 OA
ATOM     15  H   UNL     1      27.444 -22.315 -18.369  0.00  0.00    +0.295 HD
ENDBRANCH  13  14
ENDBRANCH  11  13
ENDBRANCH  10  11
ENDBRANCH   5  10
BRANCH   1  16
ATOM     16  C   UNL     1      33.628 -22.957 -18.272  0.00  0.00    +0.154 C 
BRANCH  16  17
ATOM     17  C   UNL     1      33.793 -21.713 -19.102  0.00  0.00    +0.002 C 
ATOM     18  C   UNL     1      32.667 -21.063 -19.589  0.00  0.00    -0.002 C 
ATOM     19  C   UNL     1      35.067 -21.232 -19.369  0.00  0.00    -0.002 C 
ATOM     20  C   UNL     1      32.820 -19.909 -20.359  0.00  0.00    -0.000 C 
ATOM     21  C   UNL     1      35.219 -20.078 -20.137  0.00  0.00    -0.000 C 
ATOM     22  C   UNL     1      34.095 -19.417 -20.633  0.00  0.00    -0.000 C 
ENDBRANCH  16  17
ENDBRANCH   1  16
TORSDOF 6
ENDMDL
MODEL 5
REMARK VINA RESULT:      -9.8      8.022     11.607
REMARK  Name = 2313
REMARK  6 active torsions:
REMARK  status: ('A' for Active; 'I' for Inactive)
REMARK    1  A    between atoms: N_1  and  C_16
REMARK    2  A    between atoms: C_5  and  O_10
REMARK    3  A    between atoms: O_10  and  C_11
REMARK    4  A    between atoms: C_11  and  C_13
REMARK    5  A    between atoms: C_13  and  O_14
REMARK    6  A    between atoms: C_16  and  C_17
REMARK                            x       y       z     vdW  Elec       q    Type
REMARK                         _______ _______ _______ _____ _____    ______ ____
ROOT
ATOM      1  N   UNL     1      34.943 -23.993 -14.655  0.00  0.00    -0.244 N 
ATOM      2  N   UNL     1      35.790 -24.802 -15.313  0.00  0.00    -0.131 NA
ATOM      3  C   UNL     1      35.179 -23.908 -13.309  0.00  0.00    +0.083 A 
ATOM      4  C   UNL     1      36.272 -24.735 -13.076  0.00  0.00    +0.072 A 
ATOM      5  C   UNL     1      36.597 -25.252 -14.349  0.00  0.00    +0.244 A 
ATOM      6  C   UNL     1      34.539 -23.190 -12.297  0.00  0.00    +0.019 C 
ATOM      7  C   UNL     1      36.770 -24.868 -11.769  0.00  0.00    +0.006 C 
ATOM      8  C   UNL     1      35.045 -23.332 -11.001  0.00  0.00    +0.002 C 
ATOM      9  C   UNL     1      36.141 -24.156 -10.740  0.00  0.00    +0.000 C 
ENDROOT
BRANCH   5  10
ATOM     10  O   UNL     1      37.577 -26.105 -14.679  0.00  0.00    -0.447 OA
BRANCH  10  11
ATOM     11  C   UNL     1      38.803 -26.036 -13.933  0.00  0.00    +0.315 C 
BRANCH  11  13
ATOM     12  O   UNL     1      40.279 -24.119 -14.162  0.00  0.00    -0.246 OA
ATOM     13  C   UNL     1      39.775 -25.127 -14.635  0.00  0.00    +0.359 C 
BRANCH  13  14
ATOM     14  O   UNL     1      40.022 -25.583 -15.888  0.00  0.00    -0.478 OA
ATOM     15  H   UNL     1      40.866 -25.457 -16.274  0.00  0.00    +0.295 HD
ENDBRANCH  13  14
ENDBRANCH  11  13
ENDBRANCH  10  11
ENDBRANCH   5  10
BRANCH   1  16
ATOM     16  C   UNL     1      33.905 -23.312 -15.393  0.00  0.00    +0.154 C 
BRANCH  16  17
ATOM     17  C   UNL     1      34.473 -22.543 -16.556  0.00  0.00    +0.002 C 
ATOM     18  C   UNL     1      33.715 -22.388 -17.709  0.00  0.00    -0.002 C 
ATOM     19  C   UNL     1      35.747 -22.001 -16.461  0.00  0.00    -0.002 C 
ATOM     20  C   UNL     1      34.241 -21.676 -18.787  0.00  0.00    -0.000 C 
ATOM     21  C   UNL     1      36.273 -21.288 -17.538  0.00  0.00    -0.000 C 
ATOM     22  C   UNL     1      35.520 -21.127 -18.702  0.00  0.00    -0.000 C 
ENDBRANCH  16  17
ENDBRANCH   1  16
TORSDOF 6
ENDMDL
MODEL 6
REMARK VINA RESULT:      -9.6      6.196      8.962
REMARK  Name = 2313
REMARK  6 active torsions:
REMARK  status: ('A' for Active; 'I' for Inactive)
REMARK    1  A    between atoms: N_1  and  C_16
REMARK    2  A    between atoms: C_5  and  O_10
REMARK    3  A    between atoms: O_10  and  C_11
REMARK    4  A    between atoms: C_11  and  C_13
REMARK    5  A    between atoms: C_13  and  O_14
REMARK    6  A    between atoms: C_16  and  C_17
REMARK                            x       y       z     vdW  Elec       q    Type
REMARK                         _______ _______ _______ _____ _____    ______ ____
ROOT
ATOM      1  N   UNL     1      32.331 -22.322 -17.045  0.00  0.00    -0.244 N 
ATOM      2  N   UNL     1      33.188 -22.920 -16.201  0.00  0.00    -0.131 NA
ATOM      3  C   UNL     1      32.933 -21.668 -18.087  0.00  0.00    +0.083 A 
ATOM      4  C   UNL     1      34.297 -21.860 -17.900  0.00  0.00    +0.072 A 
ATOM      5  C   UNL     1      34.383 -22.636 -16.724  0.00  0.00    +0.244 A 
ATOM      6  C   UNL     1      32.406 -20.941 -19.156  0.00  0.00    +0.019 C 
ATOM      7  C   UNL     1      35.203 -21.302 -18.818  0.00  0.00    +0.006 C 
ATOM      8  C   UNL     1      33.319 -20.391 -20.061  0.00  0.00    +0.002 C 
ATOM      9  C   UNL     1      34.695 -20.568 -19.896  0.00  0.00    +0.000 C 
ENDROOT
BRANCH   5  10
ATOM     10  O   UNL     1      35.480 -23.097 -16.106  0.00  0.00    -0.447 OA
BRANCH  10  11
ATOM     11  C   UNL     1      35.299 -23.862 -14.904  0.00  0.00    +0.315 C 
BRANCH  11  13
ATOM     12  O   UNL     1      37.435 -24.493 -13.931  0.00  0.00    -0.246 OA
ATOM     13  C   UNL     1      36.497 -24.742 -14.675  0.00  0.00    +0.359 C 
BRANCH  13  14
ATOM     14  O   UNL     1      36.397 -25.872 -15.418  0.00  0.00    -0.478 OA
ATOM     15  H   UNL     1      36.001 -26.639 -15.054  0.00  0.00    +0.295 HD
ENDBRANCH  13  14
ENDBRANCH  11  13
ENDBRANCH  10  11
ENDBRANCH   5  10
BRANCH   1  16
ATOM     16  C   UNL     1      30.912 -22.418 -16.791  0.00  0.00    +0.154 C 
BRANCH  16  17
ATOM     17  C   UNL     1      30.635 -23.051 -15.454  0.00  0.00    +0.002 C 
ATOM     18  C   UNL     1      29.985 -24.276 -15.399  0.00  0.00    -0.002 C 
ATOM     19  C   UNL     1      31.034 -22.401 -14.294  0.00  0.00    -0.002 C 
ATOM     20  C   UNL     1      29.729 -24.862 -14.159  0.00  0.00    -0.000 C 
ATOM     21  C   UNL     1      30.778 -22.987 -13.055  0.00  0.00    -0.000 C 
ATOM     22  C   UNL     1      30.124 -24.218 -12.987  0.00  0.00    -0.000 C 
ENDBRANCH  16  17
ENDBRANCH   1  16
TORSDOF 6
ENDMDL
MODEL 7
REMARK VINA RESULT:      -9.6      6.815      9.486
REMARK  Name = 2313
REMARK  6 active torsions:
REMARK  status: ('A' for Active; 'I' for Inactive)
REMARK    1  A    between atoms: N_1  and  C_16
REMARK    2  A    between atoms: C_5  and  O_10
REMARK    3  A    between atoms: O_10  and  C_11
REMARK    4  A    between atoms: C_11  and  C_13
REMARK    5  A    between atoms: C_13  and  O_14
REMARK    6  A    between atoms: C_16  and  C_17
REMARK                            x       y       z     vdW  Elec       q    Type
REMARK                         _______ _______ _______ _____ _____    ______ ____
ROOT
ATOM      1  N   UNL     1      35.513 -22.339 -15.549  0.00  0.00    -0.244 N 
ATOM      2  N   UNL     1      34.442 -22.872 -14.938  0.00  0.00    -0.131 NA
ATOM      3  C   UNL     1      35.290 -21.961 -16.846  0.00  0.00    +0.083 A 
ATOM      4  C   UNL     1      33.960 -22.280 -17.096  0.00  0.00    +0.072 A 
ATOM      5  C   UNL     1      33.499 -22.835 -15.883  0.00  0.00    +0.244 A 
ATOM      6  C   UNL     1      36.127 -21.380 -17.800  0.00  0.00    +0.019 C 
ATOM      7  C   UNL     1      33.415 -22.012 -18.363  0.00  0.00    +0.006 C 
ATOM      8  C   UNL     1      35.570 -21.119 -19.057  0.00  0.00    +0.002 C 
ATOM      9  C   UNL     1      34.237 -21.429 -19.335  0.00  0.00    +0.000 C 
ENDROOT
BRANCH   5  10
ATOM     10  O   UNL     1      32.278 -23.307 -15.591  0.00  0.00    -0.447 OA
BRANCH  10  11
ATOM     11  C   UNL     1      31.766 -23.065 -14.271  0.00  0.00    +0.315 C 
BRANCH  11  13
ATOM     12  O   UNL     1      30.327 -24.989 -13.912  0.00  0.00    -0.246 OA
ATOM     13  C   UNL     1      31.342 -24.363 -13.644  0.00  0.00    +0.359 C 
BRANCH  13  14
ATOM     14  O   UNL     1      32.254 -24.758 -12.720  0.00  0.00    -0.478 OA
ATOM     15  H   UNL     1      32.554 -25.645 -12.707  0.00  0.00    +0.295 HD
ENDBRANCH  13  14
ENDBRANCH  11  13
ENDBRANCH  10  11
ENDBRANCH   5  10
BRANCH   1  16
ATOM     16  C   UNL     1      36.750 -22.213 -14.814  0.00  0.00    +0.154 C 
BRANCH  16  17
ATOM     17  C   UNL     1      36.974 -23.395 -13.909  0.00  0.00    +0.002 C 
ATOM     18  C   UNL     1      37.202 -24.647 -14.463  0.00  0.00    -0.002 C 
ATOM     19  C   UNL     1      36.948 -23.217 -12.533  0.00  0.00    -0.002 C 
ATOM     20  C   UNL     1      37.409 -25.743 -13.624  0.00  0.00    -0.000 C 
ATOM     21  C   UNL     1      37.156 -24.312 -11.694  0.00  0.00    -0.000 C 
ATOM     22  C   UNL     1      37.385 -25.575 -12.240  0.00  0.00    -0.000 C 
ENDBRANCH  16  17
ENDBRANCH   1  16
TORSDOF 6
ENDMDL
MODEL 8
REMARK VINA RESULT:      -9.4      5.655      9.004
REMARK  Name = 2313
REMARK  6 active torsions:
REMARK  status: ('A' for Active; 'I' for Inactive)
REMARK    1  A    between atoms: N_1  and  C_16
REMARK    2  A    between atoms: C_5  and  O_10
REMARK    3  A    between atoms: O_10  and  C_11
REMARK    4  A    between atoms: C_11  and  C_13
REMARK    5  A    between atoms: C_13  and  O_14
REMARK    6  A    between atoms: C_16  and  C_17
REMARK                            x       y       z     vdW  Elec       q    Type
REMARK                         _______ _______ _______ _____ _____    ______ ____
ROOT
ATOM      1  N   UNL     1      34.190 -22.734 -15.171  0.00  0.00    -0.244 N 
ATOM      2  N   UNL     1      34.611 -22.688 -16.445  0.00  0.00    -0.131 NA
ATOM      3  C   UNL     1      32.828 -22.738 -15.029  0.00  0.00    +0.083 A 
ATOM      4  C   UNL     1      32.326 -22.690 -16.324  0.00  0.00    +0.072 A 
ATOM      5  C   UNL     1      33.474 -22.660 -17.145  0.00  0.00    +0.244 A 
ATOM      6  C   UNL     1      32.013 -22.781 -13.897  0.00  0.00    +0.019 C 
ATOM      7  C   UNL     1      30.935 -22.681 -16.523  0.00  0.00    +0.006 C 
ATOM      8  C   UNL     1      30.630 -22.771 -14.110  0.00  0.00    +0.002 C 
ATOM      9  C   UNL     1      30.099 -22.722 -15.400  0.00  0.00    +0.000 C 
ENDROOT
BRANCH   5  10
ATOM     10  O   UNL     1      33.544 -22.610 -18.483  0.00  0.00    -0.447 OA
BRANCH  10  11
ATOM     11  C   UNL     1      34.228 -21.494 -19.075  0.00  0.00    +0.315 C 
BRANCH  11  13
ATOM     12  O   UNL     1      33.510 -19.598 -20.414  0.00  0.00    -0.246 OA
ATOM     13  C   UNL     1      33.249 -20.641 -19.832  0.00  0.00    +0.359 C 
BRANCH  13  14
ATOM     14  O   UNL     1      32.010 -21.193 -19.784  0.00  0.00    -0.478 OA
ATOM     15  H   UNL     1      31.847 -22.015 -20.203  0.00  0.00    +0.295 HD
ENDBRANCH  13  14
ENDBRANCH  11  13
ENDBRANCH  10  11
ENDBRANCH   5  10
BRANCH   1  16
ATOM     16  C   UNL     1      35.168 -22.775 -14.108  0.00  0.00    +0.154 C 
BRANCH  16  17
ATOM     17  C   UNL     1      36.087 -23.958 -14.253  0.00  0.00    +0.002 C 
ATOM     18  C   UNL     1      37.446 -23.802 -14.019  0.00  0.00    -0.002 C 
ATOM     19  C   UNL     1      35.562 -25.190 -14.619  0.00  0.00    -0.002 C 
ATOM     20  C   UNL     1      38.297 -24.899 -14.153  0.00  0.00    -0.000 C 
ATOM     21  C   UNL     1      36.413 -26.287 -14.753  0.00  0.00    -0.000 C 
ATOM     22  C   UNL     1      37.781 -26.141 -14.521  0.00  0.00    -0.000 C 
ENDBRANCH  16  17
ENDBRANCH   1  16
TORSDOF 6
ENDMDL
MODEL 9
REMARK VINA RESULT:      -8.8      6.072      9.490
REMARK  Name = 2313
REMARK  6 active torsions:
REMARK  status: ('A' for Active; 'I' for Inactive)
REMARK    1  A    between atoms: N_1  and  C_16
REMARK    2  A    between atoms: C_5  and  O_10
REMARK    3  A    between atoms: O_10  and  C_11
REMARK    4  A    between atoms: C_11  and  C_13
REMARK    5  A    between atoms: C_13  and  O_14
REMARK    6  A    between atoms: C_16  and  C_17
REMARK                            x       y       z     vdW  Elec       q    Type
REMARK                         _______ _______ _______ _____ _____    ______ ____
ROOT
ATOM      1  N   UNL     1      33.064 -23.066 -16.974  0.00  0.00    -0.244 N 
ATOM      2  N   UNL     1      31.794 -22.901 -16.567  0.00  0.00    -0.131 NA
ATOM      3  C   UNL     1      33.987 -23.018 -15.964  0.00  0.00    +0.083 A 
ATOM      4  C   UNL     1      33.251 -22.802 -14.805  0.00  0.00    +0.072 A 
ATOM      5  C   UNL     1      31.912 -22.740 -15.247  0.00  0.00    +0.244 A 
ATOM      6  C   UNL     1      35.378 -23.144 -15.971  0.00  0.00    +0.019 C 
ATOM      7  C   UNL     1      33.920 -22.702 -13.573  0.00  0.00    +0.006 C 
ATOM      8  C   UNL     1      36.030 -23.042 -14.738  0.00  0.00    +0.002 C 
ATOM      9  C   UNL     1      35.315 -22.825 -13.559  0.00  0.00    +0.000 C 
ENDROOT
BRANCH   5  10
ATOM     10  O   UNL     1      30.801 -22.546 -14.522  0.00  0.00    -0.447 OA
BRANCH  10  11
ATOM     11  C   UNL     1      29.719 -23.474 -14.695  0.00  0.00    +0.315 C 
BRANCH  11  13
ATOM     12  O   UNL     1      30.501 -24.495 -12.633  0.00  0.00    -0.246 OA
ATOM     13  C   UNL     1      29.743 -24.495 -13.592  0.00  0.00    +0.359 C 
BRANCH  13  14
ATOM     14  O   UNL     1      28.791 -25.438 -13.805  0.00  0.00    -0.478 OA
ATOM     15  H   UNL     1      29.040 -26.321 -13.996  0.00  0.00    +0.295 HD
ENDBRANCH  13  14
ENDBRANCH  11  13
ENDBRANCH  10  11
ENDBRANCH   5  10
BRANCH   1  16
ATOM     16  C   UNL     1      33.331 -23.272 -18.378  0.00  0.00    +0.154 C 
BRANCH  16  17
ATOM     17  C   UNL     1      33.609 -21.971 -19.081  0.00  0.00    +0.002 C 
ATOM     18  C   UNL     1      34.922 -21.580 -19.303  0.00  0.00    -0.002 C 
ATOM     19  C   UNL     1      32.548 -21.179 -19.498  0.00  0.00    -0.002 C 
ATOM     20  C   UNL     1      35.179 -20.373 -19.954  0.00  0.00    -0.000 C 
ATOM     21  C   UNL     1      32.805 -19.973 -20.150  0.00  0.00    -0.000 C 
ATOM     22  C   UNL     1      34.121 -19.570 -20.377  0.00  0.00    -0.000 C 
ENDBRANCH  16  17
ENDBRANCH   1  16
TORSDOF 6
ENDMDL
