MODEL 1
REMARK VINA RESULT:     -11.4      0.000      0.000
REMARK  Name = 5282136
REMARK  11 active torsions:
REMARK  status: ('A' for Active; 'I' for Inactive)
REMARK    1  A    between atoms: C_1  and  C_2
REMARK    2  A    between atoms: C_1  and  O_18
REMARK    3  A    between atoms: C_3  and  C_4
REMARK    4  A    between atoms: C_4  and  N_6
REMARK    5  A    between atoms: C_7  and  C_9
REMARK    6  A    between atoms: C_9  and  S_10
REMARK    7  A    between atoms: S_10  and  C_12
REMARK    8  A    between atoms: C_12  and  C_14
REMARK    9  A    between atoms: O_18  and  C_23
REMARK   10  A    between atoms: C_20  and  C_25
REMARK   11  A    between atoms: C_25  and  N_26
REMARK                            x       y       z     vdW  Elec       q    Type
REMARK                         _______ _______ _______ _____ _____    ______ ____
ROOT
ATOM      1  C   UNL     1      34.473 -19.646 -20.574  0.00  0.00    +0.233 C 
ENDROOT
BRANCH   1   2
ATOM      2  C   UNL     1      35.330 -20.643 -19.865  0.00  0.00    +0.018 C 
ATOM      3  C   UNL     1      34.846 -21.618 -19.080  0.00  0.00    -0.006 C 
BRANCH   3   4
ATOM      4  C   UNL     1      33.390 -21.824 -18.820  0.00  0.00    +0.116 C 
BRANCH   4   6
ATOM      5  O   UNL     1      30.931 -22.093 -17.336  0.00  0.00    -0.274 OA
ATOM      6  N   UNL     1      33.225 -22.412 -17.520  0.00  0.00    -0.300 N 
ATOM      7  C   UNL     1      31.996 -22.500 -16.878  0.00  0.00    +0.236 C 
ATOM      8  H   UNL     1      34.020 -22.770 -17.064  0.00  0.00    +0.150 HD
BRANCH   7   9
ATOM      9  C   UNL     1      32.073 -23.180 -15.533  0.00  0.00    +0.177 C 
BRANCH   9  10
ATOM     10  S   UNL     1      33.754 -23.055 -14.861  0.00  0.00    +0.059 S 
ATOM     11  O   UNL     1      34.617 -24.001 -15.639  0.00  0.00    -0.255 OA
BRANCH  10  12
ATOM     12  C   UNL     1      33.370 -23.841 -13.278  0.00  0.00    +0.156 C 
BRANCH  12  14
ATOM     13  O   UNL     1      34.435 -24.405 -11.170  0.00  0.00    -0.454 OA
ATOM     14  C   UNL     1      34.511 -23.685 -12.319  0.00  0.00    +0.137 C 
ATOM     15  C   UNL     1      35.668 -22.941 -12.347  0.00  0.00    +0.037 C 
ATOM     16  C   UNL     1      36.346 -23.222 -11.137  0.00  0.00    +0.043 C 
ATOM     17  C   UNL     1      35.556 -24.119 -10.456  0.00  0.00    +0.179 C 
ENDBRANCH  12  14
ENDBRANCH  10  12
ENDBRANCH   9  10
ENDBRANCH   7   9
ENDBRANCH   4   6
ENDBRANCH   3   4
ENDBRANCH   1   2
BRANCH   1  18
ATOM     18  O   UNL     1      35.314 -18.718 -21.247  0.00  0.00    -0.455 OA
BRANCH  18  23
ATOM     19  N   UNL     1      34.172 -18.700 -23.268  0.00  0.00    -0.210 NA
ATOM     20  C   UNL     1      34.203 -15.905 -23.258  0.00  0.00    -0.037 C 
ATOM     21  C   UNL     1      34.787 -16.613 -22.214  0.00  0.00    +0.051 C 
ATOM     22  C   UNL     1      33.603 -16.592 -24.307  0.00  0.00    +0.015 C 
ATOM     23  C   UNL     1      34.745 -17.997 -22.266  0.00  0.00    +0.225 C 
ATOM     24  C   UNL     1      33.614 -17.977 -24.265  0.00  0.00    +0.102 C 
BRANCH  20  25
ATOM     25  C   UNL     1      34.219 -14.400 -23.253  0.00  0.00    -0.050 C 
BRANCH  25  26
ATOM     26  N   UNL     1      33.081 -13.844 -22.520  0.00  0.00    +0.390 N 
ATOM     27  C   UNL     1      33.297 -13.961 -21.071  0.00  0.00    -0.077 C 
ATOM     28  C   UNL     1      32.849 -12.448 -22.912  0.00  0.00    -0.077 C 
ATOM     29  C   UNL     1      32.094 -13.430 -20.289  0.00  0.00    -0.023 C 
ATOM     30  C   UNL     1      31.631 -11.867 -22.191  0.00  0.00    -0.023 C 
ATOM     31  C   UNL     1      31.771 -11.991 -20.679  0.00  0.00    -0.004 C 
ATOM     32  H   UNL     1      32.247 -14.380 -22.757  0.00  0.00    -0.079 HD
ENDBRANCH  25  26
ENDBRANCH  20  25
ENDBRANCH  18  23
ENDBRANCH   1  18
TORSDOF 11
ENDMDL
MODEL 2
REMARK VINA RESULT:     -11.2      2.825      5.225
REMARK  Name = 5282136
REMARK  11 active torsions:
REMARK  status: ('A' for Active; 'I' for Inactive)
REMARK    1  A    between atoms: C_1  and  C_2
REMARK    2  A    between atoms: C_1  and  O_18
REMARK    3  A    between atoms: C_3  and  C_4
REMARK    4  A    between atoms: C_4  and  N_6
REMARK    5  A    between atoms: C_7  and  C_9
REMARK    6  A    between atoms: C_9  and  S_10
REMARK    7  A    between atoms: S_10  and  C_12
REMARK    8  A    between atoms: C_12  and  C_14
REMARK    9  A    between atoms: O_18  and  C_23
REMARK   10  A    between atoms: C_20  and  C_25
REMARK   11  A    between atoms: C_25  and  N_26
REMARK                            x       y       z     vdW  Elec       q    Type
REMARK                         _______ _______ _______ _____ _____    ______ ____
ROOT
ATOM      1  C   UNL     1      34.960 -22.388 -16.463  0.00  0.00    +0.233 C 
ENDROOT
BRANCH   1   2
ATOM      2  C   UNL     1      34.247 -22.363 -15.151  0.00  0.00    +0.018 C 
ATOM      3  C   UNL     1      33.935 -23.464 -14.451  0.00  0.00    -0.006 C 
BRANCH   3   4
ATOM      4  C   UNL     1      34.265 -24.850 -14.899  0.00  0.00    +0.116 C 
BRANCH   4   6
ATOM      5  O   UNL     1      36.038 -26.871 -15.945  0.00  0.00    -0.274 OA
ATOM      6  N   UNL     1      35.560 -25.210 -14.392  0.00  0.00    -0.300 N 
ATOM      7  C   UNL     1      36.349 -26.201 -14.963  0.00  0.00    +0.236 C 
ATOM      8  H   UNL     1      35.904 -24.731 -13.604  0.00  0.00    +0.150 HD
BRANCH   7   9
ATOM      9  C   UNL     1      37.677 -26.381 -14.267  0.00  0.00    +0.177 C 
BRANCH   9  10
ATOM     10  S   UNL     1      38.801 -25.025 -14.702  0.00  0.00    +0.059 S 
ATOM     11  O   UNL     1      40.039 -25.641 -15.283  0.00  0.00    -0.255 OA
BRANCH  10  12
ATOM     12  C   UNL     1      39.175 -24.553 -12.997  0.00  0.00    +0.156 C 
BRANCH  12  14
ATOM     13  O   UNL     1      37.434 -22.863 -12.901  0.00  0.00    -0.454 OA
ATOM     14  C   UNL     1      37.963 -23.975 -12.329  0.00  0.00    +0.137 C 
ATOM     15  C   UNL     1      37.239 -24.339 -11.218  0.00  0.00    +0.037 C 
ATOM     16  C   UNL     1      36.197 -23.388 -11.100  0.00  0.00    +0.043 C 
ATOM     17  C   UNL     1      36.359 -22.512 -12.148  0.00  0.00    +0.179 C 
ENDBRANCH  12  14
ENDBRANCH  10  12
ENDBRANCH   9  10
ENDBRANCH   7   9
ENDBRANCH   4   6
ENDBRANCH   3   4
ENDBRANCH   1   2
BRANCH   1  18
ATOM     18  O   UNL     1      34.055 -22.827 -17.468  0.00  0.00    -0.455 OA
BRANCH  18  23
ATOM     19  N   UNL     1      32.309 -21.672 -18.469  0.00  0.00    -0.210 NA
ATOM     20  C   UNL     1      34.142 -20.275 -20.050  0.00  0.00    -0.037 C 
ATOM     21  C   UNL     1      34.588 -21.223 -19.137  0.00  0.00    +0.051 C 
ATOM     22  C   UNL     1      32.780 -20.024 -20.175  0.00  0.00    +0.015 C 
ATOM     23  C   UNL     1      33.639 -21.888 -18.376  0.00  0.00    +0.225 C 
ATOM     24  C   UNL     1      31.912 -20.743 -19.368  0.00  0.00    +0.102 C 
BRANCH  20  25
ATOM     25  C   UNL     1      35.129 -19.523 -20.902  0.00  0.00    -0.050 C 
BRANCH  25  26
ATOM     26  N   UNL     1      34.485 -18.455 -21.668  0.00  0.00    +0.390 N 
ATOM     27  C   UNL     1      35.164 -17.173 -21.431  0.00  0.00    -0.077 C 
ATOM     28  C   UNL     1      34.463 -18.788 -23.098  0.00  0.00    -0.077 C 
ATOM     29  C   UNL     1      34.474 -16.035 -22.185  0.00  0.00    -0.023 C 
ATOM     30  C   UNL     1      33.749 -17.704 -23.907  0.00  0.00    -0.023 C 
ATOM     31  C   UNL     1      34.381 -16.336 -23.678  0.00  0.00    -0.004 C 
ATOM     32  H   UNL     1      33.520 -18.362 -21.351  0.00  0.00    -0.079 HD
ENDBRANCH  25  26
ENDBRANCH  20  25
ENDBRANCH  18  23
ENDBRANCH   1  18
TORSDOF 11
ENDMDL
MODEL 3
REMARK VINA RESULT:     -11.2      1.686      2.842
REMARK  Name = 5282136
REMARK  11 active torsions:
REMARK  status: ('A' for Active; 'I' for Inactive)
REMARK    1  A    between atoms: C_1  and  C_2
REMARK    2  A    between atoms: C_1  and  O_18
REMARK    3  A    between atoms: C_3  and  C_4
REMARK    4  A    between atoms: C_4  and  N_6
REMARK    5  A    between atoms: C_7  and  C_9
REMARK    6  A    between atoms: C_9  and  S_10
REMARK    7  A    between atoms: S_10  and  C_12
REMARK    8  A    between atoms: C_12  and  C_14
REMARK    9  A    between atoms: O_18  and  C_23
REMARK   10  A    between atoms: C_20  and  C_25
REMARK   11  A    between atoms: C_25  and  N_26
REMARK                            x       y       z     vdW  Elec       q    Type
REMARK                         _______ _______ _______ _____ _____    ______ ____
ROOT
ATOM      1  C   UNL     1      35.523 -20.376 -20.251  0.00  0.00    +0.233 C 
ENDROOT
BRANCH   1   2
ATOM      2  C   UNL     1      34.467 -21.063 -19.450  0.00  0.00    +0.018 C 
ATOM      3  C   UNL     1      34.681 -21.603 -18.241  0.00  0.00    -0.006 C 
BRANCH   3   4
ATOM      4  C   UNL     1      36.004 -21.581 -17.548  0.00  0.00    +0.116 C 
BRANCH   4   6
ATOM      5  O   UNL     1      38.034 -22.508 -15.720  0.00  0.00    -0.274 OA
ATOM      6  N   UNL     1      35.821 -21.966 -16.177  0.00  0.00    -0.300 N 
ATOM      7  C   UNL     1      36.862 -22.402 -15.366  0.00  0.00    +0.236 C 
ATOM      8  H   UNL     1      34.916 -21.917 -15.794  0.00  0.00    +0.150 HD
BRANCH   7   9
ATOM      9  C   UNL     1      36.425 -22.725 -13.958  0.00  0.00    +0.177 C 
BRANCH   9  10
ATOM     10  S   UNL     1      35.678 -24.377 -13.895  0.00  0.00    +0.059 S 
ATOM     11  O   UNL     1      35.134 -24.673 -15.261  0.00  0.00    -0.255 OA
BRANCH  10  12
ATOM     12  C   UNL     1      34.286 -23.901 -12.844  0.00  0.00    +0.156 C 
BRANCH  12  14
ATOM     13  O   UNL     1      32.024 -24.520 -13.477  0.00  0.00    -0.454 OA
ATOM     14  C   UNL     1      33.058 -23.660 -13.669  0.00  0.00    +0.137 C 
ATOM     15  C   UNL     1      32.732 -22.718 -14.617  0.00  0.00    +0.037 C 
ATOM     16  C   UNL     1      31.414 -23.020 -15.036  0.00  0.00    +0.043 C 
ATOM     17  C   UNL     1      31.028 -24.124 -14.312  0.00  0.00    +0.179 C 
ENDBRANCH  12  14
ENDBRANCH  10  12
ENDBRANCH   9  10
ENDBRANCH   7   9
ENDBRANCH   4   6
ENDBRANCH   3   4
ENDBRANCH   1   2
BRANCH   1  18
ATOM     18  O   UNL     1      35.297 -18.973 -20.198  0.00  0.00    -0.455 OA
BRANCH  18  23
ATOM     19  N   UNL     1      34.413 -19.187 -22.334  0.00  0.00    -0.210 NA
ATOM     20  C   UNL     1      34.476 -16.409 -22.636  0.00  0.00    -0.037 C 
ATOM     21  C   UNL     1      34.919 -16.992 -21.455  0.00  0.00    +0.051 C 
ATOM     22  C   UNL     1      34.002 -17.212 -23.667  0.00  0.00    +0.015 C 
ATOM     23  C   UNL     1      34.866 -18.374 -21.354  0.00  0.00    +0.225 C 
ATOM     24  C   UNL     1      33.991 -18.583 -23.468  0.00  0.00    +0.102 C 
BRANCH  20  25
ATOM     25  C   UNL     1      34.510 -14.913 -22.800  0.00  0.00    -0.050 C 
BRANCH  25  26
ATOM     26  N   UNL     1      33.304 -14.278 -22.267  0.00  0.00    +0.390 N 
ATOM     27  C   UNL     1      33.391 -14.158 -20.805  0.00  0.00    -0.077 C 
ATOM     28  C   UNL     1      33.091 -12.968 -22.896  0.00  0.00    -0.077 C 
ATOM     29  C   UNL     1      32.116 -13.542 -20.225  0.00  0.00    -0.023 C 
ATOM     30  C   UNL     1      31.806 -12.313 -22.386  0.00  0.00    -0.023 C 
ATOM     31  C   UNL     1      31.812 -12.191 -20.867  0.00  0.00    -0.004 C 
ATOM     32  H   UNL     1      32.501 -14.867 -22.486  0.00  0.00    -0.079 HD
ENDBRANCH  25  26
ENDBRANCH  20  25
ENDBRANCH  18  23
ENDBRANCH   1  18
TORSDOF 11
ENDMDL
MODEL 4
REMARK VINA RESULT:     -11.2      2.316      3.666
REMARK  Name = 5282136
REMARK  11 active torsions:
REMARK  status: ('A' for Active; 'I' for Inactive)
REMARK    1  A    between atoms: C_1  and  C_2
REMARK    2  A    between atoms: C_1  and  O_18
REMARK    3  A    between atoms: C_3  and  C_4
REMARK    4  A    between atoms: C_4  and  N_6
REMARK    5  A    between atoms: C_7  and  C_9
REMARK    6  A    between atoms: C_9  and  S_10
REMARK    7  A    between atoms: S_10  and  C_12
REMARK    8  A    between atoms: C_12  and  C_14
REMARK    9  A    between atoms: O_18  and  C_23
REMARK   10  A    between atoms: C_20  and  C_25
REMARK   11  A    between atoms: C_25  and  N_26
REMARK                            x       y       z     vdW  Elec       q    Type
REMARK                         _______ _______ _______ _____ _____    ______ ____
ROOT
ATOM      1  C   UNL     1      34.367 -21.515 -18.928  0.00  0.00    +0.233 C 
ENDROOT
BRANCH   1   2
ATOM      2  C   UNL     1      33.329 -22.147 -18.059  0.00  0.00    +0.018 C 
ATOM      3  C   UNL     1      33.554 -22.546 -16.798  0.00  0.00    -0.006 C 
BRANCH   3   4
ATOM      4  C   UNL     1      34.871 -22.406 -16.109  0.00  0.00    +0.116 C 
BRANCH   4   6
ATOM      5  O   UNL     1      34.742 -24.790 -14.489  0.00  0.00    -0.274 OA
ATOM      6  N   UNL     1      34.667 -22.477 -14.690  0.00  0.00    -0.300 N 
ATOM      7  C   UNL     1      34.619 -23.675 -13.988  0.00  0.00    +0.236 C 
ATOM      8  H   UNL     1      34.558 -21.635 -14.190  0.00  0.00    +0.150 HD
BRANCH   7   9
ATOM      9  C   UNL     1      34.420 -23.489 -12.504  0.00  0.00    +0.177 C 
BRANCH   9  10
ATOM     10  S   UNL     1      35.532 -24.584 -11.579  0.00  0.00    +0.059 S 
ATOM     11  O   UNL     1      35.122 -24.522 -10.138  0.00  0.00    -0.255 OA
BRANCH  10  12
ATOM     12  C   UNL     1      37.001 -23.549 -11.774  0.00  0.00    +0.156 C 
BRANCH  12  14
ATOM     13  O   UNL     1      37.847 -23.287 -14.035  0.00  0.00    -0.454 OA
ATOM     14  C   UNL     1      37.850 -24.043 -12.907  0.00  0.00    +0.137 C 
ATOM     15  C   UNL     1      38.666 -25.139 -13.063  0.00  0.00    +0.037 C 
ATOM     16  C   UNL     1      39.198 -25.051 -14.371  0.00  0.00    +0.043 C 
ATOM     17  C   UNL     1      38.670 -23.907 -14.921  0.00  0.00    +0.179 C 
ENDBRANCH  12  14
ENDBRANCH  10  12
ENDBRANCH   9  10
ENDBRANCH   7   9
ENDBRANCH   4   6
ENDBRANCH   3   4
ENDBRANCH   1   2
BRANCH   1  18
ATOM     18  O   UNL     1      33.727 -20.617 -19.825  0.00  0.00    -0.455 OA
BRANCH  18  23
ATOM     19  N   UNL     1      35.801 -19.602 -20.065  0.00  0.00    -0.210 NA
ATOM     20  C   UNL     1      34.873 -18.245 -22.325  0.00  0.00    -0.037 C 
ATOM     21  C   UNL     1      34.030 -19.109 -21.636  0.00  0.00    +0.051 C 
ATOM     22  C   UNL     1      36.179 -18.058 -21.886  0.00  0.00    +0.015 C 
ATOM     23  C   UNL     1      34.538 -19.759 -20.522  0.00  0.00    +0.225 C 
ATOM     24  C   UNL     1      36.590 -18.754 -20.761  0.00  0.00    +0.102 C 
BRANCH  20  25
ATOM     25  C   UNL     1      34.374 -17.514 -23.543  0.00  0.00    -0.050 C 
BRANCH  25  26
ATOM     26  N   UNL     1      33.761 -16.232 -23.196  0.00  0.00    +0.390 N 
ATOM     27  C   UNL     1      34.477 -15.608 -22.075  0.00  0.00    -0.077 C 
ATOM     28  C   UNL     1      33.729 -15.344 -24.366  0.00  0.00    -0.077 C 
ATOM     29  C   UNL     1      33.818 -14.289 -21.666  0.00  0.00    -0.023 C 
ATOM     30  C   UNL     1      33.046 -14.016 -24.033  0.00  0.00    -0.023 C 
ATOM     31  C   UNL     1      33.716 -13.330 -22.848  0.00  0.00    -0.004 C 
ATOM     32  H   UNL     1      32.799 -16.399 -22.901  0.00  0.00    -0.079 HD
ENDBRANCH  25  26
ENDBRANCH  20  25
ENDBRANCH  18  23
ENDBRANCH   1  18
TORSDOF 11
ENDMDL
MODEL 5
REMARK VINA RESULT:     -11.2      6.239     12.175
REMARK  Name = 5282136
REMARK  11 active torsions:
REMARK  status: ('A' for Active; 'I' for Inactive)
REMARK    1  A    between atoms: C_1  and  C_2
REMARK    2  A    between atoms: C_1  and  O_18
REMARK    3  A    between atoms: C_3  and  C_4
REMARK    4  A    between atoms: C_4  and  N_6
REMARK    5  A    between atoms: C_7  and  C_9
REMARK    6  A    between atoms: C_9  and  S_10
REMARK    7  A    between atoms: S_10  and  C_12
REMARK    8  A    between atoms: C_12  and  C_14
REMARK    9  A    between atoms: O_18  and  C_23
REMARK   10  A    between atoms: C_20  and  C_25
REMARK   11  A    between atoms: C_25  and  N_26
REMARK                            x       y       z     vdW  Elec       q    Type
REMARK                         _______ _______ _______ _____ _____    ______ ____
ROOT
ATOM      1  C   UNL     1      33.110 -14.118 -23.504  0.00  0.00    +0.233 C 
ENDROOT
BRANCH   1   2
ATOM      2  C   UNL     1      33.920 -13.469 -22.430  0.00  0.00    +0.018 C 
ATOM      3  C   UNL     1      33.410 -13.047 -21.263  0.00  0.00    -0.006 C 
BRANCH   3   4
ATOM      4  C   UNL     1      31.969 -13.177 -20.895  0.00  0.00    +0.116 C 
BRANCH   4   6
ATOM      5  O   UNL     1      31.608 -10.658 -19.535  0.00  0.00    -0.274 OA
ATOM      6  N   UNL     1      31.256 -12.028 -21.379  0.00  0.00    -0.300 N 
ATOM      7  C   UNL     1      31.133 -10.850 -20.652  0.00  0.00    +0.236 C 
ATOM      8  H   UNL     1      30.836 -12.078 -22.268  0.00  0.00    +0.150 HD
BRANCH   7   9
ATOM      9  C   UNL     1      30.360  -9.778 -21.381  0.00  0.00    +0.177 C 
BRANCH   9  10
ATOM     10  S   UNL     1      31.381  -9.048 -22.691  0.00  0.00    +0.059 S 
ATOM     11  O   UNL     1      32.371 -10.089 -23.118  0.00  0.00    -0.255 OA
BRANCH  10  12
ATOM     12  C   UNL     1      32.245  -7.882 -21.611  0.00  0.00    +0.156 C 
BRANCH  12  14
ATOM     13  O   UNL     1      30.658  -6.266 -22.487  0.00  0.00    -0.454 OA
ATOM     14  C   UNL     1      31.445  -6.626 -21.440  0.00  0.00    +0.137 C 
ATOM     15  C   UNL     1      31.328  -5.718 -20.413  0.00  0.00    +0.037 C 
ATOM     16  C   UNL     1      30.410  -4.738 -20.858  0.00  0.00    +0.043 C 
ATOM     17  C   UNL     1      30.030  -5.116 -22.125  0.00  0.00    +0.179 C 
ENDBRANCH  12  14
ENDBRANCH  10  12
ENDBRANCH   9  10
ENDBRANCH   7   9
ENDBRANCH   4   6
ENDBRANCH   3   4
ENDBRANCH   1   2
BRANCH   1  18
ATOM     18  O   UNL     1      33.965 -14.942 -24.286  0.00  0.00    -0.455 OA
BRANCH  18  23
ATOM     19  N   UNL     1      33.336 -17.101 -24.859  0.00  0.00    -0.210 NA
ATOM     20  C   UNL     1      34.605 -18.076 -22.567  0.00  0.00    -0.037 C 
ATOM     21  C   UNL     1      34.613 -16.714 -22.843  0.00  0.00    +0.051 C 
ATOM     22  C   UNL     1      33.963 -18.952 -23.435  0.00  0.00    +0.015 C 
ATOM     23  C   UNL     1      33.970 -16.281 -23.992  0.00  0.00    +0.225 C 
ATOM     24  C   UNL     1      33.349 -18.419 -24.557  0.00  0.00    +0.102 C 
BRANCH  20  25
ATOM     25  C   UNL     1      35.289 -18.602 -21.333  0.00  0.00    -0.050 C 
BRANCH  25  26
ATOM     26  N   UNL     1      34.637 -19.807 -20.820  0.00  0.00    +0.390 N 
ATOM     27  C   UNL     1      35.457 -20.426 -19.769  0.00  0.00    -0.077 C 
ATOM     28  C   UNL     1      33.289 -19.493 -20.327  0.00  0.00    -0.077 C 
ATOM     29  C   UNL     1      34.814 -21.716 -19.256  0.00  0.00    -0.023 C 
ATOM     30  C   UNL     1      32.575 -20.752 -19.833  0.00  0.00    -0.023 C 
ATOM     31  C   UNL     1      33.392 -21.469 -18.764  0.00  0.00    -0.004 C 
ATOM     32  H   UNL     1      34.545 -20.478 -21.583  0.00  0.00    -0.079 HD
ENDBRANCH  25  26
ENDBRANCH  20  25
ENDBRANCH  18  23
ENDBRANCH   1  18
TORSDOF 11
ENDMDL
MODEL 6
REMARK VINA RESULT:     -11.2      2.346      3.833
REMARK  Name = 5282136
REMARK  11 active torsions:
REMARK  status: ('A' for Active; 'I' for Inactive)
REMARK    1  A    between atoms: C_1  and  C_2
REMARK    2  A    between atoms: C_1  and  O_18
REMARK    3  A    between atoms: C_3  and  C_4
REMARK    4  A    between atoms: C_4  and  N_6
REMARK    5  A    between atoms: C_7  and  C_9
REMARK    6  A    between atoms: C_9  and  S_10
REMARK    7  A    between atoms: S_10  and  C_12
REMARK    8  A    between atoms: C_12  and  C_14
REMARK    9  A    between atoms: O_18  and  C_23
REMARK   10  A    between atoms: C_20  and  C_25
REMARK   11  A    between atoms: C_25  and  N_26
REMARK                            x       y       z     vdW  Elec       q    Type
REMARK                         _______ _______ _______ _____ _____    ______ ____
ROOT
ATOM      1  C   UNL     1      35.073 -20.337 -20.312  0.00  0.00    +0.233 C 
ENDROOT
BRANCH   1   2
ATOM      2  C   UNL     1      35.733 -20.834 -19.067  0.00  0.00    +0.018 C 
ATOM      3  C   UNL     1      35.120 -21.601 -18.153  0.00  0.00    -0.006 C 
BRANCH   3   4
ATOM      4  C   UNL     1      33.702 -22.052 -18.270  0.00  0.00    +0.116 C 
BRANCH   4   6
ATOM      5  O   UNL     1      31.109 -22.107 -17.005  0.00  0.00    -0.274 OA
ATOM      6  N   UNL     1      33.337 -22.763 -17.077  0.00  0.00    -0.300 N 
ATOM      7  C   UNL     1      32.057 -22.733 -16.537  0.00  0.00    +0.236 C 
ATOM      8  H   UNL     1      34.026 -23.299 -16.622  0.00  0.00    +0.150 HD
BRANCH   7   9
ATOM      9  C   UNL     1      31.913 -23.580 -15.296  0.00  0.00    +0.177 C 
BRANCH   9  10
ATOM     10  S   UNL     1      31.095 -22.635 -13.981  0.00  0.00    +0.059 S 
ATOM     11  O   UNL     1      31.825 -22.924 -12.704  0.00  0.00    -0.255 OA
BRANCH  10  12
ATOM     12  C   UNL     1      29.577 -23.617 -13.977  0.00  0.00    +0.156 C 
BRANCH  12  14
ATOM     13  O   UNL     1      28.389 -24.045 -16.052  0.00  0.00    -0.454 OA
ATOM     14  C   UNL     1      28.645 -23.156 -15.058  0.00  0.00    +0.137 C 
ATOM     15  C   UNL     1      27.963 -21.982 -15.273  0.00  0.00    +0.037 C 
ATOM     16  C   UNL     1      27.242 -22.160 -16.478  0.00  0.00    +0.043 C 
ATOM     17  C   UNL     1      27.534 -23.432 -16.912  0.00  0.00    +0.179 C 
ENDBRANCH  12  14
ENDBRANCH  10  12
ENDBRANCH   9  10
ENDBRANCH   7   9
ENDBRANCH   4   6
ENDBRANCH   3   4
ENDBRANCH   1   2
BRANCH   1  18
ATOM     18  O   UNL     1      35.275 -18.933 -20.407  0.00  0.00    -0.455 OA
BRANCH  18  23
ATOM     19  N   UNL     1      34.334 -19.122 -22.520  0.00  0.00    -0.210 NA
ATOM     20  C   UNL     1      34.418 -16.343 -22.804  0.00  0.00    -0.037 C 
ATOM     21  C   UNL     1      34.885 -16.939 -21.639  0.00  0.00    +0.051 C 
ATOM     22  C   UNL     1      33.909 -17.133 -23.829  0.00  0.00    +0.015 C 
ATOM     23  C   UNL     1      34.821 -18.321 -21.547  0.00  0.00    +0.225 C 
ATOM     24  C   UNL     1      33.889 -18.506 -23.639  0.00  0.00    +0.102 C 
BRANCH  20  25
ATOM     25  C   UNL     1      34.462 -14.846 -22.957  0.00  0.00    -0.050 C 
BRANCH  25  26
ATOM     26  N   UNL     1      33.277 -14.203 -22.389  0.00  0.00    +0.390 N 
ATOM     27  C   UNL     1      33.401 -14.097 -20.929  0.00  0.00    -0.077 C 
ATOM     28  C   UNL     1      33.062 -12.886 -23.002  0.00  0.00    -0.077 C 
ATOM     29  C   UNL     1      32.148 -13.472 -20.313  0.00  0.00    -0.023 C 
ATOM     30  C   UNL     1      31.798 -12.221 -22.455  0.00  0.00    -0.023 C 
ATOM     31  C   UNL     1      31.842 -12.114 -20.935  0.00  0.00    -0.004 C 
ATOM     32  H   UNL     1      32.462 -14.782 -22.594  0.00  0.00    -0.079 HD
ENDBRANCH  25  26
ENDBRANCH  20  25
ENDBRANCH  18  23
ENDBRANCH   1  18
TORSDOF 11
ENDMDL
MODEL 7
REMARK VINA RESULT:     -11.1      1.998      2.352
REMARK  Name = 5282136
REMARK  11 active torsions:
REMARK  status: ('A' for Active; 'I' for Inactive)
REMARK    1  A    between atoms: C_1  and  C_2
REMARK    2  A    between atoms: C_1  and  O_18
REMARK    3  A    between atoms: C_3  and  C_4
REMARK    4  A    between atoms: C_4  and  N_6
REMARK    5  A    between atoms: C_7  and  C_9
REMARK    6  A    between atoms: C_9  and  S_10
REMARK    7  A    between atoms: S_10  and  C_12
REMARK    8  A    between atoms: C_12  and  C_14
REMARK    9  A    between atoms: O_18  and  C_23
REMARK   10  A    between atoms: C_20  and  C_25
REMARK   11  A    between atoms: C_25  and  N_26
REMARK                            x       y       z     vdW  Elec       q    Type
REMARK                         _______ _______ _______ _____ _____    ______ ____
ROOT
ATOM      1  C   UNL     1      34.658 -20.043 -20.496  0.00  0.00    +0.233 C 
ENDROOT
BRANCH   1   2
ATOM      2  C   UNL     1      33.259 -20.089 -19.975  0.00  0.00    +0.018 C 
ATOM      3  C   UNL     1      32.757 -21.118 -19.276  0.00  0.00    -0.006 C 
BRANCH   3   4
ATOM      4  C   UNL     1      33.537 -22.344 -18.934  0.00  0.00    +0.116 C 
BRANCH   4   6
ATOM      5  O   UNL     1      32.357 -23.187 -16.440  0.00  0.00    -0.274 OA
ATOM      6  N   UNL     1      34.095 -22.193 -17.619  0.00  0.00    -0.300 N 
ATOM      7  C   UNL     1      33.453 -22.632 -16.468  0.00  0.00    +0.236 C 
ATOM      8  H   UNL     1      34.974 -21.760 -17.531  0.00  0.00    +0.150 HD
BRANCH   7   9
ATOM      9  C   UNL     1      34.249 -22.383 -15.210  0.00  0.00    +0.177 C 
BRANCH   9  10
ATOM     10  S   UNL     1      35.225 -23.852 -14.783  0.00  0.00    +0.059 S 
ATOM     11  O   UNL     1      34.766 -24.315 -13.432  0.00  0.00    -0.255 OA
BRANCH  10  12
ATOM     12  C   UNL     1      36.785 -22.968 -14.556  0.00  0.00    +0.156 C 
BRANCH  12  14
ATOM     13  O   UNL     1      39.051 -23.729 -14.987  0.00  0.00    -0.454 OA
ATOM     14  C   UNL     1      37.904 -23.928 -14.287  0.00  0.00    +0.137 C 
ATOM     15  C   UNL     1      38.032 -25.013 -13.451  0.00  0.00    +0.037 C 
ATOM     16  C   UNL     1      39.340 -25.513 -13.651  0.00  0.00    +0.043 C 
ATOM     17  C   UNL     1      39.921 -24.696 -14.594  0.00  0.00    +0.179 C 
ENDBRANCH  12  14
ENDBRANCH  10  12
ENDBRANCH   9  10
ENDBRANCH   7   9
ENDBRANCH   4   6
ENDBRANCH   3   4
ENDBRANCH   1   2
BRANCH   1  18
ATOM     18  O   UNL     1      35.055 -18.683 -20.621  0.00  0.00    -0.455 OA
BRANCH  18  23
ATOM     19  N   UNL     1      34.291 -18.799 -22.809  0.00  0.00    -0.210 NA
ATOM     20  C   UNL     1      34.301 -16.008 -22.957  0.00  0.00    -0.037 C 
ATOM     21  C   UNL     1      34.695 -16.646 -21.787  0.00  0.00    +0.051 C 
ATOM     22  C   UNL     1      33.902 -16.763 -24.055  0.00  0.00    +0.015 C 
ATOM     23  C   UNL     1      34.672 -18.031 -21.764  0.00  0.00    +0.225 C 
ATOM     24  C   UNL     1      33.915 -18.143 -23.930  0.00  0.00    +0.102 C 
BRANCH  20  25
ATOM     25  C   UNL     1      34.306 -14.505 -23.038  0.00  0.00    -0.050 C 
BRANCH  25  26
ATOM     26  N   UNL     1      33.135 -13.919 -22.384  0.00  0.00    +0.390 N 
ATOM     27  C   UNL     1      33.287 -13.964 -20.923  0.00  0.00    -0.077 C 
ATOM     28  C   UNL     1      32.917 -12.545 -22.854  0.00  0.00    -0.077 C 
ATOM     29  C   UNL     1      32.049 -13.402 -20.222  0.00  0.00    -0.023 C 
ATOM     30  C   UNL     1      31.667 -11.935 -22.217  0.00  0.00    -0.023 C 
ATOM     31  C   UNL     1      31.740 -11.985 -20.695  0.00  0.00    -0.004 C 
ATOM     32  H   UNL     1      32.313 -14.471 -22.632  0.00  0.00    -0.079 HD
ENDBRANCH  25  26
ENDBRANCH  20  25
ENDBRANCH  18  23
ENDBRANCH   1  18
TORSDOF 11
ENDMDL
MODEL 8
REMARK VINA RESULT:     -11.1      2.153      2.656
REMARK  Name = 5282136
REMARK  11 active torsions:
REMARK  status: ('A' for Active; 'I' for Inactive)
REMARK    1  A    between atoms: C_1  and  C_2
REMARK    2  A    between atoms: C_1  and  O_18
REMARK    3  A    between atoms: C_3  and  C_4
REMARK    4  A    between atoms: C_4  and  N_6
REMARK    5  A    between atoms: C_7  and  C_9
REMARK    6  A    between atoms: C_9  and  S_10
REMARK    7  A    between atoms: S_10  and  C_12
REMARK    8  A    between atoms: C_12  and  C_14
REMARK    9  A    between atoms: O_18  and  C_23
REMARK   10  A    between atoms: C_20  and  C_25
REMARK   11  A    between atoms: C_25  and  N_26
REMARK                            x       y       z     vdW  Elec       q    Type
REMARK                         _______ _______ _______ _____ _____    ______ ____
ROOT
ATOM      1  C   UNL     1      34.551 -19.537 -20.668  0.00  0.00    +0.233 C 
ENDROOT
BRANCH   1   2
ATOM      2  C   UNL     1      33.233 -19.993 -20.135  0.00  0.00    +0.018 C 
ATOM      3  C   UNL     1      33.067 -21.114 -19.416  0.00  0.00    -0.006 C 
BRANCH   3   4
ATOM      4  C   UNL     1      34.182 -22.041 -19.061  0.00  0.00    +0.116 C 
BRANCH   4   6
ATOM      5  O   UNL     1      36.484 -21.486 -17.412  0.00  0.00    -0.274 OA
ATOM      6  N   UNL     1      34.267 -22.148 -17.632  0.00  0.00    -0.300 N 
ATOM      7  C   UNL     1      35.422 -21.858 -16.916  0.00  0.00    +0.236 C 
ATOM      8  H   UNL     1      33.468 -22.439 -17.136  0.00  0.00    +0.150 HD
BRANCH   7   9
ATOM      9  C   UNL     1      35.257 -22.022 -15.425  0.00  0.00    +0.177 C 
BRANCH   9  10
ATOM     10  S   UNL     1      35.507 -23.755 -14.951  0.00  0.00    +0.059 S 
ATOM     11  O   UNL     1      34.237 -24.230 -14.311  0.00  0.00    -0.255 OA
BRANCH  10  12
ATOM     12  C   UNL     1      36.689 -23.407 -13.628  0.00  0.00    +0.156 C 
BRANCH  12  14
ATOM     13  O   UNL     1      38.796 -23.752 -14.785  0.00  0.00    -0.454 OA
ATOM     14  C   UNL     1      37.948 -24.197 -13.822  0.00  0.00    +0.137 C 
ATOM     15  C   UNL     1      38.456 -25.321 -13.213  0.00  0.00    +0.037 C 
ATOM     16  C   UNL     1      39.696 -25.583 -13.843  0.00  0.00    +0.043 C 
ATOM     17  C   UNL     1      39.858 -24.600 -14.791  0.00  0.00    +0.179 C 
ENDBRANCH  12  14
ENDBRANCH  10  12
ENDBRANCH   9  10
ENDBRANCH   7   9
ENDBRANCH   4   6
ENDBRANCH   3   4
ENDBRANCH   1   2
BRANCH   1  18
ATOM     18  O   UNL     1      34.560 -19.714 -22.079  0.00  0.00    -0.455 OA
BRANCH  18  23
ATOM     19  N   UNL     1      33.596 -18.867 -24.013  0.00  0.00    -0.210 NA
ATOM     20  C   UNL     1      34.177 -16.269 -23.161  0.00  0.00    -0.037 C 
ATOM     21  C   UNL     1      34.531 -17.357 -22.372  0.00  0.00    +0.051 C 
ATOM     22  C   UNL     1      33.532 -16.477 -24.376  0.00  0.00    +0.015 C 
ATOM     23  C   UNL     1      34.221 -18.625 -22.839  0.00  0.00    +0.225 C 
ATOM     24  C   UNL     1      33.267 -17.784 -24.752  0.00  0.00    +0.102 C 
BRANCH  20  25
ATOM     25  C   UNL     1      34.489 -14.869 -22.703  0.00  0.00    -0.050 C 
BRANCH  25  26
ATOM     26  N   UNL     1      33.295 -14.173 -22.223  0.00  0.00    +0.390 N 
ATOM     27  C   UNL     1      33.275 -14.141 -20.754  0.00  0.00    -0.077 C 
ATOM     28  C   UNL     1      33.229 -12.817 -22.785  0.00  0.00    -0.077 C 
ATOM     29  C   UNL     1      32.008 -13.460 -20.234  0.00  0.00    -0.023 C 
ATOM     30  C   UNL     1      31.961 -12.092 -22.333  0.00  0.00    -0.023 C 
ATOM     31  C   UNL     1      31.856 -12.056 -20.813  0.00  0.00    -0.004 C 
ATOM     32  H   UNL     1      32.471 -14.684 -22.538  0.00  0.00    -0.079 HD
ENDBRANCH  25  26
ENDBRANCH  20  25
ENDBRANCH  18  23
ENDBRANCH   1  18
TORSDOF 11
ENDMDL
MODEL 9
REMARK VINA RESULT:     -11.1      3.618     11.444
REMARK  Name = 5282136
REMARK  11 active torsions:
REMARK  status: ('A' for Active; 'I' for Inactive)
REMARK    1  A    between atoms: C_1  and  C_2
REMARK    2  A    between atoms: C_1  and  O_18
REMARK    3  A    between atoms: C_3  and  C_4
REMARK    4  A    between atoms: C_4  and  N_6
REMARK    5  A    between atoms: C_7  and  C_9
REMARK    6  A    between atoms: C_9  and  S_10
REMARK    7  A    between atoms: S_10  and  C_12
REMARK    8  A    between atoms: C_12  and  C_14
REMARK    9  A    between atoms: O_18  and  C_23
REMARK   10  A    between atoms: C_20  and  C_25
REMARK   11  A    between atoms: C_25  and  N_26
REMARK                            x       y       z     vdW  Elec       q    Type
REMARK                         _______ _______ _______ _____ _____    ______ ____
ROOT
ATOM      1  C   UNL     1      35.182 -19.911 -20.158  0.00  0.00    +0.233 C 
ENDROOT
BRANCH   1   2
ATOM      2  C   UNL     1      36.231 -18.967 -20.648  0.00  0.00    +0.018 C 
ATOM      3  C   UNL     1      36.006 -18.011 -21.561  0.00  0.00    -0.006 C 
BRANCH   3   4
ATOM      4  C   UNL     1      34.677 -17.773 -22.199  0.00  0.00    +0.116 C 
BRANCH   4   6
ATOM      5  O   UNL     1      33.487 -17.301 -24.785  0.00  0.00    -0.274 OA
ATOM      6  N   UNL     1      34.736 -16.563 -22.969  0.00  0.00    -0.300 N 
ATOM      7  C   UNL     1      34.130 -16.424 -24.212  0.00  0.00    +0.236 C 
ATOM      8  H   UNL     1      35.229 -15.796 -22.599  0.00  0.00    +0.150 HD
BRANCH   7   9
ATOM      9  C   UNL     1      34.312 -15.052 -24.814  0.00  0.00    +0.177 C 
BRANCH   9  10
ATOM     10  S   UNL     1      32.778 -14.093 -24.668  0.00  0.00    +0.059 S 
ATOM     11  O   UNL     1      32.588 -13.357 -25.960  0.00  0.00    -0.255 OA
BRANCH  10  12
ATOM     12  C   UNL     1      33.421 -12.914 -23.457  0.00  0.00    +0.156 C 
BRANCH  12  14
ATOM     13  O   UNL     1      33.877 -14.212 -21.456  0.00  0.00    -0.454 OA
ATOM     14  C   UNL     1      33.047 -13.327 -22.066  0.00  0.00    +0.137 C 
ATOM     15  C   UNL     1      32.003 -12.992 -21.234  0.00  0.00    +0.037 C 
ATOM     16  C   UNL     1      32.206 -13.719 -20.037  0.00  0.00    +0.043 C 
ATOM     17  C   UNL     1      33.359 -14.445 -20.221  0.00  0.00    +0.179 C 
ENDBRANCH  12  14
ENDBRANCH  10  12
ENDBRANCH   9  10
ENDBRANCH   7   9
ENDBRANCH   4   6
ENDBRANCH   3   4
ENDBRANCH   1   2
BRANCH   1  18
ATOM     18  O   UNL     1      35.816 -21.087 -19.671  0.00  0.00    -0.455 OA
BRANCH  18  23
ATOM     19  N   UNL     1      34.126 -22.009 -18.375  0.00  0.00    -0.210 NA
ATOM     20  C   UNL     1      35.830 -22.016 -16.160  0.00  0.00    -0.037 C 
ATOM     21  C   UNL     1      36.280 -21.536 -17.384  0.00  0.00    +0.051 C 
ATOM     22  C   UNL     1      34.529 -22.493 -16.041  0.00  0.00    +0.015 C 
ATOM     23  C   UNL     1      35.396 -21.554 -18.452  0.00  0.00    +0.225 C 
ATOM     24  C   UNL     1      33.724 -22.468 -17.168  0.00  0.00    +0.102 C 
BRANCH  20  25
ATOM     25  C   UNL     1      36.748 -22.021 -14.967  0.00  0.00    -0.050 C 
BRANCH  25  26
ATOM     26  N   UNL     1      36.584 -23.228 -14.156  0.00  0.00    +0.390 N 
ATOM     27  C   UNL     1      37.620 -24.215 -14.491  0.00  0.00    -0.077 C 
ATOM     28  C   UNL     1      36.609 -22.896 -12.726  0.00  0.00    -0.077 C 
ATOM     29  C   UNL     1      37.433 -25.504 -13.689  0.00  0.00    -0.023 C 
ATOM     30  C   UNL     1      36.389 -24.141 -11.865  0.00  0.00    -0.023 C 
ATOM     31  C   UNL     1      37.409 -25.225 -12.189  0.00  0.00    -0.004 C 
ATOM     32  H   UNL     1      35.676 -23.642 -14.368  0.00  0.00    -0.079 HD
ENDBRANCH  25  26
ENDBRANCH  20  25
ENDBRANCH  18  23
ENDBRANCH   1  18
TORSDOF 11
ENDMDL
