MODEL 1
REMARK VINA RESULT:     -12.3      0.000      0.000
REMARK  Name = 10134493
REMARK  5 active torsions:
REMARK  status: ('A' for Active; 'I' for Inactive)
REMARK    1  A    between atoms: N_2  and  C_13
REMARK    2  A    between atoms: C_7  and  C_28
REMARK    3  A    between atoms: C_16  and  C_22
REMARK    4  A    between atoms: N_21  and  O_24
REMARK    5  A    between atoms: N_27  and  C_30
REMARK                            x       y       z     vdW  Elec       q    Type
REMARK                         _______ _______ _______ _____ _____    ______ ____
ROOT
ATOM      1  N   UNL     1      33.126 -14.673 -24.266  0.00  0.00    -0.185 N 
ATOM      2  N   UNL     1      34.811 -16.658 -21.634  0.00  0.00    -0.297 N 
ATOM      3  N   UNL     1      33.183 -15.509 -25.330  0.00  0.00    -0.151 NA
ATOM      4  N   UNL     1      34.319 -17.055 -23.870  0.00  0.00    -0.206 NA
ATOM      5  C   UNL     1      33.634 -14.975 -23.029  0.00  0.00    +0.102 C 
ATOM      6  C   UNL     1      33.402 -13.902 -22.197  0.00  0.00    +0.002 C 
ATOM      7  C   UNL     1      32.727 -12.918 -22.963  0.00  0.00    +0.067 C 
ATOM      8  C   UNL     1      34.271 -16.256 -22.833  0.00  0.00    +0.149 C 
ATOM      9  C   UNL     1      32.571 -13.420 -24.238  0.00  0.00    +0.094 C 
ATOM     10  C   UNL     1      33.772 -13.770 -20.772  0.00  0.00    +0.033 C 
ATOM     11  C   UNL     1      33.771 -16.643 -25.072  0.00  0.00    +0.219 C 
ATOM     12  H   UNL     1      35.168 -15.950 -21.052  0.00  0.00    +0.154 HD
ENDROOT
BRANCH   2  13
ATOM     13  C   UNL     1      34.906 -17.964 -21.160  0.00  0.00    +0.045 C 
ATOM     14  C   UNL     1      36.129 -18.654 -21.152  0.00  0.00    -0.008 C 
ATOM     15  C   UNL     1      33.761 -18.619 -20.676  0.00  0.00    +0.019 C 
ATOM     16  C   UNL     1      33.838 -19.926 -20.197  0.00  0.00    +0.057 C 
ATOM     17  C   UNL     1      36.207 -19.961 -20.673  0.00  0.00    -0.003 C 
ATOM     18  C   UNL     1      35.061 -20.597 -20.195  0.00  0.00    +0.004 C 
ATOM     19  C   UNL     1      37.373 -17.996 -21.657  0.00  0.00    +0.032 C 
BRANCH  16  22
ATOM     20  O   UNL     1      31.558 -20.482 -20.295  0.00  0.00    -0.268 OA
ATOM     21  N   UNL     1      32.776 -21.326 -18.527  0.00  0.00    -0.190 N 
ATOM     22  C   UNL     1      32.644 -20.591 -19.698  0.00  0.00    +0.268 C 
ATOM     23  H   UNL     1      33.635 -21.397 -18.050  0.00  0.00    +0.183 HD
BRANCH  21  24
ATOM     24  O   UNL     1      31.609 -21.962 -18.060  0.00  0.00    -0.263 OA
ATOM     25  C   UNL     1      31.923 -22.641 -16.850  0.00  0.00    +0.206 C 
ENDBRANCH  21  24
ENDBRANCH  16  22
ENDBRANCH   2  13
BRANCH   7  28
ATOM     26  O   UNL     1      32.794 -10.563 -22.941  0.00  0.00    -0.270 OA
ATOM     27  N   UNL     1      31.167 -11.594 -21.674  0.00  0.00    -0.301 N 
ATOM     28  C   UNL     1      32.270 -11.623 -22.544  0.00  0.00    +0.247 C 
ATOM     29  H   UNL     1      30.779 -12.450 -21.383  0.00  0.00    +0.150 HD
BRANCH  27  30
ATOM     30  C   UNL     1      30.571 -10.371 -21.188  0.00  0.00    +0.090 C 
ATOM     31  C   UNL     1      31.127  -9.993 -19.825  0.00  0.00    +0.023 C 
ENDBRANCH  27  30
ENDBRANCH   7  28
TORSDOF 5
ENDMDL
MODEL 2
REMARK VINA RESULT:     -10.5      2.988      9.632
REMARK  Name = 10134493
REMARK  5 active torsions:
REMARK  status: ('A' for Active; 'I' for Inactive)
REMARK    1  A    between atoms: N_2  and  C_13
REMARK    2  A    between atoms: C_7  and  C_28
REMARK    3  A    between atoms: C_16  and  C_22
REMARK    4  A    between atoms: N_21  and  O_24
REMARK    5  A    between atoms: N_27  and  C_30
REMARK                            x       y       z     vdW  Elec       q    Type
REMARK                         _______ _______ _______ _____ _____    ______ ____
ROOT
ATOM      1  N   UNL     1      33.580 -14.950 -24.563  0.00  0.00    -0.185 N 
ATOM      2  N   UNL     1      32.390 -12.144 -22.461  0.00  0.00    -0.297 N 
ATOM      3  N   UNL     1      33.244 -14.532 -25.807  0.00  0.00    -0.151 NA
ATOM      4  N   UNL     1      32.361 -12.555 -24.747  0.00  0.00    -0.206 NA
ATOM      5  C   UNL     1      33.335 -14.228 -23.423  0.00  0.00    +0.102 C 
ATOM      6  C   UNL     1      33.806 -14.951 -22.350  0.00  0.00    +0.002 C 
ATOM      7  C   UNL     1      34.356 -16.153 -22.865  0.00  0.00    +0.067 C 
ATOM      8  C   UNL     1      32.681 -12.947 -23.539  0.00  0.00    +0.149 C 
ATOM      9  C   UNL     1      34.202 -16.126 -24.234  0.00  0.00    +0.094 C 
ATOM     10  C   UNL     1      33.763 -14.575 -20.921  0.00  0.00    +0.033 C 
ATOM     11  C   UNL     1      32.658 -13.368 -25.827  0.00  0.00    +0.219 C 
ATOM     12  H   UNL     1      32.211 -12.601 -21.607  0.00  0.00    +0.154 HD
ENDROOT
BRANCH   2  13
ATOM     13  C   UNL     1      32.322 -10.754 -22.453  0.00  0.00    +0.045 C 
ATOM     14  C   UNL     1      31.333 -10.072 -21.724  0.00  0.00    -0.008 C 
ATOM     15  C   UNL     1      33.256 -10.001 -23.184  0.00  0.00    +0.019 C 
ATOM     16  C   UNL     1      33.204  -8.608 -23.187  0.00  0.00    +0.057 C 
ATOM     17  C   UNL     1      31.280  -8.679 -21.726  0.00  0.00    -0.003 C 
ATOM     18  C   UNL     1      32.215  -7.947 -22.457  0.00  0.00    +0.004 C 
ATOM     19  C   UNL     1      30.320 -10.832 -20.931  0.00  0.00    +0.032 C 
BRANCH  16  22
ATOM     20  O   UNL     1      35.358  -8.228 -24.042  0.00  0.00    -0.268 OA
ATOM     21  N   UNL     1      33.733  -6.669 -24.541  0.00  0.00    -0.190 N 
ATOM     22  C   UNL     1      34.178  -7.843 -23.949  0.00  0.00    +0.268 C 
ATOM     23  H   UNL     1      32.801  -6.361 -24.452  0.00  0.00    +0.183 HD
BRANCH  21  24
ATOM     24  O   UNL     1      34.690  -5.942 -25.274  0.00  0.00    -0.263 OA
ATOM     25  C   UNL     1      34.400  -4.556 -25.142  0.00  0.00    +0.206 C 
ENDBRANCH  21  24
ENDBRANCH  16  22
ENDBRANCH   2  13
BRANCH   7  28
ATOM     26  O   UNL     1      36.178 -17.231 -21.829  0.00  0.00    -0.270 OA
ATOM     27  N   UNL     1      34.134 -18.297 -21.768  0.00  0.00    -0.301 N 
ATOM     28  C   UNL     1      34.970 -17.231 -22.143  0.00  0.00    +0.247 C 
ATOM     29  H   UNL     1      33.187 -18.264 -22.032  0.00  0.00    +0.150 HD
BRANCH  27  30
ATOM     30  C   UNL     1      34.595 -19.440 -21.013  0.00  0.00    +0.090 C 
ATOM     31  C   UNL     1      33.465 -20.056 -20.204  0.00  0.00    +0.023 C 
ENDBRANCH  27  30
ENDBRANCH   7  28
TORSDOF 5
ENDMDL
MODEL 3
REMARK VINA RESULT:     -10.5      3.734      7.619
REMARK  Name = 10134493
REMARK  5 active torsions:
REMARK  status: ('A' for Active; 'I' for Inactive)
REMARK    1  A    between atoms: N_2  and  C_13
REMARK    2  A    between atoms: C_7  and  C_28
REMARK    3  A    between atoms: C_16  and  C_22
REMARK    4  A    between atoms: N_21  and  O_24
REMARK    5  A    between atoms: N_27  and  C_30
REMARK                            x       y       z     vdW  Elec       q    Type
REMARK                         _______ _______ _______ _____ _____    ______ ____
ROOT
ATOM      1  N   UNL     1      32.515 -20.873 -19.159  0.00  0.00    -0.185 N 
ATOM      2  N   UNL     1      35.219 -22.379 -17.125  0.00  0.00    -0.297 N 
ATOM      3  N   UNL     1      31.404 -21.352 -18.549  0.00  0.00    -0.151 NA
ATOM      4  N   UNL     1      32.899 -22.483 -17.034  0.00  0.00    -0.206 NA
ATOM      5  C   UNL     1      33.793 -21.163 -18.754  0.00  0.00    +0.102 C 
ATOM      6  C   UNL     1      34.667 -20.511 -19.596  0.00  0.00    +0.002 C 
ATOM      7  C   UNL     1      33.884 -19.802 -20.543  0.00  0.00    +0.067 C 
ATOM      8  C   UNL     1      33.982 -22.027 -17.613  0.00  0.00    +0.149 C 
ATOM      9  C   UNL     1      32.559 -20.045 -20.249  0.00  0.00    +0.094 C 
ATOM     10  C   UNL     1      36.144 -20.527 -19.550  0.00  0.00    +0.033 C 
ATOM     11  C   UNL     1      31.659 -22.123 -17.530  0.00  0.00    +0.219 C 
ATOM     12  H   UNL     1      35.953 -22.425 -17.779  0.00  0.00    +0.154 HD
ENDROOT
BRANCH   2  13
ATOM     13  C   UNL     1      35.538 -22.676 -15.804  0.00  0.00    +0.045 C 
ATOM     14  C   UNL     1      36.828 -22.455 -15.294  0.00  0.00    -0.008 C 
ATOM     15  C   UNL     1      34.560 -23.210 -14.949  0.00  0.00    +0.019 C 
ATOM     16  C   UNL     1      34.862 -23.514 -13.622  0.00  0.00    +0.057 C 
ATOM     17  C   UNL     1      37.131 -22.759 -13.967  0.00  0.00    -0.003 C 
ATOM     18  C   UNL     1      36.148 -23.288 -13.131  0.00  0.00    +0.004 C 
ATOM     19  C   UNL     1      37.900 -21.889 -16.167  0.00  0.00    +0.032 C 
BRANCH  16  22
ATOM     20  O   UNL     1      34.093 -24.342 -11.563  0.00  0.00    -0.268 OA
ATOM     21  N   UNL     1      32.585 -24.285 -13.308  0.00  0.00    -0.190 N 
ATOM     22  C   UNL     1      33.838 -24.066 -12.749  0.00  0.00    +0.268 C 
ATOM     23  H   UNL     1      32.393 -24.079 -14.251  0.00  0.00    +0.183 HD
BRANCH  21  24
ATOM     24  O   UNL     1      31.607 -24.820 -12.447  0.00  0.00    -0.263 OA
ATOM     25  C   UNL     1      30.329 -24.607 -13.034  0.00  0.00    +0.206 C 
ENDBRANCH  21  24
ENDBRANCH  16  22
ENDBRANCH   2  13
BRANCH   7  28
ATOM     26  O   UNL     1      34.484 -19.404 -22.786  0.00  0.00    -0.270 OA
ATOM     27  N   UNL     1      34.569 -17.620 -21.329  0.00  0.00    -0.301 N 
ATOM     28  C   UNL     1      34.332 -18.974 -21.625  0.00  0.00    +0.247 C 
ATOM     29  H   UNL     1      34.439 -17.315 -20.402  0.00  0.00    +0.150 HD
BRANCH  27  30
ATOM     30  C   UNL     1      34.994 -16.654 -22.315  0.00  0.00    +0.090 C 
ATOM     31  C   UNL     1      34.319 -15.310 -22.095  0.00  0.00    +0.023 C 
ENDBRANCH  27  30
ENDBRANCH   7  28
TORSDOF 5
ENDMDL
MODEL 4
REMARK VINA RESULT:      -9.9      2.939      9.834
REMARK  Name = 10134493
REMARK  5 active torsions:
REMARK  status: ('A' for Active; 'I' for Inactive)
REMARK    1  A    between atoms: N_2  and  C_13
REMARK    2  A    between atoms: C_7  and  C_28
REMARK    3  A    between atoms: C_16  and  C_22
REMARK    4  A    between atoms: N_21  and  O_24
REMARK    5  A    between atoms: N_27  and  C_30
REMARK                            x       y       z     vdW  Elec       q    Type
REMARK                         _______ _______ _______ _____ _____    ______ ____
ROOT
ATOM      1  N   UNL     1      33.449 -14.138 -24.024  0.00  0.00    -0.185 N 
ATOM      2  N   UNL     1      31.906 -11.500 -21.934  0.00  0.00    -0.297 N 
ATOM      3  N   UNL     1      33.166 -13.707 -25.276  0.00  0.00    -0.151 NA
ATOM      4  N   UNL     1      32.063 -11.838 -24.228  0.00  0.00    -0.206 NA
ATOM      5  C   UNL     1      33.072 -13.474 -22.884  0.00  0.00    +0.102 C 
ATOM      6  C   UNL     1      33.524 -14.194 -21.800  0.00  0.00    +0.002 C 
ATOM      7  C   UNL     1      34.199 -15.334 -22.308  0.00  0.00    +0.067 C 
ATOM      8  C   UNL     1      32.330 -12.243 -23.010  0.00  0.00    +0.149 C 
ATOM      9  C   UNL     1      34.136 -15.274 -23.684  0.00  0.00    +0.094 C 
ATOM     10  C   UNL     1      33.355 -13.869 -20.368  0.00  0.00    +0.033 C 
ATOM     11  C   UNL     1      32.495 -12.590 -25.305  0.00  0.00    +0.219 C 
ATOM     12  H   UNL     1      31.705 -11.996 -21.108  0.00  0.00    +0.154 HD
ENDROOT
BRANCH   2  13
ATOM     13  C   UNL     1      31.730 -10.120 -21.893  0.00  0.00    +0.045 C 
ATOM     14  C   UNL     1      31.455  -9.451 -20.688  0.00  0.00    -0.008 C 
ATOM     15  C   UNL     1      31.826  -9.364 -23.074  0.00  0.00    +0.019 C 
ATOM     16  C   UNL     1      31.654  -7.981 -23.051  0.00  0.00    +0.057 C 
ATOM     17  C   UNL     1      31.282  -8.068 -20.665  0.00  0.00    -0.003 C 
ATOM     18  C   UNL     1      31.382  -7.333 -21.846  0.00  0.00    +0.004 C 
ATOM     19  C   UNL     1      31.344 -10.214 -19.408  0.00  0.00    +0.032 C 
BRANCH  16  22
ATOM     20  O   UNL     1      30.776  -7.082 -25.035  0.00  0.00    -0.268 OA
ATOM     21  N   UNL     1      32.996  -6.660 -24.577  0.00  0.00    -0.190 N 
ATOM     22  C   UNL     1      31.757  -7.213 -24.282  0.00  0.00    +0.268 C 
ATOM     23  H   UNL     1      33.774  -6.779 -23.984  0.00  0.00    +0.183 HD
BRANCH  21  24
ATOM     24  O   UNL     1      33.077  -5.920 -25.772  0.00  0.00    -0.263 OA
ATOM     25  C   UNL     1      34.429  -5.521 -25.963  0.00  0.00    +0.206 C 
ENDBRANCH  21  24
ENDBRANCH  16  22
ENDBRANCH   2  13
BRANCH   7  28
ATOM     26  O   UNL     1      34.757 -16.494 -20.335  0.00  0.00    -0.270 OA
ATOM     27  N   UNL     1      35.569 -17.327 -22.325  0.00  0.00    -0.301 N 
ATOM     28  C   UNL     1      34.844 -16.385 -21.575  0.00  0.00    +0.247 C 
ATOM     29  H   UNL     1      35.616 -17.210 -23.301  0.00  0.00    +0.150 HD
BRANCH  27  30
ATOM     30  C   UNL     1      36.248 -18.458 -21.738  0.00  0.00    +0.090 C 
ATOM     31  C   UNL     1      35.259 -19.435 -21.124  0.00  0.00    +0.023 C 
ENDBRANCH  27  30
ENDBRANCH   7  28
TORSDOF 5
ENDMDL
