MODEL 1
REMARK VINA RESULT:     -14.2      0.000      0.000
REMARK  Name = 3822
REMARK  5 active torsions:
REMARK  status: ('A' for Active; 'I' for Inactive)
REMARK    1  A    between atoms: N_1  and  C_17
REMARK    2  A    between atoms: C_2  and  C_9
REMARK    3  A    between atoms: C_9  and  C_11
REMARK    4  A    between atoms: C_17  and  C_18
REMARK    5  A    between atoms: C_18  and  N_21
REMARK                            x       y       z     vdW  Elec       q    Type
REMARK                         _______ _______ _______ _____ _____    ______ ____
ROOT
ATOM      1  N   UNL     1      35.453 -19.929 -20.378  0.00  0.00    +0.388 N 
ATOM      2  C   UNL     1      35.221 -17.801 -22.389  0.00  0.00    +0.058 C 
ATOM      3  C   UNL     1      36.556 -18.186 -21.752  0.00  0.00    -0.015 C 
ATOM      4  C   UNL     1      34.191 -18.921 -22.252  0.00  0.00    -0.015 C 
ATOM      5  C   UNL     1      36.397 -18.803 -20.360  0.00  0.00    -0.077 C 
ATOM      6  C   UNL     1      34.128 -19.494 -20.833  0.00  0.00    -0.077 C 
ATOM      7  H   UNL     1      35.803 -20.625 -21.038  0.00  0.00    -0.080 HD
ENDROOT
BRANCH   2   9
ATOM      8  O   UNL     1      34.701 -16.338 -20.588  0.00  0.00    -0.291 OA
ATOM      9  C   UNL     1      34.685 -16.528 -21.801  0.00  0.00    +0.172 C 
BRANCH   9  11
ATOM     10  F   UNL     1      32.604 -12.629 -25.214  0.00  0.00    -0.204 F 
ATOM     11  C   UNL     1      34.130 -15.487 -22.713  0.00  0.00    +0.035 C 
ATOM     12  C   UNL     1      33.906 -15.814 -24.031  0.00  0.00    +0.005 C 
ATOM     13  C   UNL     1      33.861 -14.237 -22.201  0.00  0.00    +0.005 C 
ATOM     14  C   UNL     1      33.386 -14.839 -24.884  0.00  0.00    +0.030 C 
ATOM     15  C   UNL     1      33.341 -13.263 -23.054  0.00  0.00    +0.030 C 
ATOM     16  C   UNL     1      33.103 -13.563 -24.395  0.00  0.00    +0.140 C 
ENDBRANCH   9  11
ENDBRANCH   2   9
BRANCH   1  17
ATOM     17  C   UNL     1      35.363 -20.542 -19.053  0.00  0.00    -0.052 C 
BRANCH  17  18
ATOM     18  C   UNL     1      34.736 -21.925 -19.152  0.00  0.00    +0.091 C 
BRANCH  18  21
ATOM     19  O   UNL     1      35.273 -22.735 -16.556  0.00  0.00    -0.267 OA
ATOM     20  O   UNL     1      32.010 -21.467 -19.655  0.00  0.00    -0.246 OA
ATOM     21  N   UNL     1      33.703 -22.099 -18.167  0.00  0.00    -0.251 N 
ATOM     22  N   UNL     1      31.407 -22.029 -17.533  0.00  0.00    -0.306 N 
ATOM     23  C   UNL     1      34.106 -22.520 -16.875  0.00  0.00    +0.265 A 
ATOM     24  C   UNL     1      32.352 -21.840 -18.529  0.00  0.00    +0.330 A 
ATOM     25  C   UNL     1      33.037 -22.697 -15.874  0.00  0.00    +0.072 A 
ATOM     26  C   UNL     1      31.717 -22.446 -16.236  0.00  0.00    +0.065 A 
ATOM     27  C   UNL     1      33.339 -23.113 -14.574  0.00  0.00    +0.006 C 
ATOM     28  C   UNL     1      30.689 -22.609 -15.302  0.00  0.00    +0.017 C 
ATOM     29  C   UNL     1      32.313 -23.277 -13.641  0.00  0.00    +0.000 C 
ATOM     30  C   UNL     1      30.990 -23.024 -14.006  0.00  0.00    +0.001 C 
ATOM     31  H   UNL     1      30.463 -21.859 -17.753  0.00  0.00    +0.170 HD
ENDBRANCH  18  21
ENDBRANCH  17  18
ENDBRANCH   1  17
TORSDOF 5
ENDMDL
MODEL 2
REMARK VINA RESULT:     -14.0      0.692      1.816
REMARK  Name = 3822
REMARK  5 active torsions:
REMARK  status: ('A' for Active; 'I' for Inactive)
REMARK    1  A    between atoms: N_1  and  C_17
REMARK    2  A    between atoms: C_2  and  C_9
REMARK    3  A    between atoms: C_9  and  C_11
REMARK    4  A    between atoms: C_17  and  C_18
REMARK    5  A    between atoms: C_18  and  N_21
REMARK                            x       y       z     vdW  Elec       q    Type
REMARK                         _______ _______ _______ _____ _____    ______ ____
ROOT
ATOM      1  N   UNL     1      35.460 -19.964 -20.352  0.00  0.00    +0.388 N 
ATOM      2  C   UNL     1      35.166 -17.862 -22.382  0.00  0.00    +0.058 C 
ATOM      3  C   UNL     1      36.523 -18.255 -21.798  0.00  0.00    -0.015 C 
ATOM      4  C   UNL     1      34.129 -18.966 -22.183  0.00  0.00    -0.015 C 
ATOM      5  C   UNL     1      36.418 -18.850 -20.391  0.00  0.00    -0.077 C 
ATOM      6  C   UNL     1      34.121 -19.518 -20.754  0.00  0.00    -0.077 C 
ATOM      7  H   UNL     1      35.772 -20.674 -21.015  0.00  0.00    -0.080 HD
ENDROOT
BRANCH   2   9
ATOM      8  O   UNL     1      34.715 -16.379 -20.577  0.00  0.00    -0.291 OA
ATOM      9  C   UNL     1      34.672 -16.573 -21.790  0.00  0.00    +0.172 C 
BRANCH   9  11
ATOM     10  F   UNL     1      32.626 -12.637 -25.180  0.00  0.00    -0.204 F 
ATOM     11  C   UNL     1      34.127 -15.523 -22.695  0.00  0.00    +0.035 C 
ATOM     12  C   UNL     1      33.875 -15.847 -24.009  0.00  0.00    +0.005 C 
ATOM     13  C   UNL     1      33.892 -14.266 -22.183  0.00  0.00    +0.005 C 
ATOM     14  C   UNL     1      33.363 -14.864 -24.856  0.00  0.00    +0.030 C 
ATOM     15  C   UNL     1      33.381 -13.282 -23.030  0.00  0.00    +0.030 C 
ATOM     16  C   UNL     1      33.117 -13.581 -24.367  0.00  0.00    +0.140 C 
ENDBRANCH   9  11
ENDBRANCH   2   9
BRANCH   1  17
ATOM     17  C   UNL     1      35.421 -20.557 -19.015  0.00  0.00    -0.052 C 
BRANCH  17  18
ATOM     18  C   UNL     1      34.686 -21.888 -19.049  0.00  0.00    +0.091 C 
BRANCH  18  21
ATOM     19  O   UNL     1      31.924 -21.943 -18.810  0.00  0.00    -0.267 OA
ATOM     20  O   UNL     1      36.042 -22.405 -16.644  0.00  0.00    -0.246 OA
ATOM     21  N   UNL     1      34.023 -22.149 -17.800  0.00  0.00    -0.251 N 
ATOM     22  N   UNL     1      34.106 -22.641 -15.470  0.00  0.00    -0.306 N 
ATOM     23  C   UNL     1      32.606 -22.148 -17.808  0.00  0.00    +0.265 A 
ATOM     24  C   UNL     1      34.807 -22.399 -16.640  0.00  0.00    +0.330 A 
ATOM     25  C   UNL     1      31.937 -22.415 -16.519  0.00  0.00    +0.072 A 
ATOM     26  C   UNL     1      32.711 -22.654 -15.388  0.00  0.00    +0.065 A 
ATOM     27  C   UNL     1      30.542 -22.430 -16.430  0.00  0.00    +0.006 C 
ATOM     28  C   UNL     1      32.097 -22.908 -14.158  0.00  0.00    +0.017 C 
ATOM     29  C   UNL     1      29.929 -22.684 -15.201  0.00  0.00    +0.000 C 
ATOM     30  C   UNL     1      30.705 -22.923 -14.068  0.00  0.00    +0.001 C 
ATOM     31  H   UNL     1      34.621 -22.816 -14.649  0.00  0.00    +0.170 HD
ENDBRANCH  18  21
ENDBRANCH  17  18
ENDBRANCH   1  17
TORSDOF 5
ENDMDL
MODEL 3
REMARK VINA RESULT:     -13.3      0.795      2.004
REMARK  Name = 3822
REMARK  5 active torsions:
REMARK  status: ('A' for Active; 'I' for Inactive)
REMARK    1  A    between atoms: N_1  and  C_17
REMARK    2  A    between atoms: C_2  and  C_9
REMARK    3  A    between atoms: C_9  and  C_11
REMARK    4  A    between atoms: C_17  and  C_18
REMARK    5  A    between atoms: C_18  and  N_21
REMARK                            x       y       z     vdW  Elec       q    Type
REMARK                         _______ _______ _______ _____ _____    ______ ____
ROOT
ATOM      1  N   UNL     1      35.575 -20.101 -20.460  0.00  0.00    +0.388 N 
ATOM      2  C   UNL     1      35.354 -17.890 -22.380  0.00  0.00    +0.058 C 
ATOM      3  C   UNL     1      36.680 -18.283 -21.730  0.00  0.00    -0.015 C 
ATOM      4  C   UNL     1      34.339 -19.030 -22.316  0.00  0.00    -0.015 C 
ATOM      5  C   UNL     1      36.500 -18.963 -20.370  0.00  0.00    -0.077 C 
ATOM      6  C   UNL     1      34.253 -19.666 -20.925  0.00  0.00    -0.077 C 
ATOM      7  H   UNL     1      35.950 -20.762 -21.141  0.00  0.00    -0.080 HD
ENDROOT
BRANCH   2   9
ATOM      8  O   UNL     1      34.802 -16.501 -20.531  0.00  0.00    -0.291 OA
ATOM      9  C   UNL     1      34.786 -16.652 -21.750  0.00  0.00    +0.172 C 
BRANCH   9  11
ATOM     10  F   UNL     1      32.582 -12.708 -25.031  0.00  0.00    -0.204 F 
ATOM     11  C   UNL     1      34.197 -15.599 -22.625  0.00  0.00    +0.035 C 
ATOM     12  C   UNL     1      33.935 -14.360 -22.085  0.00  0.00    +0.005 C 
ATOM     13  C   UNL     1      33.939 -15.904 -23.943  0.00  0.00    +0.005 C 
ATOM     14  C   UNL     1      33.384 -13.374 -22.905  0.00  0.00    +0.030 C 
ATOM     15  C   UNL     1      33.388 -14.919 -24.763  0.00  0.00    +0.030 C 
ATOM     16  C   UNL     1      33.111 -13.654 -24.244  0.00  0.00    +0.140 C 
ENDBRANCH   9  11
ENDBRANCH   2   9
BRANCH   1  17
ATOM     17  C   UNL     1      35.465 -20.773 -19.165  0.00  0.00    -0.052 C 
BRANCH  17  18
ATOM     18  C   UNL     1      34.186 -21.595 -19.103  0.00  0.00    +0.091 C 
BRANCH  18  21
ATOM     19  O   UNL     1      31.621 -22.117 -18.191  0.00  0.00    -0.267 OA
ATOM     20  O   UNL     1      36.184 -22.036 -17.179  0.00  0.00    -0.246 OA
ATOM     21  N   UNL     1      33.918 -22.040 -17.763  0.00  0.00    -0.251 N 
ATOM     22  N   UNL     1      34.678 -22.660 -15.591  0.00  0.00    -0.306 N 
ATOM     23  C   UNL     1      32.563 -22.271 -17.417  0.00  0.00    +0.265 A 
ATOM     24  C   UNL     1      35.006 -22.232 -16.867  0.00  0.00    +0.330 A 
ATOM     25  C   UNL     1      32.301 -22.726 -16.038  0.00  0.00    +0.072 A 
ATOM     26  C   UNL     1      33.370 -22.907 -15.166  0.00  0.00    +0.065 A 
ATOM     27  C   UNL     1      30.995 -22.975 -15.606  0.00  0.00    +0.006 C 
ATOM     28  C   UNL     1      33.142 -23.337 -13.856  0.00  0.00    +0.017 C 
ATOM     29  C   UNL     1      30.767 -23.404 -14.297  0.00  0.00    +0.000 C 
ATOM     30  C   UNL     1      31.839 -23.586 -13.424  0.00  0.00    +0.001 C 
ATOM     31  H   UNL     1      35.409 -22.801 -14.947  0.00  0.00    +0.170 HD
ENDBRANCH  18  21
ENDBRANCH  17  18
ENDBRANCH   1  17
TORSDOF 5
ENDMDL
MODEL 4
REMARK VINA RESULT:     -13.1      1.134      1.533
REMARK  Name = 3822
REMARK  5 active torsions:
REMARK  status: ('A' for Active; 'I' for Inactive)
REMARK    1  A    between atoms: N_1  and  C_17
REMARK    2  A    between atoms: C_2  and  C_9
REMARK    3  A    between atoms: C_9  and  C_11
REMARK    4  A    between atoms: C_17  and  C_18
REMARK    5  A    between atoms: C_18  and  N_21
REMARK                            x       y       z     vdW  Elec       q    Type
REMARK                         _______ _______ _______ _____ _____    ______ ____
ROOT
ATOM      1  N   UNL     1      35.564 -19.998 -20.537  0.00  0.00    +0.388 N 
ATOM      2  C   UNL     1      35.236 -17.816 -22.476  0.00  0.00    +0.058 C 
ATOM      3  C   UNL     1      36.597 -18.202 -21.895  0.00  0.00    -0.015 C 
ATOM      4  C   UNL     1      34.226 -18.954 -22.336  0.00  0.00    -0.015 C 
ATOM      5  C   UNL     1      36.493 -18.861 -20.517  0.00  0.00    -0.077 C 
ATOM      6  C   UNL     1      34.218 -19.568 -20.934  0.00  0.00    -0.077 C 
ATOM      7  H   UNL     1      35.899 -20.670 -21.228  0.00  0.00    -0.080 HD
ENDROOT
BRANCH   2   9
ATOM      8  O   UNL     1      34.732 -16.426 -20.613  0.00  0.00    -0.291 OA
ATOM      9  C   UNL     1      34.705 -16.568 -21.833  0.00  0.00    +0.172 C 
BRANCH   9  11
ATOM     10  F   UNL     1      32.588 -12.540 -25.069  0.00  0.00    -0.204 F 
ATOM     11  C   UNL     1      34.141 -15.493 -22.697  0.00  0.00    +0.035 C 
ATOM     12  C   UNL     1      33.879 -15.775 -24.019  0.00  0.00    +0.005 C 
ATOM     13  C   UNL     1      33.900 -14.256 -22.140  0.00  0.00    +0.005 C 
ATOM     14  C   UNL     1      33.350 -14.769 -24.827  0.00  0.00    +0.030 C 
ATOM     15  C   UNL     1      33.371 -13.250 -22.949  0.00  0.00    +0.030 C 
ATOM     16  C   UNL     1      33.096 -13.506 -24.292  0.00  0.00    +0.140 C 
ENDBRANCH   9  11
ENDBRANCH   2   9
BRANCH   1  17
ATOM     17  C   UNL     1      35.527 -20.651 -19.227  0.00  0.00    -0.052 C 
BRANCH  17  18
ATOM     18  C   UNL     1      34.356 -21.619 -19.153  0.00  0.00    +0.091 C 
BRANCH  18  21
ATOM     19  O   UNL     1      36.415 -21.889 -17.316  0.00  0.00    -0.267 OA
ATOM     20  O   UNL     1      31.826 -22.278 -18.125  0.00  0.00    -0.246 OA
ATOM     21  N   UNL     1      34.135 -22.066 -17.805  0.00  0.00    -0.251 N 
ATOM     22  N   UNL     1      32.668 -22.800 -16.076  0.00  0.00    -0.306 N 
ATOM     23  C   UNL     1      35.270 -22.164 -16.962  0.00  0.00    +0.265 A 
ATOM     24  C   UNL     1      32.811 -22.374 -17.387  0.00  0.00    +0.330 A 
ATOM     25  C   UNL     1      35.030 -22.626 -15.581  0.00  0.00    +0.072 A 
ATOM     26  C   UNL     1      33.733 -22.930 -15.180  0.00  0.00    +0.065 A 
ATOM     27  C   UNL     1      36.091 -22.759 -14.679  0.00  0.00    +0.006 C 
ATOM     28  C   UNL     1      33.485 -23.370 -13.877  0.00  0.00    +0.017 C 
ATOM     29  C   UNL     1      35.843 -23.198 -13.377  0.00  0.00    +0.000 C 
ATOM     30  C   UNL     1      34.542 -23.502 -12.977  0.00  0.00    +0.001 C 
ATOM     31  H   UNL     1      31.764 -23.022 -15.757  0.00  0.00    +0.170 HD
ENDBRANCH  18  21
ENDBRANCH  17  18
ENDBRANCH   1  17
TORSDOF 5
ENDMDL
MODEL 5
REMARK VINA RESULT:     -12.5      4.088      9.615
REMARK  Name = 3822
REMARK  5 active torsions:
REMARK  status: ('A' for Active; 'I' for Inactive)
REMARK    1  A    between atoms: N_1  and  C_17
REMARK    2  A    between atoms: C_2  and  C_9
REMARK    3  A    between atoms: C_9  and  C_11
REMARK    4  A    between atoms: C_17  and  C_18
REMARK    5  A    between atoms: C_18  and  N_21
REMARK                            x       y       z     vdW  Elec       q    Type
REMARK                         _______ _______ _______ _____ _____    ______ ____
ROOT
ATOM      1  N   UNL     1      34.461 -16.821 -23.245  0.00  0.00    +0.388 N 
ATOM      2  C   UNL     1      35.027 -19.410 -21.978  0.00  0.00    +0.058 C 
ATOM      3  C   UNL     1      34.478 -19.294 -23.400  0.00  0.00    -0.015 C 
ATOM      4  C   UNL     1      35.687 -18.109 -21.525  0.00  0.00    -0.015 C 
ATOM      5  C   UNL     1      33.683 -18.006 -23.630  0.00  0.00    -0.077 C 
ATOM      6  C   UNL     1      34.831 -16.876 -21.826  0.00  0.00    -0.077 C 
ATOM      7  H   UNL     1      35.319 -16.812 -23.797  0.00  0.00    -0.080 HD
ENDROOT
BRANCH   2   9
ATOM      8  O   UNL     1      32.775 -19.525 -21.222  0.00  0.00    -0.291 OA
ATOM      9  C   UNL     1      33.951 -19.810 -21.011  0.00  0.00    +0.172 C 
BRANCH   9  11
ATOM     10  F   UNL     1      35.362 -22.634 -16.405  0.00  0.00    -0.204 F 
ATOM     11  C   UNL     1      34.327 -20.564 -19.781  0.00  0.00    +0.035 C 
ATOM     12  C   UNL     1      33.349 -21.261 -19.107  0.00  0.00    +0.005 C 
ATOM     13  C   UNL     1      35.640 -20.536 -19.365  0.00  0.00    +0.005 C 
ATOM     14  C   UNL     1      33.702 -21.966 -17.957  0.00  0.00    +0.030 C 
ATOM     15  C   UNL     1      35.992 -21.242 -18.215  0.00  0.00    +0.030 C 
ATOM     16  C   UNL     1      35.024 -21.957 -17.510  0.00  0.00    +0.140 C 
ENDBRANCH   9  11
ENDBRANCH   2   9
BRANCH   1  17
ATOM     17  C   UNL     1      33.707 -15.600 -23.530  0.00  0.00    -0.052 C 
BRANCH  17  18
ATOM     18  C   UNL     1      34.480 -14.379 -23.056  0.00  0.00    +0.091 C 
BRANCH  18  21
ATOM     19  O   UNL     1      33.362 -12.157 -24.280  0.00  0.00    -0.267 OA
ATOM     20  O   UNL     1      33.767 -14.663 -20.354  0.00  0.00    -0.246 OA
ATOM     21  N   UNL     1      33.624 -13.460 -22.356  0.00  0.00    -0.251 N 
ATOM     22  N   UNL     1      32.497 -12.774 -20.372  0.00  0.00    -0.306 N 
ATOM     23  C   UNL     1      33.116 -12.361 -23.093  0.00  0.00    +0.265 A 
ATOM     24  C   UNL     1      33.327 -13.699 -20.986  0.00  0.00    +0.330 A 
ATOM     25  C   UNL     1      32.240 -11.424 -22.363  0.00  0.00    +0.072 A 
ATOM     26  C   UNL     1      31.957 -11.661 -21.021  0.00  0.00    +0.065 A 
ATOM     27  C   UNL     1      31.696 -10.308 -23.007  0.00  0.00    +0.006 C 
ATOM     28  C   UNL     1      31.130 -10.785 -20.313  0.00  0.00    +0.017 C 
ATOM     29  C   UNL     1      30.870  -9.433 -22.299  0.00  0.00    +0.000 C 
ATOM     30  C   UNL     1      30.588  -9.672 -20.954  0.00  0.00    +0.001 C 
ATOM     31  H   UNL     1      32.274 -12.911 -19.423  0.00  0.00    +0.170 HD
ENDBRANCH  18  21
ENDBRANCH  17  18
ENDBRANCH   1  17
TORSDOF 5
ENDMDL
MODEL 6
REMARK VINA RESULT:     -12.3      5.584      9.162
REMARK  Name = 3822
REMARK  5 active torsions:
REMARK  status: ('A' for Active; 'I' for Inactive)
REMARK    1  A    between atoms: N_1  and  C_17
REMARK    2  A    between atoms: C_2  and  C_9
REMARK    3  A    between atoms: C_9  and  C_11
REMARK    4  A    between atoms: C_17  and  C_18
REMARK    5  A    between atoms: C_18  and  N_21
REMARK                            x       y       z     vdW  Elec       q    Type
REMARK                         _______ _______ _______ _____ _____    ______ ____
ROOT
ATOM      1  N   UNL     1      31.895 -11.647 -22.032  0.00  0.00    +0.388 N 
ATOM      2  C   UNL     1      30.765  -8.940 -21.884  0.00  0.00    +0.058 C 
ATOM      3  C   UNL     1      31.319  -9.529 -23.181  0.00  0.00    -0.015 C 
ATOM      4  C   UNL     1      30.417 -10.035 -20.876  0.00  0.00    -0.015 C 
ATOM      5  C   UNL     1      32.384 -10.603 -22.943  0.00  0.00    -0.077 C 
ATOM      6  C   UNL     1      31.529 -11.077 -20.730  0.00  0.00    -0.077 C 
ATOM      7  H   UNL     1      31.058 -12.061 -22.444  0.00  0.00    -0.080 HD
ENDROOT
BRANCH   2   9
ATOM      8  O   UNL     1      32.020  -8.022 -20.086  0.00  0.00    -0.291 OA
ATOM      9  C   UNL     1      31.727  -7.961 -21.277  0.00  0.00    +0.172 C 
BRANCH   9  11
ATOM     10  F   UNL     1      33.979  -4.010 -24.517  0.00  0.00    -0.204 F 
ATOM     11  C   UNL     1      32.329  -6.907 -22.141  0.00  0.00    +0.035 C 
ATOM     12  C   UNL     1      33.658  -7.011 -22.484  0.00  0.00    +0.005 C 
ATOM     13  C   UNL     1      31.531  -5.867 -22.566  0.00  0.00    +0.005 C 
ATOM     14  C   UNL     1      34.220  -6.023 -23.294  0.00  0.00    +0.030 C 
ATOM     15  C   UNL     1      32.094  -4.880 -23.376  0.00  0.00    +0.030 C 
ATOM     16  C   UNL     1      33.438  -4.958 -23.739  0.00  0.00    +0.140 C 
ENDBRANCH   9  11
ENDBRANCH   2   9
BRANCH   1  17
ATOM     17  C   UNL     1      32.904 -12.694 -21.867  0.00  0.00    -0.052 C 
BRANCH  17  18
ATOM     18  C   UNL     1      33.465 -13.106 -23.220  0.00  0.00    +0.091 C 
BRANCH  18  21
ATOM     19  O   UNL     1      34.324 -14.535 -21.005  0.00  0.00    -0.267 OA
ATOM     20  O   UNL     1      33.149 -14.675 -25.528  0.00  0.00    -0.246 OA
ATOM     21  N   UNL     1      33.729 -14.518 -23.266  0.00  0.00    -0.251 N 
ATOM     22  N   UNL     1      33.811 -16.575 -24.465  0.00  0.00    -0.306 N 
ATOM     23  C   UNL     1      34.166 -15.133 -22.066  0.00  0.00    +0.265 A 
ATOM     24  C   UNL     1      33.536 -15.217 -24.489  0.00  0.00    +0.330 A 
ATOM     25  C   UNL     1      34.436 -16.583 -22.127  0.00  0.00    +0.072 A 
ATOM     26  C   UNL     1      34.249 -17.260 -23.329  0.00  0.00    +0.065 A 
ATOM     27  C   UNL     1      34.874 -17.275 -20.995  0.00  0.00    +0.006 C 
ATOM     28  C   UNL     1      34.500 -18.633 -23.407  0.00  0.00    +0.017 C 
ATOM     29  C   UNL     1      35.125 -18.646 -21.073  0.00  0.00    +0.000 C 
ATOM     30  C   UNL     1      34.937 -19.324 -22.278  0.00  0.00    +0.001 C 
ATOM     31  H   UNL     1      33.688 -17.087 -25.297  0.00  0.00    +0.170 HD
ENDBRANCH  18  21
ENDBRANCH  17  18
ENDBRANCH   1  17
TORSDOF 5
ENDMDL
MODEL 7
REMARK VINA RESULT:     -12.0      5.806      9.631
REMARK  Name = 3822
REMARK  5 active torsions:
REMARK  status: ('A' for Active; 'I' for Inactive)
REMARK    1  A    between atoms: N_1  and  C_17
REMARK    2  A    between atoms: C_2  and  C_9
REMARK    3  A    between atoms: C_9  and  C_11
REMARK    4  A    between atoms: C_17  and  C_18
REMARK    5  A    between atoms: C_18  and  N_21
REMARK                            x       y       z     vdW  Elec       q    Type
REMARK                         _______ _______ _______ _____ _____    ______ ____
ROOT
ATOM      1  N   UNL     1      32.201 -11.179 -22.262  0.00  0.00    +0.388 N 
ATOM      2  C   UNL     1      31.639  -8.316 -21.930  0.00  0.00    +0.058 C 
ATOM      3  C   UNL     1      31.067  -9.379 -20.992  0.00  0.00    -0.015 C 
ATOM      4  C   UNL     1      32.863  -8.833 -22.683  0.00  0.00    -0.015 C 
ATOM      5  C   UNL     1      30.933 -10.752 -21.656  0.00  0.00    -0.077 C 
ATOM      6  C   UNL     1      32.642 -10.224 -23.285  0.00  0.00    -0.077 C 
ATOM      7  H   UNL     1      32.909 -11.208 -21.528  0.00  0.00    -0.080 HD
ENDROOT
BRANCH   2   9
ATOM      8  O   UNL     1      29.563  -8.464 -23.081  0.00  0.00    -0.291 OA
ATOM      9  C   UNL     1      30.599  -7.831 -22.898  0.00  0.00    +0.172 C 
BRANCH   9  11
ATOM     10  F   UNL     1      31.498  -3.077 -25.686  0.00  0.00    -0.204 F 
ATOM     11  C   UNL     1      30.840  -6.562 -23.643  0.00  0.00    +0.035 C 
ATOM     12  C   UNL     1      31.361  -6.630 -24.915  0.00  0.00    +0.005 C 
ATOM     13  C   UNL     1      30.529  -5.368 -23.030  0.00  0.00    +0.005 C 
ATOM     14  C   UNL     1      31.586  -5.442 -25.612  0.00  0.00    +0.030 C 
ATOM     15  C   UNL     1      30.754  -4.180 -23.726  0.00  0.00    +0.030 C 
ATOM     16  C   UNL     1      31.282  -4.217 -25.017  0.00  0.00    +0.140 C 
ENDBRANCH   9  11
ENDBRANCH   2   9
BRANCH   1  17
ATOM     17  C   UNL     1      32.067 -12.518 -22.836  0.00  0.00    -0.052 C 
BRANCH  17  18
ATOM     18  C   UNL     1      33.309 -12.875 -23.639  0.00  0.00    +0.091 C 
BRANCH  18  21
ATOM     19  O   UNL     1      34.195 -14.110 -21.321  0.00  0.00    -0.267 OA
ATOM     20  O   UNL     1      32.991 -14.631 -25.808  0.00  0.00    -0.246 OA
ATOM     21  N   UNL     1      33.585 -14.284 -23.571  0.00  0.00    -0.251 N 
ATOM     22  N   UNL     1      33.677 -16.433 -24.598  0.00  0.00    -0.306 N 
ATOM     23  C   UNL     1      34.036 -14.795 -22.328  0.00  0.00    +0.265 A 
ATOM     24  C   UNL     1      33.391 -15.084 -24.731  0.00  0.00    +0.330 A 
ATOM     25  C   UNL     1      34.318 -16.243 -22.272  0.00  0.00    +0.072 A 
ATOM     26  C   UNL     1      34.129 -17.018 -23.412  0.00  0.00    +0.065 A 
ATOM     27  C   UNL     1      34.770 -16.836 -21.089  0.00  0.00    +0.006 C 
ATOM     28  C   UNL     1      34.392 -18.391 -23.379  0.00  0.00    +0.017 C 
ATOM     29  C   UNL     1      35.033 -18.207 -21.057  0.00  0.00    +0.000 C 
ATOM     30  C   UNL     1      34.843 -18.982 -22.200  0.00  0.00    +0.001 C 
ATOM     31  H   UNL     1      33.554 -17.012 -25.384  0.00  0.00    +0.170 HD
ENDBRANCH  18  21
ENDBRANCH  17  18
ENDBRANCH   1  17
TORSDOF 5
ENDMDL
MODEL 8
REMARK VINA RESULT:     -11.7      4.926     10.213
REMARK  Name = 3822
REMARK  5 active torsions:
REMARK  status: ('A' for Active; 'I' for Inactive)
REMARK    1  A    between atoms: N_1  and  C_17
REMARK    2  A    between atoms: C_2  and  C_9
REMARK    3  A    between atoms: C_9  and  C_11
REMARK    4  A    between atoms: C_17  and  C_18
REMARK    5  A    between atoms: C_18  and  N_21
REMARK                            x       y       z     vdW  Elec       q    Type
REMARK                         _______ _______ _______ _____ _____    ______ ____
ROOT
ATOM      1  N   UNL     1      34.085 -22.778 -13.440  0.00  0.00    +0.388 N 
ATOM      2  C   UNL     1      36.247 -23.457 -11.572  0.00  0.00    +0.058 C 
ATOM      3  C   UNL     1      36.475 -22.598 -12.815  0.00  0.00    -0.015 C 
ATOM      4  C   UNL     1      34.773 -23.480 -11.170  0.00  0.00    -0.015 C 
ATOM      5  C   UNL     1      35.466 -22.880 -13.931  0.00  0.00    -0.077 C 
ATOM      6  C   UNL     1      33.841 -23.738 -12.357  0.00  0.00    -0.077 C 
ATOM      7  H   UNL     1      33.949 -21.838 -13.068  0.00  0.00    -0.080 HD
ENDROOT
BRANCH   2   9
ATOM      8  O   UNL     1      36.348 -25.781 -11.078  0.00  0.00    -0.291 OA
ATOM      9  C   UNL     1      36.750 -24.856 -11.779  0.00  0.00    +0.172 C 
BRANCH   9  11
ATOM     10  F   UNL     1      40.501 -25.824 -15.800  0.00  0.00    -0.204 F 
ATOM     11  C   UNL     1      37.752 -25.114 -12.852  0.00  0.00    +0.035 C 
ATOM     12  C   UNL     1      38.953 -24.442 -12.812  0.00  0.00    +0.005 C 
ATOM     13  C   UNL     1      37.438 -26.016 -13.845  0.00  0.00    +0.005 C 
ATOM     14  C   UNL     1      39.890 -24.684 -13.816  0.00  0.00    +0.030 C 
ATOM     15  C   UNL     1      38.376 -26.258 -14.849  0.00  0.00    +0.030 C 
ATOM     16  C   UNL     1      39.601 -25.592 -14.836  0.00  0.00    +0.140 C 
ENDBRANCH   9  11
ENDBRANCH   2   9
BRANCH   1  17
ATOM     17  C   UNL     1      33.137 -22.991 -14.535  0.00  0.00    -0.052 C 
BRANCH  17  18
ATOM     18  C   UNL     1      33.869 -23.453 -15.786  0.00  0.00    +0.091 C 
BRANCH  18  21
ATOM     19  O   UNL     1      35.790 -22.198 -17.341  0.00  0.00    -0.267 OA
ATOM     20  O   UNL     1      31.235 -22.990 -16.644  0.00  0.00    -0.246 OA
ATOM     21  N   UNL     1      33.532 -22.635 -16.918  0.00  0.00    -0.251 N 
ATOM     22  N   UNL     1      31.909 -21.665 -18.368  0.00  0.00    -0.306 N 
ATOM     23  C   UNL     1      34.606 -22.046 -17.632  0.00  0.00    +0.265 A 
ATOM     24  C   UNL     1      32.164 -22.466 -17.267  0.00  0.00    +0.330 A 
ATOM     25  C   UNL     1      34.247 -21.207 -18.792  0.00  0.00    +0.072 A 
ATOM     26  C   UNL     1      32.905 -21.042 -19.124  0.00  0.00    +0.065 A 
ATOM     27  C   UNL     1      35.238 -20.581 -19.554  0.00  0.00    +0.006 C 
ATOM     28  C   UNL     1      32.545 -20.251 -20.219  0.00  0.00    +0.017 C 
ATOM     29  C   UNL     1      34.878 -19.791 -20.647  0.00  0.00    +0.000 C 
ATOM     30  C   UNL     1      33.534 -19.627 -20.978  0.00  0.00    +0.001 C 
ATOM     31  H   UNL     1      30.971 -21.527 -18.633  0.00  0.00    +0.170 HD
ENDBRANCH  18  21
ENDBRANCH  17  18
ENDBRANCH   1  17
TORSDOF 5
ENDMDL
MODEL 9
REMARK VINA RESULT:     -11.5      6.451     10.213
REMARK  Name = 3822
REMARK  5 active torsions:
REMARK  status: ('A' for Active; 'I' for Inactive)
REMARK    1  A    between atoms: N_1  and  C_17
REMARK    2  A    between atoms: C_2  and  C_9
REMARK    3  A    between atoms: C_9  and  C_11
REMARK    4  A    between atoms: C_17  and  C_18
REMARK    5  A    between atoms: C_18  and  N_21
REMARK                            x       y       z     vdW  Elec       q    Type
REMARK                         _______ _______ _______ _____ _____    ______ ____
ROOT
ATOM      1  N   UNL     1      31.102 -10.135 -21.771  0.00  0.00    +0.388 N 
ATOM      2  C   UNL     1      31.202  -7.202 -21.662  0.00  0.00    +0.058 C 
ATOM      3  C   UNL     1      30.866  -7.965 -22.943  0.00  0.00    -0.015 C 
ATOM      4  C   UNL     1      30.981  -8.065 -20.421  0.00  0.00    -0.015 C 
ATOM      5  C   UNL     1      31.465  -9.374 -22.973  0.00  0.00    -0.077 C 
ATOM      6  C   UNL     1      31.588  -9.464 -20.559  0.00  0.00    -0.077 C 
ATOM      7  H   UNL     1      30.084 -10.183 -21.720  0.00  0.00    -0.080 HD
ENDROOT
BRANCH   2   9
ATOM      8  O   UNL     1      33.307  -6.694 -20.679  0.00  0.00    -0.291 OA
ATOM      9  C   UNL     1      32.612  -6.686 -21.691  0.00  0.00    +0.172 C 
BRANCH   9  11
ATOM     10  F   UNL     1      34.676  -4.711 -26.489  0.00  0.00    -0.204 F 
ATOM     11  C   UNL     1      33.164  -6.159 -22.972  0.00  0.00    +0.035 C 
ATOM     12  C   UNL     1      34.013  -6.957 -23.704  0.00  0.00    +0.005 C 
ATOM     13  C   UNL     1      32.801  -4.892 -23.375  0.00  0.00    +0.005 C 
ATOM     14  C   UNL     1      34.529  -6.464 -24.903  0.00  0.00    +0.030 C 
ATOM     15  C   UNL     1      33.317  -4.399 -24.574  0.00  0.00    +0.030 C 
ATOM     16  C   UNL     1      34.181  -5.184 -25.338  0.00  0.00    +0.140 C 
ENDBRANCH   9  11
ENDBRANCH   2   9
BRANCH   1  17
ATOM     17  C   UNL     1      31.632 -11.497 -21.848  0.00  0.00    -0.052 C 
BRANCH  17  18
ATOM     18  C   UNL     1      32.729 -11.578 -22.899  0.00  0.00    +0.091 C 
BRANCH  18  21
ATOM     19  O   UNL     1      33.834 -13.253 -20.987  0.00  0.00    -0.267 OA
ATOM     20  O   UNL     1      32.355 -12.802 -25.399  0.00  0.00    -0.246 OA
ATOM     21  N   UNL     1      33.082 -12.943 -23.179  0.00  0.00    -0.251 N 
ATOM     22  N   UNL     1      33.214 -14.785 -24.685  0.00  0.00    -0.306 N 
ATOM     23  C   UNL     1      33.642 -13.696 -22.117  0.00  0.00    +0.265 A 
ATOM     24  C   UNL     1      32.850 -13.464 -24.482  0.00  0.00    +0.330 A 
ATOM     25  C   UNL     1      34.002 -15.096 -22.418  0.00  0.00    +0.072 A 
ATOM     26  C   UNL     1      33.776 -15.597 -23.696  0.00  0.00    +0.065 A 
ATOM     27  C   UNL     1      34.564 -15.914 -21.434  0.00  0.00    +0.006 C 
ATOM     28  C   UNL     1      34.111 -16.920 -24.001  0.00  0.00    +0.017 C 
ATOM     29  C   UNL     1      34.899 -17.235 -21.738  0.00  0.00    +0.000 C 
ATOM     30  C   UNL     1      34.672 -17.736 -23.020  0.00  0.00    +0.001 C 
ATOM     31  H   UNL     1      33.068 -15.174 -25.577  0.00  0.00    +0.170 HD
ENDBRANCH  18  21
ENDBRANCH  17  18
ENDBRANCH   1  17
TORSDOF 5
ENDMDL
