MODEL 1
REMARK VINA RESULT:     -12.0      0.000      0.000
REMARK  Name = 21071390
REMARK  9 active torsions:
REMARK  status: ('A' for Active; 'I' for Inactive)
REMARK    1  A    between atoms: N_1  and  C_4
REMARK    2  A    between atoms: N_1  and  C_17
REMARK    3  A    between atoms: C_4  and  C_5
REMARK    4  A    between atoms: C_5  and  C_8
REMARK    5  A    between atoms: C_17  and  C_18
REMARK    6  A    between atoms: C_21  and  O_24
REMARK    7  A    between atoms: O_24  and  C_25
REMARK    8  A    between atoms: C_25  and  C_28
REMARK    9  A    between atoms: C_28  and  C_31
REMARK                            x       y       z     vdW  Elec       q    Type
REMARK                         _______ _______ _______ _____ _____    ______ ____
ROOT
ATOM      1  N   UNL     1      34.632 -18.576 -20.759  0.00  0.00    +0.387 N 
ATOM      2  H   UNL     1      33.744 -18.426 -20.280  0.00  0.00    -0.084 HD
ATOM      3  H   UNL     1      35.354 -17.967 -20.372  0.00  0.00    -0.084 HD
ENDROOT
BRANCH   1   4
ATOM      4  C   UNL     1      34.470 -18.267 -22.175  0.00  0.00    -0.076 C 
BRANCH   4   5
ATOM      5  C   UNL     1      35.250 -17.002 -22.579  0.00  0.00    +0.004 C 
BRANCH   5   8
ATOM      6  F   UNL     1      31.804 -11.374 -21.487  0.00  0.00    -0.204 F 
ATOM      7  N   UNL     1      33.205 -14.799 -24.653  0.00  0.00    -0.312 N 
ATOM      8  C   UNL     1      34.390 -15.962 -23.179  0.00  0.00    -0.008 C 
ATOM      9  C   UNL     1      33.827 -14.838 -22.511  0.00  0.00    +0.011 C 
ATOM     10  C   UNL     1      33.089 -14.126 -23.458  0.00  0.00    +0.050 C 
ATOM     11  C   UNL     1      33.989 -15.910 -24.495  0.00  0.00    +0.057 C 
ATOM     12  C   UNL     1      33.876 -14.358 -21.188  0.00  0.00    +0.003 C 
ATOM     13  C   UNL     1      32.394 -12.952 -23.146  0.00  0.00    +0.044 C 
ATOM     14  C   UNL     1      33.185 -13.185 -20.861  0.00  0.00    +0.030 C 
ATOM     15  C   UNL     1      32.456 -12.495 -21.827  0.00  0.00    +0.141 C 
ATOM     16  H   UNL     1      32.784 -14.523 -25.499  0.00  0.00    +0.152 HD
ENDBRANCH   5   8
ENDBRANCH   4   5
ENDBRANCH   1   4
BRANCH   1  17
ATOM     17  C   UNL     1      35.044 -19.960 -20.574  0.00  0.00    -0.054 C 
BRANCH  17  18
ATOM     18  C   UNL     1      34.142 -20.690 -19.614  0.00  0.00    -0.041 C 
ATOM     19  C   UNL     1      34.691 -21.526 -18.642  0.00  0.00    +0.031 C 
ATOM     20  C   UNL     1      32.759 -20.530 -19.698  0.00  0.00    -0.006 C 
ATOM     21  C   UNL     1      33.855 -22.202 -17.753  0.00  0.00    +0.138 C 
ATOM     22  C   UNL     1      31.924 -21.206 -18.809  0.00  0.00    +0.003 C 
ATOM     23  C   UNL     1      32.472 -22.042 -17.836  0.00  0.00    +0.037 C 
BRANCH  21  24
ATOM     24  O   UNL     1      34.389 -23.018 -16.803  0.00  0.00    -0.469 OA
BRANCH  24  25
ATOM     25  C   UNL     1      34.721 -22.423 -15.549  0.00  0.00    +0.277 C 
BRANCH  25  28
ATOM     26  F   UNL     1      36.345 -24.099 -15.296  0.00  0.00    -0.194 F 
ATOM     27  F   UNL     1      36.426 -22.394 -13.937  0.00  0.00    -0.194 F 
ATOM     28  C   UNL     1      36.162 -22.756 -15.218  0.00  0.00    +0.363 C 
BRANCH  28  31
ATOM     29  F   UNL     1      38.399 -22.526 -15.862  0.00  0.00    -0.192 F 
ATOM     30  F   UNL     1      37.156 -20.739 -15.903  0.00  0.00    -0.192 F 
ATOM     31  C   UNL     1      37.149 -22.074 -16.135  0.00  0.00    +0.382 C 
ENDBRANCH  28  31
ENDBRANCH  25  28
ENDBRANCH  24  25
ENDBRANCH  21  24
ENDBRANCH  17  18
ENDBRANCH   1  17
TORSDOF 9
ENDMDL
MODEL 2
REMARK VINA RESULT:     -12.0      1.251      1.845
REMARK  Name = 21071390
REMARK  9 active torsions:
REMARK  status: ('A' for Active; 'I' for Inactive)
REMARK    1  A    between atoms: N_1  and  C_4
REMARK    2  A    between atoms: N_1  and  C_17
REMARK    3  A    between atoms: C_4  and  C_5
REMARK    4  A    between atoms: C_5  and  C_8
REMARK    5  A    between atoms: C_17  and  C_18
REMARK    6  A    between atoms: C_21  and  O_24
REMARK    7  A    between atoms: O_24  and  C_25
REMARK    8  A    between atoms: C_25  and  C_28
REMARK    9  A    between atoms: C_28  and  C_31
REMARK                            x       y       z     vdW  Elec       q    Type
REMARK                         _______ _______ _______ _____ _____    ______ ____
ROOT
ATOM      1  N   UNL     1      36.066 -19.251 -20.460  0.00  0.00    +0.387 N 
ATOM      2  H   UNL     1      36.192 -18.978 -19.486  0.00  0.00    -0.084 HD
ATOM      3  H   UNL     1      36.806 -19.891 -20.750  0.00  0.00    -0.084 HD
ENDROOT
BRANCH   1   4
ATOM      4  C   UNL     1      36.122 -18.061 -21.302  0.00  0.00    -0.076 C 
BRANCH   4   5
ATOM      5  C   UNL     1      34.954 -17.100 -21.014  0.00  0.00    +0.004 C 
BRANCH   5   8
ATOM      6  F   UNL     1      32.515 -11.343 -23.392  0.00  0.00    -0.204 F 
ATOM      7  N   UNL     1      33.985 -15.892 -24.322  0.00  0.00    -0.312 N 
ATOM      8  C   UNL     1      34.499 -16.371 -22.216  0.00  0.00    -0.008 C 
ATOM      9  C   UNL     1      34.014 -15.033 -22.263  0.00  0.00    +0.011 C 
ATOM     10  C   UNL     1      33.699 -14.759 -23.595  0.00  0.00    +0.050 C 
ATOM     11  C   UNL     1      34.469 -16.873 -23.497  0.00  0.00    +0.057 C 
ATOM     12  C   UNL     1      33.813 -14.028 -21.297  0.00  0.00    +0.003 C 
ATOM     13  C   UNL     1      33.191 -13.523 -24.011  0.00  0.00    +0.044 C 
ATOM     14  C   UNL     1      33.305 -12.787 -21.698  0.00  0.00    +0.030 C 
ATOM     15  C   UNL     1      33.000 -12.541 -23.035  0.00  0.00    +0.141 C 
ATOM     16  H   UNL     1      33.859 -15.985 -25.294  0.00  0.00    +0.152 HD
ENDBRANCH   5   8
ENDBRANCH   4   5
ENDBRANCH   1   4
BRANCH   1  17
ATOM     17  C   UNL     1      34.785 -19.927 -20.602  0.00  0.00    -0.054 C 
BRANCH  17  18
ATOM     18  C   UNL     1      34.476 -20.801 -19.415  0.00  0.00    -0.041 C 
ATOM     19  C   UNL     1      35.486 -21.131 -18.512  0.00  0.00    +0.031 C 
ATOM     20  C   UNL     1      33.180 -21.278 -19.220  0.00  0.00    -0.006 C 
ATOM     21  C   UNL     1      35.200 -21.940 -17.413  0.00  0.00    +0.138 C 
ATOM     22  C   UNL     1      32.894 -22.087 -18.120  0.00  0.00    +0.003 C 
ATOM     23  C   UNL     1      33.904 -22.418 -17.216  0.00  0.00    +0.037 C 
BRANCH  21  24
ATOM     24  O   UNL     1      36.184 -22.264 -16.530  0.00  0.00    -0.469 OA
BRANCH  24  25
ATOM     25  C   UNL     1      35.775 -22.720 -15.241  0.00  0.00    +0.277 C 
BRANCH  25  28
ATOM     26  F   UNL     1      37.165 -22.874 -13.356  0.00  0.00    -0.194 F 
ATOM     27  F   UNL     1      38.068 -23.214 -15.313  0.00  0.00    -0.194 F 
ATOM     28  C   UNL     1      36.945 -23.420 -14.579  0.00  0.00    +0.363 C 
BRANCH  28  31
ATOM     29  F   UNL     1      37.797 -25.572 -14.924  0.00  0.00    -0.192 F 
ATOM     30  F   UNL     1      35.648 -25.299 -15.137  0.00  0.00    -0.192 F 
ATOM     31  C   UNL     1      36.727 -24.906 -14.419  0.00  0.00    +0.382 C 
ENDBRANCH  28  31
ENDBRANCH  25  28
ENDBRANCH  24  25
ENDBRANCH  21  24
ENDBRANCH  17  18
ENDBRANCH   1  17
TORSDOF 9
ENDMDL
MODEL 3
REMARK VINA RESULT:     -11.9      2.717      3.505
REMARK  Name = 21071390
REMARK  9 active torsions:
REMARK  status: ('A' for Active; 'I' for Inactive)
REMARK    1  A    between atoms: N_1  and  C_4
REMARK    2  A    between atoms: N_1  and  C_17
REMARK    3  A    between atoms: C_4  and  C_5
REMARK    4  A    between atoms: C_5  and  C_8
REMARK    5  A    between atoms: C_17  and  C_18
REMARK    6  A    between atoms: C_21  and  O_24
REMARK    7  A    between atoms: O_24  and  C_25
REMARK    8  A    between atoms: C_25  and  C_28
REMARK    9  A    between atoms: C_28  and  C_31
REMARK                            x       y       z     vdW  Elec       q    Type
REMARK                         _______ _______ _______ _____ _____    ______ ____
ROOT
ATOM      1  N   UNL     1      35.032 -19.098 -21.863  0.00  0.00    +0.387 N 
ATOM      2  H   UNL     1      35.682 -18.855 -21.116  0.00  0.00    -0.084 HD
ATOM      3  H   UNL     1      35.357 -19.925 -22.364  0.00  0.00    -0.084 HD
ENDROOT
BRANCH   1   4
ATOM      4  C   UNL     1      34.945 -17.986 -22.802  0.00  0.00    -0.076 C 
BRANCH   4   5
ATOM      5  C   UNL     1      34.959 -16.624 -22.081  0.00  0.00    +0.004 C 
BRANCH   5   8
ATOM      6  F   UNL     1      31.333 -11.039 -21.453  0.00  0.00    -0.204 F 
ATOM      7  N   UNL     1      33.199 -14.430 -24.410  0.00  0.00    -0.312 N 
ATOM      8  C   UNL     1      34.180 -15.590 -22.791  0.00  0.00    -0.008 C 
ATOM      9  C   UNL     1      33.517 -14.475 -22.202  0.00  0.00    +0.011 C 
ATOM     10  C   UNL     1      32.910 -13.765 -23.240  0.00  0.00    +0.050 C 
ATOM     11  C   UNL     1      33.966 -15.534 -24.149  0.00  0.00    +0.057 C 
ATOM     12  C   UNL     1      33.376 -14.003 -20.883  0.00  0.00    +0.003 C 
ATOM     13  C   UNL     1      32.166 -12.600 -23.022  0.00  0.00    +0.044 C 
ATOM     14  C   UNL     1      32.633 -12.840 -20.650  0.00  0.00    +0.030 C 
ATOM     15  C   UNL     1      32.039 -12.151 -21.705  0.00  0.00    +0.141 C 
ATOM     16  H   UNL     1      32.898 -14.152 -25.305  0.00  0.00    +0.152 HD
ENDBRANCH   5   8
ENDBRANCH   4   5
ENDBRANCH   1   4
BRANCH   1  17
ATOM     17  C   UNL     1      33.728 -19.389 -21.282  0.00  0.00    -0.054 C 
BRANCH  17  18
ATOM     18  C   UNL     1      33.835 -20.318 -20.102  0.00  0.00    -0.041 C 
ATOM     19  C   UNL     1      32.679 -20.794 -19.483  0.00  0.00    +0.031 C 
ATOM     20  C   UNL     1      35.089 -20.702 -19.628  0.00  0.00    -0.006 C 
ATOM     21  C   UNL     1      32.778 -21.654 -18.390  0.00  0.00    +0.138 C 
ATOM     22  C   UNL     1      35.188 -21.563 -18.535  0.00  0.00    +0.003 C 
ATOM     23  C   UNL     1      34.032 -22.039 -17.916  0.00  0.00    +0.037 C 
BRANCH  21  24
ATOM     24  O   UNL     1      31.651 -22.120 -17.785  0.00  0.00    -0.469 OA
BRANCH  24  25
ATOM     25  C   UNL     1      31.804 -22.712 -16.496  0.00  0.00    +0.277 C 
BRANCH  25  28
ATOM     26  F   UNL     1      30.056 -24.124 -15.817  0.00  0.00    -0.194 F 
ATOM     27  F   UNL     1      29.526 -22.157 -16.598  0.00  0.00    -0.194 F 
ATOM     28  C   UNL     1      30.439 -22.822 -15.846  0.00  0.00    +0.363 C 
BRANCH  28  31
ATOM     29  F   UNL     1      31.682 -22.157 -13.979  0.00  0.00    -0.192 F 
ATOM     30  F   UNL     1      29.772 -23.136 -13.614  0.00  0.00    -0.192 F 
ATOM     31  C   UNL     1      30.410 -22.273 -14.440  0.00  0.00    +0.382 C 
ENDBRANCH  28  31
ENDBRANCH  25  28
ENDBRANCH  24  25
ENDBRANCH  21  24
ENDBRANCH  17  18
ENDBRANCH   1  17
TORSDOF 9
ENDMDL
MODEL 4
REMARK VINA RESULT:     -11.8      2.628     10.046
REMARK  Name = 21071390
REMARK  9 active torsions:
REMARK  status: ('A' for Active; 'I' for Inactive)
REMARK    1  A    between atoms: N_1  and  C_4
REMARK    2  A    between atoms: N_1  and  C_17
REMARK    3  A    between atoms: C_4  and  C_5
REMARK    4  A    between atoms: C_5  and  C_8
REMARK    5  A    between atoms: C_17  and  C_18
REMARK    6  A    between atoms: C_21  and  O_24
REMARK    7  A    between atoms: O_24  and  C_25
REMARK    8  A    between atoms: C_25  and  C_28
REMARK    9  A    between atoms: C_28  and  C_31
REMARK                            x       y       z     vdW  Elec       q    Type
REMARK                         _______ _______ _______ _____ _____    ______ ____
ROOT
ATOM      1  N   UNL     1      34.705 -18.354 -20.898  0.00  0.00    +0.387 N 
ATOM      2  H   UNL     1      35.557 -18.215 -20.354  0.00  0.00    -0.084 HD
ATOM      3  H   UNL     1      34.018 -17.633 -20.675  0.00  0.00    -0.084 HD
ENDROOT
BRANCH   1   4
ATOM      4  C   UNL     1      34.137 -19.657 -20.573  0.00  0.00    -0.076 C 
BRANCH   4   5
ATOM      5  C   UNL     1      35.177 -20.592 -19.927  0.00  0.00    +0.004 C 
BRANCH   5   8
ATOM      6  F   UNL     1      36.451 -23.013 -13.824  0.00  0.00    -0.204 F 
ATOM      7  N   UNL     1      33.262 -22.493 -17.467  0.00  0.00    -0.312 N 
ATOM      8  C   UNL     1      34.639 -21.345 -18.777  0.00  0.00    -0.008 C 
ATOM      9  C   UNL     1      35.328 -21.657 -17.570  0.00  0.00    +0.011 C 
ATOM     10  C   UNL     1      34.441 -22.377 -16.767  0.00  0.00    +0.050 C 
ATOM     11  C   UNL     1      33.371 -21.872 -18.683  0.00  0.00    +0.057 C 
ATOM     12  C   UNL     1      36.623 -21.394 -17.085  0.00  0.00    +0.003 C 
ATOM     13  C   UNL     1      34.788 -22.850 -15.497  0.00  0.00    +0.044 C 
ATOM     14  C   UNL     1      36.985 -21.862 -15.816  0.00  0.00    +0.030 C 
ATOM     15  C   UNL     1      36.079 -22.578 -15.035  0.00  0.00    +0.141 C 
ATOM     16  H   UNL     1      32.456 -22.956 -17.142  0.00  0.00    +0.152 HD
ENDBRANCH   5   8
ENDBRANCH   4   5
ENDBRANCH   1   4
BRANCH   1  17
ATOM     17  C   UNL     1      35.026 -18.267 -22.316  0.00  0.00    -0.054 C 
BRANCH  17  18
ATOM     18  C   UNL     1      34.475 -17.013 -22.940  0.00  0.00    -0.041 C 
ATOM     19  C   UNL     1      34.563 -15.798 -22.260  0.00  0.00    +0.031 C 
ATOM     20  C   UNL     1      33.877 -17.066 -24.199  0.00  0.00    -0.006 C 
ATOM     21  C   UNL     1      34.052 -14.637 -22.839  0.00  0.00    +0.138 C 
ATOM     22  C   UNL     1      33.366 -15.904 -24.778  0.00  0.00    +0.003 C 
ATOM     23  C   UNL     1      33.454 -14.689 -24.098  0.00  0.00    +0.037 C 
BRANCH  21  24
ATOM     24  O   UNL     1      34.138 -13.451 -22.177  0.00  0.00    -0.469 OA
BRANCH  24  25
ATOM     25  C   UNL     1      33.493 -12.327 -22.773  0.00  0.00    +0.277 C 
BRANCH  25  28
ATOM     26  F   UNL     1      31.210 -12.854 -22.640  0.00  0.00    -0.194 F 
ATOM     27  F   UNL     1      31.802 -10.795 -22.226  0.00  0.00    -0.194 F 
ATOM     28  C   UNL     1      32.174 -12.090 -22.065  0.00  0.00    +0.363 C 
BRANCH  28  31
ATOM     29  F   UNL     1      31.505 -13.523 -20.341  0.00  0.00    -0.192 F 
ATOM     30  F   UNL     1      31.668 -11.403 -19.876  0.00  0.00    -0.192 F 
ATOM     31  C   UNL     1      32.233 -12.405 -20.590  0.00  0.00    +0.382 C 
ENDBRANCH  28  31
ENDBRANCH  25  28
ENDBRANCH  24  25
ENDBRANCH  21  24
ENDBRANCH  17  18
ENDBRANCH   1  17
TORSDOF 9
ENDMDL
MODEL 5
REMARK VINA RESULT:     -11.6      3.395      9.446
REMARK  Name = 21071390
REMARK  9 active torsions:
REMARK  status: ('A' for Active; 'I' for Inactive)
REMARK    1  A    between atoms: N_1  and  C_4
REMARK    2  A    between atoms: N_1  and  C_17
REMARK    3  A    between atoms: C_4  and  C_5
REMARK    4  A    between atoms: C_5  and  C_8
REMARK    5  A    between atoms: C_17  and  C_18
REMARK    6  A    between atoms: C_21  and  O_24
REMARK    7  A    between atoms: O_24  and  C_25
REMARK    8  A    between atoms: C_25  and  C_28
REMARK    9  A    between atoms: C_28  and  C_31
REMARK                            x       y       z     vdW  Elec       q    Type
REMARK                         _______ _______ _______ _____ _____    ______ ____
ROOT
ATOM      1  N   UNL     1      35.824 -18.912 -20.599  0.00  0.00    +0.387 N 
ATOM      2  H   UNL     1      36.610 -18.570 -21.152  0.00  0.00    -0.084 HD
ATOM      3  H   UNL     1      35.448 -18.166 -20.014  0.00  0.00    -0.084 HD
ENDROOT
BRANCH   1   4
ATOM      4  C   UNL     1      36.282 -19.996 -19.737  0.00  0.00    -0.076 C 
BRANCH   4   5
ATOM      5  C   UNL     1      35.175 -21.038 -19.488  0.00  0.00    +0.004 C 
BRANCH   5   8
ATOM      6  F   UNL     1      31.477 -23.678 -14.580  0.00  0.00    -0.204 F 
ATOM      7  N   UNL     1      35.858 -22.176 -16.087  0.00  0.00    -0.312 N 
ATOM      8  C   UNL     1      35.175 -21.559 -18.107  0.00  0.00    -0.008 C 
ATOM      9  C   UNL     1      34.053 -22.068 -17.393  0.00  0.00    +0.011 C 
ATOM     10  C   UNL     1      34.510 -22.447 -16.129  0.00  0.00    +0.050 C 
ATOM     11  C   UNL     1      36.270 -21.639 -17.277  0.00  0.00    +0.057 C 
ATOM     12  C   UNL     1      32.690 -22.241 -17.702  0.00  0.00    +0.003 C 
ATOM     13  C   UNL     1      33.667 -22.994 -15.155  0.00  0.00    +0.044 C 
ATOM     14  C   UNL     1      31.835 -22.787 -16.738  0.00  0.00    +0.030 C 
ATOM     15  C   UNL     1      32.318 -23.157 -15.484  0.00  0.00    +0.141 C 
ATOM     16  H   UNL     1      36.443 -22.343 -15.312  0.00  0.00    +0.152 HD
ENDBRANCH   5   8
ENDBRANCH   4   5
ENDBRANCH   1   4
BRANCH   1  17
ATOM     17  C   UNL     1      34.775 -19.372 -21.498  0.00  0.00    -0.054 C 
BRANCH  17  18
ATOM     18  C   UNL     1      34.390 -18.316 -22.499  0.00  0.00    -0.041 C 
ATOM     19  C   UNL     1      34.682 -16.976 -22.246  0.00  0.00    +0.031 C 
ATOM     20  C   UNL     1      33.741 -18.678 -23.679  0.00  0.00    -0.006 C 
ATOM     21  C   UNL     1      34.325 -15.998 -23.173  0.00  0.00    +0.138 C 
ATOM     22  C   UNL     1      33.385 -17.700 -24.608  0.00  0.00    +0.003 C 
ATOM     23  C   UNL     1      33.677 -16.359 -24.355  0.00  0.00    +0.037 C 
BRANCH  21  24
ATOM     24  O   UNL     1      34.610 -14.689 -22.928  0.00  0.00    -0.469 OA
BRANCH  24  25
ATOM     25  C   UNL     1      33.513 -13.835 -22.608  0.00  0.00    +0.277 C 
BRANCH  25  28
ATOM     26  F   UNL     1      34.317 -12.694 -20.721  0.00  0.00    -0.194 F 
ATOM     27  F   UNL     1      33.855 -14.815 -20.503  0.00  0.00    -0.194 F 
ATOM     28  C   UNL     1      33.451 -13.666 -21.102  0.00  0.00    +0.363 C 
BRANCH  28  31
ATOM     29  F   UNL     1      32.075 -12.040 -20.136  0.00  0.00    -0.192 F 
ATOM     30  F   UNL     1      31.727 -14.112 -19.568  0.00  0.00    -0.192 F 
ATOM     31  C   UNL     1      32.069 -13.313 -20.607  0.00  0.00    +0.382 C 
ENDBRANCH  28  31
ENDBRANCH  25  28
ENDBRANCH  24  25
ENDBRANCH  21  24
ENDBRANCH  17  18
ENDBRANCH   1  17
TORSDOF 9
ENDMDL
MODEL 6
REMARK VINA RESULT:     -11.5      4.410      7.176
REMARK  Name = 21071390
REMARK  9 active torsions:
REMARK  status: ('A' for Active; 'I' for Inactive)
REMARK    1  A    between atoms: N_1  and  C_4
REMARK    2  A    between atoms: N_1  and  C_17
REMARK    3  A    between atoms: C_4  and  C_5
REMARK    4  A    between atoms: C_5  and  C_8
REMARK    5  A    between atoms: C_17  and  C_18
REMARK    6  A    between atoms: C_21  and  O_24
REMARK    7  A    between atoms: O_24  and  C_25
REMARK    8  A    between atoms: C_25  and  C_28
REMARK    9  A    between atoms: C_28  and  C_31
REMARK                            x       y       z     vdW  Elec       q    Type
REMARK                         _______ _______ _______ _____ _____    ______ ____
ROOT
ATOM      1  N   UNL     1      31.896 -12.602 -21.983  0.00  0.00    +0.387 N 
ATOM      2  H   UNL     1      31.487 -12.171 -22.811  0.00  0.00    -0.084 HD
ATOM      3  H   UNL     1      31.521 -13.541 -21.848  0.00  0.00    -0.084 HD
ENDROOT
BRANCH   1   4
ATOM      4  C   UNL     1      31.569 -11.796 -20.812  0.00  0.00    -0.076 C 
BRANCH   4   5
ATOM      5  C   UNL     1      30.645 -10.616 -21.169  0.00  0.00    +0.004 C 
BRANCH   5   8
ATOM      6  F   UNL     1      33.439  -4.905 -23.247  0.00  0.00    -0.204 F 
ATOM      7  N   UNL     1      31.852  -7.595 -19.510  0.00  0.00    -0.312 N 
ATOM      8  C   UNL     1      31.198  -9.309 -20.760  0.00  0.00    -0.008 C 
ATOM      9  C   UNL     1      31.736  -8.309 -21.620  0.00  0.00    +0.011 C 
ATOM     10  C   UNL     1      32.138  -7.246 -20.810  0.00  0.00    +0.050 C 
ATOM     11  C   UNL     1      31.284  -8.840 -19.469  0.00  0.00    +0.057 C 
ATOM     12  C   UNL     1      31.918  -8.208 -23.013  0.00  0.00    +0.003 C 
ATOM     13  C   UNL     1      32.717  -6.081 -21.327  0.00  0.00    +0.044 C 
ATOM     14  C   UNL     1      32.496  -7.050 -23.544  0.00  0.00    +0.030 C 
ATOM     15  C   UNL     1      32.888  -6.003 -22.711  0.00  0.00    +0.141 C 
ATOM     16  H   UNL     1      32.031  -7.031 -18.722  0.00  0.00    +0.152 HD
ENDBRANCH   5   8
ENDBRANCH   4   5
ENDBRANCH   1   4
BRANCH   1  17
ATOM     17  C   UNL     1      33.338 -12.699 -22.159  0.00  0.00    -0.054 C 
BRANCH  17  18
ATOM     18  C   UNL     1      33.775 -14.112 -22.443  0.00  0.00    -0.041 C 
ATOM     19  C   UNL     1      34.160 -14.946 -21.395  0.00  0.00    +0.031 C 
ATOM     20  C   UNL     1      33.795 -14.585 -23.755  0.00  0.00    -0.006 C 
ATOM     21  C   UNL     1      34.565 -16.255 -21.658  0.00  0.00    +0.138 C 
ATOM     22  C   UNL     1      34.199 -15.893 -24.019  0.00  0.00    +0.003 C 
ATOM     23  C   UNL     1      34.585 -16.729 -22.970  0.00  0.00    +0.037 C 
BRANCH  21  24
ATOM     24  O   UNL     1      34.941 -17.071 -20.636  0.00  0.00    -0.469 OA
BRANCH  24  25
ATOM     25  C   UNL     1      35.654 -18.258 -20.981  0.00  0.00    +0.277 C 
BRANCH  25  28
ATOM     26  F   UNL     1      34.457 -19.890 -22.169  0.00  0.00    -0.194 F 
ATOM     27  F   UNL     1      33.513 -19.025 -20.403  0.00  0.00    -0.194 F 
ATOM     28  C   UNL     1      34.701 -19.435 -20.914  0.00  0.00    +0.363 C 
BRANCH  28  31
ATOM     29  F   UNL     1      34.226 -21.071 -19.311  0.00  0.00    -0.192 F 
ATOM     30  F   UNL     1      36.183 -20.122 -19.224  0.00  0.00    -0.192 F 
ATOM     31  C   UNL     1      35.231 -20.573 -20.075  0.00  0.00    +0.382 C 
ENDBRANCH  28  31
ENDBRANCH  25  28
ENDBRANCH  24  25
ENDBRANCH  21  24
ENDBRANCH  17  18
ENDBRANCH   1  17
TORSDOF 9
ENDMDL
MODEL 7
REMARK VINA RESULT:     -11.5      3.743     10.895
REMARK  Name = 21071390
REMARK  9 active torsions:
REMARK  status: ('A' for Active; 'I' for Inactive)
REMARK    1  A    between atoms: N_1  and  C_4
REMARK    2  A    between atoms: N_1  and  C_17
REMARK    3  A    between atoms: C_4  and  C_5
REMARK    4  A    between atoms: C_5  and  C_8
REMARK    5  A    between atoms: C_17  and  C_18
REMARK    6  A    between atoms: C_21  and  O_24
REMARK    7  A    between atoms: O_24  and  C_25
REMARK    8  A    between atoms: C_25  and  C_28
REMARK    9  A    between atoms: C_28  and  C_31
REMARK                            x       y       z     vdW  Elec       q    Type
REMARK                         _______ _______ _______ _____ _____    ______ ____
ROOT
ATOM      1  N   UNL     1      34.548 -15.478 -22.585  0.00  0.00    +0.387 N 
ATOM      2  H   UNL     1      35.488 -15.353 -22.211  0.00  0.00    -0.084 HD
ATOM      3  H   UNL     1      33.891 -15.692 -21.835  0.00  0.00    -0.084 HD
ENDROOT
BRANCH   1   4
ATOM      4  C   UNL     1      34.554 -16.586 -23.533  0.00  0.00    -0.076 C 
BRANCH   4   5
ATOM      5  C   UNL     1      33.996 -17.879 -22.907  0.00  0.00    +0.004 C 
BRANCH   5   8
ATOM      6  F   UNL     1      34.555 -22.133 -17.776  0.00  0.00    -0.204 F 
ATOM      7  N   UNL     1      36.740 -18.957 -20.752  0.00  0.00    -0.312 N 
ATOM      8  C   UNL     1      34.909 -18.477 -21.912  0.00  0.00    -0.008 C 
ATOM      9  C   UNL     1      34.566 -19.432 -20.913  0.00  0.00    +0.011 C 
ATOM     10  C   UNL     1      35.733 -19.715 -20.200  0.00  0.00    +0.050 C 
ATOM     11  C   UNL     1      36.252 -18.205 -21.787  0.00  0.00    +0.057 C 
ATOM     12  C   UNL     1      33.372 -20.083 -20.548  0.00  0.00    +0.003 C 
ATOM     13  C   UNL     1      35.764 -20.623 -19.135  0.00  0.00    +0.044 C 
ATOM     14  C   UNL     1      33.388 -20.993 -19.484  0.00  0.00    +0.030 C 
ATOM     15  C   UNL     1      34.568 -21.257 -18.790  0.00  0.00    +0.141 C 
ATOM     16  H   UNL     1      37.676 -18.955 -20.446  0.00  0.00    +0.152 HD
ENDBRANCH   5   8
ENDBRANCH   4   5
ENDBRANCH   1   4
BRANCH   1  17
ATOM     17  C   UNL     1      34.127 -14.244 -23.233  0.00  0.00    -0.054 C 
BRANCH  17  18
ATOM     18  C   UNL     1      33.236 -13.418 -22.343  0.00  0.00    -0.041 C 
ATOM     19  C   UNL     1      32.746 -12.192 -22.792  0.00  0.00    +0.031 C 
ATOM     20  C   UNL     1      32.902 -13.880 -21.070  0.00  0.00    -0.006 C 
ATOM     21  C   UNL     1      31.921 -11.427 -21.967  0.00  0.00    +0.138 C 
ATOM     22  C   UNL     1      32.077 -13.115 -20.245  0.00  0.00    +0.003 C 
ATOM     23  C   UNL     1      31.586 -11.889 -20.694  0.00  0.00    +0.037 C 
BRANCH  21  24
ATOM     24  O   UNL     1      31.441 -10.231 -22.404  0.00  0.00    -0.469 OA
BRANCH  24  25
ATOM     25  C   UNL     1      30.941  -9.332 -21.415  0.00  0.00    +0.277 C 
BRANCH  25  28
ATOM     26  F   UNL     1      30.744  -7.117 -22.164  0.00  0.00    -0.194 F 
ATOM     27  F   UNL     1      32.662  -8.118 -22.449  0.00  0.00    -0.194 F 
ATOM     28  C   UNL     1      31.616  -7.987 -21.594  0.00  0.00    +0.363 C 
BRANCH  28  31
ATOM     29  F   UNL     1      31.146  -6.613 -19.759  0.00  0.00    -0.192 F 
ATOM     30  F   UNL     1      33.185  -6.604 -20.522  0.00  0.00    -0.192 F 
ATOM     31  C   UNL     1      32.114  -7.401 -20.295  0.00  0.00    +0.382 C 
ENDBRANCH  28  31
ENDBRANCH  25  28
ENDBRANCH  24  25
ENDBRANCH  21  24
ENDBRANCH  17  18
ENDBRANCH   1  17
TORSDOF 9
ENDMDL
MODEL 8
REMARK VINA RESULT:     -11.3      2.706      3.625
REMARK  Name = 21071390
REMARK  9 active torsions:
REMARK  status: ('A' for Active; 'I' for Inactive)
REMARK    1  A    between atoms: N_1  and  C_4
REMARK    2  A    between atoms: N_1  and  C_17
REMARK    3  A    between atoms: C_4  and  C_5
REMARK    4  A    between atoms: C_5  and  C_8
REMARK    5  A    between atoms: C_17  and  C_18
REMARK    6  A    between atoms: C_21  and  O_24
REMARK    7  A    between atoms: O_24  and  C_25
REMARK    8  A    between atoms: C_25  and  C_28
REMARK    9  A    between atoms: C_28  and  C_31
REMARK                            x       y       z     vdW  Elec       q    Type
REMARK                         _______ _______ _______ _____ _____    ______ ____
ROOT
ATOM      1  N   UNL     1      34.066 -19.642 -20.009  0.00  0.00    +0.387 N 
ATOM      2  H   UNL     1      33.071 -19.450 -20.124  0.00  0.00    -0.084 HD
ATOM      3  H   UNL     1      34.414 -19.214 -19.150  0.00  0.00    -0.084 HD
ENDROOT
BRANCH   1   4
ATOM      4  C   UNL     1      34.795 -19.081 -21.140  0.00  0.00    -0.076 C 
BRANCH   4   5
ATOM      5  C   UNL     1      35.184 -17.610 -20.900  0.00  0.00    +0.004 C 
BRANCH   5   8
ATOM      6  F   UNL     1      32.678 -11.599 -22.423  0.00  0.00    -0.204 F 
ATOM      7  N   UNL     1      34.266 -15.922 -24.005  0.00  0.00    -0.312 N 
ATOM      8  C   UNL     1      34.741 -16.712 -21.986  0.00  0.00    -0.008 C 
ATOM      9  C   UNL     1      34.229 -15.392 -21.838  0.00  0.00    +0.011 C 
ATOM     10  C   UNL     1      33.940 -14.920 -23.120  0.00  0.00    +0.050 C 
ATOM     11  C   UNL     1      34.752 -17.010 -23.330  0.00  0.00    +0.057 C 
ATOM     12  C   UNL     1      33.985 -14.552 -20.735  0.00  0.00    +0.003 C 
ATOM     13  C   UNL     1      33.415 -13.644 -23.353  0.00  0.00    +0.044 C 
ATOM     14  C   UNL     1      33.459 -13.273 -20.952  0.00  0.00    +0.030 C 
ATOM     15  C   UNL     1      33.180 -12.828 -22.243  0.00  0.00    +0.141 C 
ATOM     16  H   UNL     1      34.165 -15.866 -24.983  0.00  0.00    +0.152 HD
ENDBRANCH   5   8
ENDBRANCH   4   5
ENDBRANCH   1   4
BRANCH   1  17
ATOM     17  C   UNL     1      34.266 -21.082 -19.925  0.00  0.00    -0.054 C 
BRANCH  17  18
ATOM     18  C   UNL     1      34.738 -21.505 -18.559  0.00  0.00    -0.041 C 
ATOM     19  C   UNL     1      33.899 -22.248 -17.730  0.00  0.00    +0.031 C 
ATOM     20  C   UNL     1      36.016 -21.152 -18.124  0.00  0.00    -0.006 C 
ATOM     21  C   UNL     1      34.337 -22.639 -16.465  0.00  0.00    +0.138 C 
ATOM     22  C   UNL     1      36.454 -21.544 -16.860  0.00  0.00    +0.003 C 
ATOM     23  C   UNL     1      35.615 -22.287 -16.030  0.00  0.00    +0.037 C 
BRANCH  21  24
ATOM     24  O   UNL     1      33.519 -23.365 -15.655  0.00  0.00    -0.469 OA
BRANCH  24  25
ATOM     25  C   UNL     1      32.760 -22.644 -14.685  0.00  0.00    +0.277 C 
BRANCH  25  28
ATOM     26  F   UNL     1      31.038 -23.412 -16.083  0.00  0.00    -0.194 F 
ATOM     27  F   UNL     1      30.513 -21.991 -14.513  0.00  0.00    -0.194 F 
ATOM     28  C   UNL     1      31.306 -23.054 -14.801  0.00  0.00    +0.363 C 
BRANCH  28  31
ATOM     29  F   UNL     1      30.110 -25.048 -14.542  0.00  0.00    -0.192 F 
ATOM     30  F   UNL     1      30.265 -23.740 -12.809  0.00  0.00    -0.192 F 
ATOM     31  C   UNL     1      30.943 -24.200 -13.887  0.00  0.00    +0.382 C 
ENDBRANCH  28  31
ENDBRANCH  25  28
ENDBRANCH  24  25
ENDBRANCH  21  24
ENDBRANCH  17  18
ENDBRANCH   1  17
TORSDOF 9
ENDMDL
MODEL 9
REMARK VINA RESULT:     -11.2      3.070     10.201
REMARK  Name = 21071390
REMARK  9 active torsions:
REMARK  status: ('A' for Active; 'I' for Inactive)
REMARK    1  A    between atoms: N_1  and  C_4
REMARK    2  A    between atoms: N_1  and  C_17
REMARK    3  A    between atoms: C_4  and  C_5
REMARK    4  A    between atoms: C_5  and  C_8
REMARK    5  A    between atoms: C_17  and  C_18
REMARK    6  A    between atoms: C_21  and  O_24
REMARK    7  A    between atoms: O_24  and  C_25
REMARK    8  A    between atoms: C_25  and  C_28
REMARK    9  A    between atoms: C_28  and  C_31
REMARK                            x       y       z     vdW  Elec       q    Type
REMARK                         _______ _______ _______ _____ _____    ______ ____
ROOT
ATOM      1  N   UNL     1      34.274 -20.128 -20.341  0.00  0.00    +0.387 N 
ATOM      2  H   UNL     1      33.608 -19.737 -19.675  0.00  0.00    -0.084 HD
ATOM      3  H   UNL     1      33.792 -20.450 -21.181  0.00  0.00    -0.084 HD
ENDROOT
BRANCH   1   4
ATOM      4  C   UNL     1      34.952 -21.265 -19.727  0.00  0.00    -0.076 C 
BRANCH   4   5
ATOM      5  C   UNL     1      34.235 -21.737 -18.448  0.00  0.00    +0.004 C 
BRANCH   5   8
ATOM      6  F   UNL     1      34.932 -23.944 -12.173  0.00  0.00    -0.204 F 
ATOM      7  N   UNL     1      36.936 -21.682 -15.991  0.00  0.00    -0.312 N 
ATOM      8  C   UNL     1      35.143 -21.850 -17.289  0.00  0.00    -0.008 C 
ATOM      9  C   UNL     1      34.845 -22.457 -16.035  0.00  0.00    +0.011 C 
ATOM     10  C   UNL     1      35.987 -22.337 -15.241  0.00  0.00    +0.050 C 
ATOM     11  C   UNL     1      36.436 -21.384 -17.231  0.00  0.00    +0.057 C 
ATOM     12  C   UNL     1      33.710 -23.097 -15.500  0.00  0.00    +0.003 C 
ATOM     13  C   UNL     1      36.050 -22.828 -13.932  0.00  0.00    +0.044 C 
ATOM     14  C   UNL     1      33.759 -23.593 -14.192  0.00  0.00    +0.030 C 
ATOM     15  C   UNL     1      34.913 -23.460 -13.422  0.00  0.00    +0.141 C 
ATOM     16  H   UNL     1      37.845 -21.459 -15.682  0.00  0.00    +0.152 HD
ENDBRANCH   5   8
ENDBRANCH   4   5
ENDBRANCH   1   4
BRANCH   1  17
ATOM     17  C   UNL     1      35.230 -19.097 -20.720  0.00  0.00    -0.054 C 
BRANCH  17  18
ATOM     18  C   UNL     1      34.747 -18.289 -21.895  0.00  0.00    -0.041 C 
ATOM     19  C   UNL     1      34.879 -16.901 -21.888  0.00  0.00    +0.031 C 
ATOM     20  C   UNL     1      34.169 -18.930 -22.991  0.00  0.00    -0.006 C 
ATOM     21  C   UNL     1      34.432 -16.153 -22.977  0.00  0.00    +0.138 C 
ATOM     22  C   UNL     1      33.723 -18.182 -24.080  0.00  0.00    +0.003 C 
ATOM     23  C   UNL     1      33.854 -16.793 -24.074  0.00  0.00    +0.037 C 
BRANCH  21  24
ATOM     24  O   UNL     1      34.560 -14.798 -22.972  0.00  0.00    -0.469 OA
BRANCH  24  25
ATOM     25  C   UNL     1      33.372 -14.033 -23.171  0.00  0.00    +0.277 C 
BRANCH  25  28
ATOM     26  F   UNL     1      33.628 -11.738 -22.748  0.00  0.00    -0.194 F 
ATOM     27  F   UNL     1      34.290 -13.135 -21.208  0.00  0.00    -0.194 F 
ATOM     28  C   UNL     1      33.333 -12.918 -22.145  0.00  0.00    +0.363 C 
BRANCH  28  31
ATOM     29  F   UNL     1      31.892 -11.568 -20.889  0.00  0.00    -0.192 F 
ATOM     30  F   UNL     1      31.896 -13.702 -20.458  0.00  0.00    -0.192 F 
ATOM     31  C   UNL     1      31.993 -12.795 -21.460  0.00  0.00    +0.382 C 
ENDBRANCH  28  31
ENDBRANCH  25  28
ENDBRANCH  24  25
ENDBRANCH  21  24
ENDBRANCH  17  18
ENDBRANCH   1  17
TORSDOF 9
ENDMDL
