MODEL 1
REMARK VINA RESULT:     -11.9      0.000      0.000
REMARK  Name = 3718
REMARK  4 active torsions:
REMARK  status: ('A' for Active; 'I' for Inactive)
REMARK    1  A    between atoms: C_1  and  N_8
REMARK    2  A    between atoms: C_2  and  C_17
REMARK    3  A    between atoms: C_17  and  C_20
REMARK    4  A    between atoms: C_20  and  O_21
REMARK                            x       y       z     vdW  Elec       q    Type
REMARK                         _______ _______ _______ _____ _____    ______ ____
ROOT
ATOM      1  C   UNL     1      33.352 -21.508 -18.291  0.00  0.00    +0.054 C 
ATOM      2  C   UNL     1      34.489 -20.120 -20.435  0.00  0.00    -0.012 C 
ATOM      3  C   UNL     1      32.540 -20.797 -19.179  0.00  0.00    +0.015 C 
ATOM      4  C   UNL     1      34.737 -21.520 -18.482  0.00  0.00    +0.015 C 
ATOM      5  C   UNL     1      33.107 -20.105 -20.249  0.00  0.00    -0.002 C 
ATOM      6  C   UNL     1      35.304 -20.828 -19.552  0.00  0.00    -0.002 C 
ENDROOT
BRANCH   1   8
ATOM      7  O   UNL     1      34.736 -22.900 -16.068  0.00  0.00    -0.270 OA
ATOM      8  N   UNL     1      32.788 -22.198 -17.225  0.00  0.00    -0.251 N 
ATOM      9  C   UNL     1      31.347 -22.356 -17.017  0.00  0.00    +0.125 C 
ATOM     10  C   UNL     1      31.277 -23.157 -15.764  0.00  0.00    +0.002 C 
ATOM     11  C   UNL     1      32.556 -23.431 -15.294  0.00  0.00    +0.052 C 
ATOM     12  C   UNL     1      33.529 -22.829 -16.213  0.00  0.00    +0.253 C 
ATOM     13  C   UNL     1      30.166 -23.613 -15.078  0.00  0.00    -0.002 C 
ATOM     14  C   UNL     1      32.786 -24.160 -14.142  0.00  0.00    +0.004 C 
ATOM     15  C   UNL     1      30.370 -24.353 -13.909  0.00  0.00    -0.000 C 
ATOM     16  C   UNL     1      31.669 -24.624 -13.445  0.00  0.00    +0.000 C 
ENDBRANCH   1   8
BRANCH   2  17
ATOM     17  C   UNL     1      35.095 -19.379 -21.579  0.00  0.00    +0.121 C 
ATOM     18  C   UNL     1      34.084 -18.984 -22.675  0.00  0.00    +0.016 C 
BRANCH  17  20
ATOM     19  O   UNL     1      35.300 -17.124 -20.658  0.00  0.00    -0.250 OA
ATOM     20  C   UNL     1      35.840 -18.113 -21.138  0.00  0.00    +0.317 C 
BRANCH  20  21
ATOM     21  O   UNL     1      37.182 -18.186 -21.340  0.00  0.00    -0.480 OA
ATOM     22  H   UNL     1      37.765 -18.220 -20.607  0.00  0.00    +0.295 HD
ENDBRANCH  20  21
ENDBRANCH  17  20
ENDBRANCH   2  17
TORSDOF 4
ENDMDL
MODEL 2
REMARK VINA RESULT:     -11.8      0.987      1.938
REMARK  Name = 3718
REMARK  4 active torsions:
REMARK  status: ('A' for Active; 'I' for Inactive)
REMARK    1  A    between atoms: C_1  and  N_8
REMARK    2  A    between atoms: C_2  and  C_17
REMARK    3  A    between atoms: C_17  and  C_20
REMARK    4  A    between atoms: C_20  and  O_21
REMARK                            x       y       z     vdW  Elec       q    Type
REMARK                         _______ _______ _______ _____ _____    ______ ____
ROOT
ATOM      1  C   UNL     1      33.468 -21.526 -18.218  0.00  0.00    +0.054 C 
ATOM      2  C   UNL     1      34.547 -20.140 -20.393  0.00  0.00    -0.012 C 
ATOM      3  C   UNL     1      34.851 -21.498 -18.418  0.00  0.00    +0.015 C 
ATOM      4  C   UNL     1      32.627 -20.857 -19.113  0.00  0.00    +0.015 C 
ATOM      5  C   UNL     1      35.389 -20.806 -19.503  0.00  0.00    -0.002 C 
ATOM      6  C   UNL     1      33.166 -20.166 -20.198  0.00  0.00    -0.002 C 
ENDROOT
BRANCH   1   8
ATOM      7  O   UNL     1      30.611 -21.894 -17.512  0.00  0.00    -0.270 OA
ATOM      8  N   UNL     1      32.931 -22.216 -17.137  0.00  0.00    -0.251 N 
ATOM      9  C   UNL     1      33.729 -22.906 -16.122  0.00  0.00    +0.125 C 
ATOM     10  C   UNL     1      32.695 -23.468 -15.210  0.00  0.00    +0.002 C 
ATOM     11  C   UNL     1      31.423 -23.135 -15.659  0.00  0.00    +0.052 C 
ATOM     12  C   UNL     1      31.555 -22.337 -16.884  0.00  0.00    +0.253 C 
ATOM     13  C   UNL     1      32.858 -24.224 -14.064  0.00  0.00    -0.002 C 
ATOM     14  C   UNL     1      30.273 -23.529 -15.000  0.00  0.00    +0.004 C 
ATOM     15  C   UNL     1      31.711 -24.637 -13.378  0.00  0.00    -0.000 C 
ATOM     16  C   UNL     1      30.429 -24.293 -13.843  0.00  0.00    +0.000 C 
ENDBRANCH   1   8
BRANCH   2  17
ATOM     17  C   UNL     1      35.123 -19.402 -21.553  0.00  0.00    +0.121 C 
ATOM     18  C   UNL     1      34.088 -19.022 -22.631  0.00  0.00    +0.016 C 
BRANCH  17  20
ATOM     19  O   UNL     1      35.330 -17.144 -20.642  0.00  0.00    -0.250 OA
ATOM     20  C   UNL     1      35.867 -18.127 -21.135  0.00  0.00    +0.317 C 
BRANCH  20  21
ATOM     21  O   UNL     1      37.204 -18.187 -21.373  0.00  0.00    -0.480 OA
ATOM     22  H   UNL     1      37.786 -17.601 -20.929  0.00  0.00    +0.295 HD
ENDBRANCH  20  21
ENDBRANCH  17  20
ENDBRANCH   2  17
TORSDOF 4
ENDMDL
MODEL 3
REMARK VINA RESULT:     -11.7      6.308     10.477
REMARK  Name = 3718
REMARK  4 active torsions:
REMARK  status: ('A' for Active; 'I' for Inactive)
REMARK    1  A    between atoms: C_1  and  N_8
REMARK    2  A    between atoms: C_2  and  C_17
REMARK    3  A    between atoms: C_17  and  C_20
REMARK    4  A    between atoms: C_20  and  O_21
REMARK                            x       y       z     vdW  Elec       q    Type
REMARK                         _______ _______ _______ _____ _____    ______ ____
ROOT
ATOM      1  C   UNL     1      33.569 -14.366 -22.215  0.00  0.00    +0.054 C 
ATOM      2  C   UNL     1      34.763 -16.893 -22.165  0.00  0.00    -0.012 C 
ATOM      3  C   UNL     1      33.941 -14.944 -20.999  0.00  0.00    +0.015 C 
ATOM      4  C   UNL     1      33.799 -15.059 -23.408  0.00  0.00    +0.015 C 
ATOM      5  C   UNL     1      34.536 -16.205 -20.973  0.00  0.00    -0.002 C 
ATOM      6  C   UNL     1      34.394 -16.320 -23.382  0.00  0.00    -0.002 C 
ENDROOT
BRANCH   1   8
ATOM      7  O   UNL     1      31.461 -13.295 -20.425  0.00  0.00    -0.270 OA
ATOM      8  N   UNL     1      32.975 -13.110 -22.241  0.00  0.00    -0.251 N 
ATOM      9  C   UNL     1      33.311 -12.059 -23.205  0.00  0.00    +0.125 C 
ATOM     10  C   UNL     1      32.411 -10.942 -22.808  0.00  0.00    +0.002 C 
ATOM     11  C   UNL     1      31.633 -11.313 -21.717  0.00  0.00    +0.052 C 
ATOM     12  C   UNL     1      31.979 -12.689 -21.345  0.00  0.00    +0.253 C 
ATOM     13  C   UNL     1      32.284  -9.682 -23.363  0.00  0.00    -0.002 C 
ATOM     14  C   UNL     1      30.707 -10.464 -21.139  0.00  0.00    +0.004 C 
ATOM     15  C   UNL     1      31.355  -8.802 -22.797  0.00  0.00    -0.000 C 
ATOM     16  C   UNL     1      30.573  -9.190 -21.695  0.00  0.00    +0.000 C 
ENDBRANCH   1   8
BRANCH   2  17
ATOM     17  C   UNL     1      35.399 -18.241 -22.137  0.00  0.00    +0.121 C 
ATOM     18  C   UNL     1      36.900 -18.218 -21.782  0.00  0.00    +0.016 C 
BRANCH  17  20
ATOM     19  O   UNL     1      33.536 -19.581 -21.299  0.00  0.00    -0.250 OA
ATOM     20  C   UNL     1      34.696 -19.210 -21.179  0.00  0.00    +0.317 C 
BRANCH  20  21
ATOM     21  O   UNL     1      35.492 -19.621 -20.157  0.00  0.00    -0.480 OA
ATOM     22  H   UNL     1      35.110 -19.891 -19.344  0.00  0.00    +0.295 HD
ENDBRANCH  20  21
ENDBRANCH  17  20
ENDBRANCH   2  17
TORSDOF 4
ENDMDL
MODEL 4
REMARK VINA RESULT:     -11.6      3.747      8.955
REMARK  Name = 3718
REMARK  4 active torsions:
REMARK  status: ('A' for Active; 'I' for Inactive)
REMARK    1  A    between atoms: C_1  and  N_8
REMARK    2  A    between atoms: C_2  and  C_17
REMARK    3  A    between atoms: C_17  and  C_20
REMARK    4  A    between atoms: C_20  and  O_21
REMARK                            x       y       z     vdW  Elec       q    Type
REMARK                         _______ _______ _______ _____ _____    ______ ____
ROOT
ATOM      1  C   UNL     1      34.564 -17.937 -21.434  0.00  0.00    +0.054 C 
ATOM      2  C   UNL     1      35.172 -20.234 -19.961  0.00  0.00    -0.012 C 
ATOM      3  C   UNL     1      35.885 -18.209 -21.068  0.00  0.00    +0.015 C 
ATOM      4  C   UNL     1      33.548 -18.822 -21.059  0.00  0.00    +0.015 C 
ATOM      5  C   UNL     1      36.188 -19.355 -20.333  0.00  0.00    -0.002 C 
ATOM      6  C   UNL     1      33.852 -19.968 -20.324  0.00  0.00    -0.002 C 
ENDROOT
BRANCH   1   8
ATOM      7  O   UNL     1      34.315 -15.147 -20.462  0.00  0.00    -0.270 OA
ATOM      8  N   UNL     1      34.260 -16.796 -22.166  0.00  0.00    -0.251 N 
ATOM      9  C   UNL     1      34.001 -16.786 -23.607  0.00  0.00    +0.125 C 
ATOM     10  C   UNL     1      33.734 -15.349 -23.888  0.00  0.00    +0.002 C 
ATOM     11  C   UNL     1      33.831 -14.602 -22.720  0.00  0.00    +0.052 C 
ATOM     12  C   UNL     1      34.165 -15.508 -21.615  0.00  0.00    +0.253 C 
ATOM     13  C   UNL     1      33.427 -14.735 -25.088  0.00  0.00    -0.002 C 
ATOM     14  C   UNL     1      33.631 -13.234 -22.691  0.00  0.00    +0.004 C 
ATOM     15  C   UNL     1      33.220 -13.351 -25.088  0.00  0.00    -0.000 C 
ATOM     16  C   UNL     1      33.321 -12.607 -23.899  0.00  0.00    +0.000 C 
ENDBRANCH   1   8
BRANCH   2  17
ATOM     17  C   UNL     1      35.497 -21.459 -19.174  0.00  0.00    +0.121 C 
ATOM     18  C   UNL     1      36.283 -21.180 -17.877  0.00  0.00    +0.016 C 
BRANCH  17  20
ATOM     19  O   UNL     1      33.705 -23.073 -19.566  0.00  0.00    -0.250 OA
ATOM     20  C   UNL     1      34.254 -22.280 -18.812  0.00  0.00    +0.317 C 
BRANCH  20  21
ATOM     21  O   UNL     1      33.801 -22.036 -17.554  0.00  0.00    -0.480 OA
ATOM     22  H   UNL     1      33.149 -22.592 -17.175  0.00  0.00    +0.295 HD
ENDBRANCH  20  21
ENDBRANCH  17  20
ENDBRANCH   2  17
TORSDOF 4
ENDMDL
MODEL 5
REMARK VINA RESULT:     -11.3      6.383     10.537
REMARK  Name = 3718
REMARK  4 active torsions:
REMARK  status: ('A' for Active; 'I' for Inactive)
REMARK    1  A    between atoms: C_1  and  N_8
REMARK    2  A    between atoms: C_2  and  C_17
REMARK    3  A    between atoms: C_17  and  C_20
REMARK    4  A    between atoms: C_20  and  O_21
REMARK                            x       y       z     vdW  Elec       q    Type
REMARK                         _______ _______ _______ _____ _____    ______ ____
ROOT
ATOM      1  C   UNL     1      33.489 -14.297 -22.037  0.00  0.00    +0.054 C 
ATOM      2  C   UNL     1      34.713 -16.809 -22.112  0.00  0.00    -0.012 C 
ATOM      3  C   UNL     1      33.717 -14.932 -23.261  0.00  0.00    +0.015 C 
ATOM      4  C   UNL     1      33.877 -14.926 -20.851  0.00  0.00    +0.015 C 
ATOM      5  C   UNL     1      34.328 -16.186 -23.299  0.00  0.00    -0.002 C 
ATOM      6  C   UNL     1      34.487 -16.180 -20.888  0.00  0.00    -0.002 C 
ENDROOT
BRANCH   1   8
ATOM      7  O   UNL     1      33.679 -12.103 -24.023  0.00  0.00    -0.270 OA
ATOM      8  N   UNL     1      32.881 -13.048 -22.000  0.00  0.00    -0.251 N 
ATOM      9  C   UNL     1      32.005 -12.590 -20.919  0.00  0.00    +0.125 C 
ATOM     10  C   UNL     1      31.629 -11.217 -21.353  0.00  0.00    +0.002 C 
ATOM     11  C   UNL     1      32.230 -10.914 -22.569  0.00  0.00    +0.052 C 
ATOM     12  C   UNL     1      33.031 -12.068 -22.994  0.00  0.00    +0.253 C 
ATOM     13  C   UNL     1      30.812 -10.295 -20.725  0.00  0.00    -0.002 C 
ATOM     14  C   UNL     1      32.050  -9.699 -23.206  0.00  0.00    +0.004 C 
ATOM     15  C   UNL     1      30.613  -9.058 -21.348  0.00  0.00    -0.000 C 
ATOM     16  C   UNL     1      31.227  -8.763 -22.578  0.00  0.00    +0.000 C 
ENDBRANCH   1   8
BRANCH   2  17
ATOM     17  C   UNL     1      35.366 -18.149 -22.153  0.00  0.00    +0.121 C 
ATOM     18  C   UNL     1      36.873 -18.122 -21.827  0.00  0.00    +0.016 C 
BRANCH  17  20
ATOM     19  O   UNL     1      33.556 -19.592 -21.369  0.00  0.00    -0.250 OA
ATOM     20  C   UNL     1      34.694 -19.166 -21.222  0.00  0.00    +0.317 C 
BRANCH  20  21
ATOM     21  O   UNL     1      35.492 -19.553 -20.191  0.00  0.00    -0.480 OA
ATOM     22  H   UNL     1      36.027 -20.318 -20.275  0.00  0.00    +0.295 HD
ENDBRANCH  20  21
ENDBRANCH  17  20
ENDBRANCH   2  17
TORSDOF 4
ENDMDL
MODEL 6
REMARK VINA RESULT:     -10.7      7.166     10.516
REMARK  Name = 3718
REMARK  4 active torsions:
REMARK  status: ('A' for Active; 'I' for Inactive)
REMARK    1  A    between atoms: C_1  and  N_8
REMARK    2  A    between atoms: C_2  and  C_17
REMARK    3  A    between atoms: C_17  and  C_20
REMARK    4  A    between atoms: C_20  and  O_21
REMARK                            x       y       z     vdW  Elec       q    Type
REMARK                         _______ _______ _______ _____ _____    ______ ____
ROOT
ATOM      1  C   UNL     1      32.871 -12.860 -22.394  0.00  0.00    +0.054 C 
ATOM      2  C   UNL     1      31.819 -10.271 -22.310  0.00  0.00    -0.012 C 
ATOM      3  C   UNL     1      33.251 -11.915 -23.351  0.00  0.00    +0.015 C 
ATOM      4  C   UNL     1      31.962 -12.502 -21.394  0.00  0.00    +0.015 C 
ATOM      5  C   UNL     1      32.726 -10.623 -23.309  0.00  0.00    -0.002 C 
ATOM      6  C   UNL     1      31.437 -11.210 -21.352  0.00  0.00    -0.002 C 
ENDROOT
BRANCH   1   8
ATOM      7  O   UNL     1      34.195 -14.375 -20.215  0.00  0.00    -0.270 OA
ATOM      8  N   UNL     1      33.394 -14.147 -22.435  0.00  0.00    -0.251 N 
ATOM      9  C   UNL     1      33.374 -15.006 -23.621  0.00  0.00    +0.125 C 
ATOM     10  C   UNL     1      34.042 -16.248 -23.145  0.00  0.00    +0.002 C 
ATOM     11  C   UNL     1      34.410 -16.117 -21.811  0.00  0.00    +0.052 C 
ATOM     12  C   UNL     1      34.005 -14.786 -21.345  0.00  0.00    +0.253 C 
ATOM     13  C   UNL     1      34.308 -17.417 -23.834  0.00  0.00    -0.002 C 
ATOM     14  C   UNL     1      35.050 -17.124 -21.112  0.00  0.00    +0.004 C 
ATOM     15  C   UNL     1      34.955 -18.453 -23.151  0.00  0.00    -0.000 C 
ATOM     16  C   UNL     1      35.322 -18.307 -21.801  0.00  0.00    +0.000 C 
ENDBRANCH   1   8
BRANCH   2  17
ATOM     17  C   UNL     1      31.258  -8.890 -22.266  0.00  0.00    +0.121 C 
ATOM     18  C   UNL     1      31.257  -8.259 -20.859  0.00  0.00    +0.016 C 
BRANCH  17  20
ATOM     19  O   UNL     1      33.092  -7.465 -23.027  0.00  0.00    -0.250 OA
ATOM     20  C   UNL     1      31.975  -7.928 -23.220  0.00  0.00    +0.317 C 
BRANCH  20  21
ATOM     21  O   UNL     1      31.239  -7.621 -24.322  0.00  0.00    -0.480 OA
ATOM     22  H   UNL     1      30.971  -8.301 -24.909  0.00  0.00    +0.295 HD
ENDBRANCH  20  21
ENDBRANCH  17  20
ENDBRANCH   2  17
TORSDOF 4
ENDMDL
MODEL 7
REMARK VINA RESULT:     -10.5      3.107      7.997
REMARK  Name = 3718
REMARK  4 active torsions:
REMARK  status: ('A' for Active; 'I' for Inactive)
REMARK    1  A    between atoms: C_1  and  N_8
REMARK    2  A    between atoms: C_2  and  C_17
REMARK    3  A    between atoms: C_17  and  C_20
REMARK    4  A    between atoms: C_20  and  O_21
REMARK                            x       y       z     vdW  Elec       q    Type
REMARK                         _______ _______ _______ _____ _____    ______ ____
ROOT
ATOM      1  C   UNL     1      35.339 -22.846 -15.752  0.00  0.00    +0.054 C 
ATOM      2  C   UNL     1      35.903 -24.229 -13.389  0.00  0.00    -0.012 C 
ATOM      3  C   UNL     1      36.662 -23.009 -15.331  0.00  0.00    +0.015 C 
ATOM      4  C   UNL     1      34.300 -23.380 -14.984  0.00  0.00    +0.015 C 
ATOM      5  C   UNL     1      36.943 -23.699 -14.152  0.00  0.00    -0.002 C 
ATOM      6  C   UNL     1      34.581 -24.069 -13.805  0.00  0.00    -0.002 C 
ENDROOT
BRANCH   1   8
ATOM      7  O   UNL     1      32.725 -22.539 -17.118  0.00  0.00    -0.270 OA
ATOM      8  N   UNL     1      35.058 -22.158 -16.926  0.00  0.00    -0.251 N 
ATOM      9  C   UNL     1      36.058 -21.438 -17.719  0.00  0.00    +0.125 C 
ATOM     10  C   UNL     1      35.257 -20.892 -18.848  0.00  0.00    +0.002 C 
ATOM     11  C   UNL     1      33.923 -21.260 -18.718  0.00  0.00    +0.052 C 
ATOM     12  C   UNL     1      33.780 -22.067 -17.500  0.00  0.00    +0.253 C 
ATOM     13  C   UNL     1      35.669 -20.120 -19.919  0.00  0.00    -0.002 C 
ATOM     14  C   UNL     1      32.954 -20.886 -19.630  0.00  0.00    +0.004 C 
ATOM     15  C   UNL     1      34.709 -19.727 -20.857  0.00  0.00    -0.000 C 
ATOM     16  C   UNL     1      33.363 -20.106 -20.714  0.00  0.00    +0.000 C 
ENDBRANCH   1   8
BRANCH   2  17
ATOM     17  C   UNL     1      36.205 -24.966 -12.128  0.00  0.00    +0.121 C 
ATOM     18  C   UNL     1      37.656 -25.477 -12.034  0.00  0.00    +0.016 C 
BRANCH  17  20
ATOM     19  O   UNL     1      36.431 -23.065 -10.610  0.00  0.00    -0.250 OA
ATOM     20  C   UNL     1      35.907 -24.139 -10.871  0.00  0.00    +0.317 C 
BRANCH  20  21
ATOM     21  O   UNL     1      34.993 -24.725 -10.052  0.00  0.00    -0.480 OA
ATOM     22  H   UNL     1      35.143 -24.749  -9.126  0.00  0.00    +0.295 HD
ENDBRANCH  20  21
ENDBRANCH  17  20
ENDBRANCH   2  17
TORSDOF 4
ENDMDL
MODEL 8
REMARK VINA RESULT:     -10.4      7.100     10.450
REMARK  Name = 3718
REMARK  4 active torsions:
REMARK  status: ('A' for Active; 'I' for Inactive)
REMARK    1  A    between atoms: C_1  and  N_8
REMARK    2  A    between atoms: C_2  and  C_17
REMARK    3  A    between atoms: C_17  and  C_20
REMARK    4  A    between atoms: C_20  and  O_21
REMARK                            x       y       z     vdW  Elec       q    Type
REMARK                         _______ _______ _______ _____ _____    ______ ____
ROOT
ATOM      1  C   UNL     1      32.959 -13.067 -22.271  0.00  0.00    +0.054 C 
ATOM      2  C   UNL     1      31.869 -10.492 -22.280  0.00  0.00    -0.012 C 
ATOM      3  C   UNL     1      33.334 -12.148 -23.254  0.00  0.00    +0.015 C 
ATOM      4  C   UNL     1      32.035 -12.690 -21.291  0.00  0.00    +0.015 C 
ATOM      5  C   UNL     1      32.790 -10.863 -23.259  0.00  0.00    -0.002 C 
ATOM      6  C   UNL     1      31.492 -11.406 -21.296  0.00  0.00    -0.002 C 
ENDROOT
BRANCH   1   8
ATOM      7  O   UNL     1      33.155 -14.985 -24.524  0.00  0.00    -0.270 OA
ATOM      8  N   UNL     1      33.500 -14.347 -22.266  0.00  0.00    -0.251 N 
ATOM      9  C   UNL     1      34.090 -14.988 -21.088  0.00  0.00    +0.125 C 
ATOM     10  C   UNL     1      34.509 -16.318 -21.608  0.00  0.00    +0.002 C 
ATOM     11  C   UNL     1      34.193 -16.432 -22.956  0.00  0.00    +0.052 C 
ATOM     12  C   UNL     1      33.549 -15.187 -23.390  0.00  0.00    +0.253 C 
ATOM     13  C   UNL     1      35.130 -17.360 -20.943  0.00  0.00    -0.002 C 
ATOM     14  C   UNL     1      34.472 -17.568 -23.694  0.00  0.00    +0.004 C 
ATOM     15  C   UNL     1      35.425 -18.521 -21.666  0.00  0.00    -0.000 C 
ATOM     16  C   UNL     1      35.099 -18.623 -23.030  0.00  0.00    +0.000 C 
ENDBRANCH   1   8
BRANCH   2  17
ATOM     17  C   UNL     1      31.288  -9.119 -22.286  0.00  0.00    +0.121 C 
ATOM     18  C   UNL     1      31.101  -8.512 -20.881  0.00  0.00    +0.016 C 
BRANCH  17  20
ATOM     19  O   UNL     1      33.243  -7.770 -22.857  0.00  0.00    -0.250 OA
ATOM     20  C   UNL     1      32.106  -8.132 -23.128  0.00  0.00    +0.317 C 
BRANCH  20  21
ATOM     21  O   UNL     1      31.436  -7.680 -24.221  0.00  0.00    -0.480 OA
ATOM     22  H   UNL     1      31.422  -6.764 -24.416  0.00  0.00    +0.295 HD
ENDBRANCH  20  21
ENDBRANCH  17  20
ENDBRANCH   2  17
TORSDOF 4
ENDMDL
MODEL 9
REMARK VINA RESULT:     -10.4      7.920     11.305
REMARK  Name = 3718
REMARK  4 active torsions:
REMARK  status: ('A' for Active; 'I' for Inactive)
REMARK    1  A    between atoms: C_1  and  N_8
REMARK    2  A    between atoms: C_2  and  C_17
REMARK    3  A    between atoms: C_17  and  C_20
REMARK    4  A    between atoms: C_20  and  O_21
REMARK                            x       y       z     vdW  Elec       q    Type
REMARK                         _______ _______ _______ _____ _____    ______ ____
ROOT
ATOM      1  C   UNL     1      32.633 -12.063 -22.394  0.00  0.00    +0.054 C 
ATOM      2  C   UNL     1      31.566  -9.479 -22.416  0.00  0.00    -0.012 C 
ATOM      3  C   UNL     1      31.606 -11.718 -21.511  0.00  0.00    +0.015 C 
ATOM      4  C   UNL     1      33.123 -11.107 -23.289  0.00  0.00    +0.015 C 
ATOM      5  C   UNL     1      31.073 -10.429 -21.522  0.00  0.00    -0.002 C 
ATOM      6  C   UNL     1      32.590  -9.818 -23.300  0.00  0.00    -0.002 C 
ENDROOT
BRANCH   1   8
ATOM      7  O   UNL     1      32.985 -13.922 -24.677  0.00  0.00    -0.270 OA
ATOM      8  N   UNL     1      33.164 -13.347 -22.383  0.00  0.00    -0.251 N 
ATOM      9  C   UNL     1      33.660 -14.023 -21.182  0.00  0.00    +0.125 C 
ATOM     10  C   UNL     1      34.109 -15.343 -21.704  0.00  0.00    +0.002 C 
ATOM     11  C   UNL     1      33.894 -15.419 -23.075  0.00  0.00    +0.052 C 
ATOM     12  C   UNL     1      33.292 -14.157 -23.522  0.00  0.00    +0.253 C 
ATOM     13  C   UNL     1      34.671 -16.407 -21.023  0.00  0.00    -0.002 C 
ATOM     14  C   UNL     1      34.220 -16.537 -23.820  0.00  0.00    +0.004 C 
ATOM     15  C   UNL     1      35.012 -17.551 -21.753  0.00  0.00    -0.000 C 
ATOM     16  C   UNL     1      34.789 -17.615 -23.139  0.00  0.00    +0.000 C 
ENDBRANCH   1   8
BRANCH   2  17
ATOM     17  C   UNL     1      30.996  -8.100 -22.427  0.00  0.00    +0.121 C 
ATOM     18  C   UNL     1      31.306  -7.285 -21.155  0.00  0.00    +0.016 C 
BRANCH  17  20
ATOM     19  O   UNL     1      30.870  -7.267 -24.721  0.00  0.00    -0.250 OA
ATOM     20  C   UNL     1      31.448  -7.281 -23.642  0.00  0.00    +0.317 C 
BRANCH  20  21
ATOM     21  O   UNL     1      32.579  -6.562 -23.410  0.00  0.00    -0.480 OA
ATOM     22  H   UNL     1      32.550  -5.812 -22.848  0.00  0.00    +0.295 HD
ENDBRANCH  20  21
ENDBRANCH  17  20
ENDBRANCH   2  17
TORSDOF 4
ENDMDL
