MODEL 1
REMARK VINA RESULT:     -12.6      0.000      0.000
REMARK  Name = 447994
REMARK  10 active torsions:
REMARK  status: ('A' for Active; 'I' for Inactive)
REMARK    1  A    between atoms: C_2  and  C_10
REMARK    2  A    between atoms: C_3  and  C_17
REMARK    3  A    between atoms: C_12  and  C_14
REMARK    4  A    between atoms: C_14  and  O_15
REMARK    5  A    between atoms: C_18  and  C_19
REMARK    6  A    between atoms: C_19  and  O_20
REMARK    7  A    between atoms: O_20  and  C_21
REMARK    8  A    between atoms: C_22  and  C_30
REMARK    9  A    between atoms: C_23  and  O_27
REMARK   10  A    between atoms: C_30  and  O_31
REMARK                            x       y       z     vdW  Elec       q    Type
REMARK                         _______ _______ _______ _____ _____    ______ ____
ROOT
ATOM      1  F   UNL     1      31.806 -20.086 -20.898  0.00  0.00    -0.204 F 
ATOM      2  C   UNL     1      34.098 -19.814 -20.326  0.00  0.00    +0.065 C 
ATOM      3  C   UNL     1      35.060 -21.248 -18.636  0.00  0.00    +0.000 C 
ATOM      4  C   UNL     1      35.193 -20.211 -19.559  0.00  0.00    +0.005 C 
ATOM      5  C   UNL     1      32.868 -20.455 -20.170  0.00  0.00    +0.143 C 
ATOM      6  C   UNL     1      33.831 -21.889 -18.480  0.00  0.00    +0.002 C 
ATOM      7  C   UNL     1      32.735 -21.492 -19.247  0.00  0.00    +0.030 C 
ENDROOT
BRANCH   2  10
ATOM      8  O   UNL     1      34.894 -17.646 -20.826  0.00  0.00    -0.353 OA
ATOM      9  N   UNL     1      34.955 -16.703 -21.845  0.00  0.00    -0.070 NA
ATOM     10  C   UNL     1      34.239 -18.741 -21.280  0.00  0.00    +0.179 C 
ATOM     11  C   UNL     1      33.859 -18.560 -22.577  0.00  0.00    +0.069 C 
ATOM     12  C   UNL     1      34.330 -17.271 -22.880  0.00  0.00    +0.198 C 
BRANCH  12  14
ATOM     13  O   UNL     1      33.624 -16.983 -25.131  0.00  0.00    -0.243 OA
ATOM     14  C   UNL     1      34.209 -16.562 -24.120  0.00  0.00    +0.359 C 
BRANCH  14  15
ATOM     15  O   UNL     1      34.804 -15.325 -24.142  0.00  0.00    -0.476 OA
ATOM     16  H   UNL     1      34.681 -14.732 -23.427  0.00  0.00    +0.295 HD
ENDBRANCH  14  15
ENDBRANCH  12  14
ENDBRANCH   2  10
BRANCH   3  17
ATOM     17  C   UNL     1      36.203 -21.662 -17.837  0.00  0.00    -0.001 C 
ATOM     18  C   UNL     1      36.319 -21.535 -16.495  0.00  0.00    +0.021 C 
BRANCH  18  19
ATOM     19  C   UNL     1      37.509 -21.990 -15.714  0.00  0.00    +0.232 C 
BRANCH  19  20
ATOM     20  O   UNL     1      37.325 -23.351 -15.353  0.00  0.00    -0.470 OA
BRANCH  20  21
ATOM     21  C   UNL     1      36.980 -23.606 -14.051  0.00  0.00    +0.148 C 
ATOM     22  C   UNL     1      36.984 -24.906 -13.556  0.00  0.00    +0.143 C 
ATOM     23  C   UNL     1      36.631 -25.142 -12.229  0.00  0.00    +0.143 C 
ATOM     24  C   UNL     1      36.627 -22.539 -13.232  0.00  0.00    +0.037 C 
ATOM     25  C   UNL     1      36.277 -24.077 -11.401  0.00  0.00    +0.037 C 
ATOM     26  C   UNL     1      36.275 -22.775 -11.903  0.00  0.00    +0.006 C 
BRANCH  23  27
ATOM     27  O   UNL     1      36.628 -26.406 -11.718  0.00  0.00    -0.505 OA
ATOM     28  H   UNL     1      35.834 -26.774 -11.383  0.00  0.00    +0.292 HD
ENDBRANCH  23  27
BRANCH  22  30
ATOM     29  O   UNL     1      36.650 -26.457 -15.337  0.00  0.00    -0.245 OA
ATOM     30  C   UNL     1      37.357 -26.021 -14.422  0.00  0.00    +0.347 C 
BRANCH  30  31
ATOM     31  O   UNL     1      38.585 -26.519 -14.091  0.00  0.00    -0.441 OA
ATOM     32  C   UNL     1      39.707 -25.654 -14.301  0.00  0.00    +0.256 C 
ENDBRANCH  30  31
ENDBRANCH  22  30
ENDBRANCH  20  21
ENDBRANCH  19  20
ENDBRANCH  18  19
ENDBRANCH   3  17
TORSDOF 10
ENDMDL
MODEL 2
REMARK VINA RESULT:     -12.5      2.700      3.635
REMARK  Name = 447994
REMARK  10 active torsions:
REMARK  status: ('A' for Active; 'I' for Inactive)
REMARK    1  A    between atoms: C_2  and  C_10
REMARK    2  A    between atoms: C_3  and  C_17
REMARK    3  A    between atoms: C_12  and  C_14
REMARK    4  A    between atoms: C_14  and  O_15
REMARK    5  A    between atoms: C_18  and  C_19
REMARK    6  A    between atoms: C_19  and  O_20
REMARK    7  A    between atoms: O_20  and  C_21
REMARK    8  A    between atoms: C_22  and  C_30
REMARK    9  A    between atoms: C_23  and  O_27
REMARK   10  A    between atoms: C_30  and  O_31
REMARK                            x       y       z     vdW  Elec       q    Type
REMARK                         _______ _______ _______ _____ _____    ______ ____
ROOT
ATOM      1  F   UNL     1      36.986 -17.546 -22.097  0.00  0.00    -0.204 F 
ATOM      2  C   UNL     1      34.772 -18.374 -21.834  0.00  0.00    +0.065 C 
ATOM      3  C   UNL     1      34.355 -20.105 -20.201  0.00  0.00    +0.000 C 
ATOM      4  C   UNL     1      33.889 -19.240 -21.190  0.00  0.00    +0.005 C 
ATOM      5  C   UNL     1      36.124 -18.372 -21.488  0.00  0.00    +0.143 C 
ATOM      6  C   UNL     1      35.707 -20.103 -19.855  0.00  0.00    +0.002 C 
ATOM      7  C   UNL     1      36.591 -19.237 -20.498  0.00  0.00    +0.030 C 
ENDROOT
BRANCH   2  10
ATOM      8  O   UNL     1      33.760 -18.083 -23.950  0.00  0.00    -0.353 OA
ATOM      9  N   UNL     1      33.335 -17.107 -24.842  0.00  0.00    -0.070 NA
ATOM     10  C   UNL     1      34.285 -17.480 -22.857  0.00  0.00    +0.179 C 
ATOM     11  C   UNL     1      34.223 -16.125 -22.989  0.00  0.00    +0.069 C 
ATOM     12  C   UNL     1      33.622 -15.946 -24.247  0.00  0.00    +0.198 C 
BRANCH  12  14
ATOM     13  O   UNL     1      33.147 -14.569 -26.125  0.00  0.00    -0.243 OA
ATOM     14  C   UNL     1      33.309 -14.709 -24.902  0.00  0.00    +0.359 C 
BRANCH  14  15
ATOM     15  O   UNL     1      33.191 -13.624 -24.069  0.00  0.00    -0.476 OA
ATOM     16  H   UNL     1      33.958 -13.219 -23.714  0.00  0.00    +0.295 HD
ENDBRANCH  14  15
ENDBRANCH  12  14
ENDBRANCH   2  10
BRANCH   3  17
ATOM     17  C   UNL     1      33.434 -21.008 -19.529  0.00  0.00    -0.001 C 
ATOM     18  C   UNL     1      33.722 -21.781 -18.457  0.00  0.00    +0.021 C 
BRANCH  18  19
ATOM     19  C   UNL     1      32.735 -22.685 -17.791  0.00  0.00    +0.232 C 
BRANCH  19  20
ATOM     20  O   UNL     1      33.417 -23.471 -16.825  0.00  0.00    -0.470 OA
BRANCH  20  21
ATOM     21  C   UNL     1      32.971 -23.387 -15.531  0.00  0.00    +0.148 C 
ATOM     22  C   UNL     1      33.739 -23.878 -14.481  0.00  0.00    +0.143 C 
ATOM     23  C   UNL     1      33.266 -23.781 -13.174  0.00  0.00    +0.143 C 
ATOM     24  C   UNL     1      31.734 -22.799 -15.287  0.00  0.00    +0.037 C 
ATOM     25  C   UNL     1      32.027 -23.192 -12.921  0.00  0.00    +0.037 C 
ATOM     26  C   UNL     1      31.262 -22.701 -13.979  0.00  0.00    +0.006 C 
BRANCH  23  27
ATOM     27  O   UNL     1      33.999 -24.253 -12.125  0.00  0.00    -0.505 OA
ATOM     28  H   UNL     1      34.813 -23.845 -11.901  0.00  0.00    +0.292 HD
ENDBRANCH  23  27
BRANCH  22  30
ATOM     29  O   UNL     1      35.187 -25.600 -15.275  0.00  0.00    -0.245 OA
ATOM     30  C   UNL     1      35.036 -24.494 -14.744  0.00  0.00    +0.347 C 
BRANCH  30  31
ATOM     31  O   UNL     1      36.061 -23.691 -14.330  0.00  0.00    -0.441 OA
ATOM     32  C   UNL     1      36.624 -22.811 -15.309  0.00  0.00    +0.256 C 
ENDBRANCH  30  31
ENDBRANCH  22  30
ENDBRANCH  20  21
ENDBRANCH  19  20
ENDBRANCH  18  19
ENDBRANCH   3  17
TORSDOF 10
ENDMDL
MODEL 3
REMARK VINA RESULT:     -12.4      1.303      2.265
REMARK  Name = 447994
REMARK  10 active torsions:
REMARK  status: ('A' for Active; 'I' for Inactive)
REMARK    1  A    between atoms: C_2  and  C_10
REMARK    2  A    between atoms: C_3  and  C_17
REMARK    3  A    between atoms: C_12  and  C_14
REMARK    4  A    between atoms: C_14  and  O_15
REMARK    5  A    between atoms: C_18  and  C_19
REMARK    6  A    between atoms: C_19  and  O_20
REMARK    7  A    between atoms: O_20  and  C_21
REMARK    8  A    between atoms: C_22  and  C_30
REMARK    9  A    between atoms: C_23  and  O_27
REMARK   10  A    between atoms: C_30  and  O_31
REMARK                            x       y       z     vdW  Elec       q    Type
REMARK                         _______ _______ _______ _____ _____    ______ ____
ROOT
ATOM      1  F   UNL     1      31.794 -20.143 -20.843  0.00  0.00    -0.204 F 
ATOM      2  C   UNL     1      34.092 -19.882 -20.289  0.00  0.00    +0.065 C 
ATOM      3  C   UNL     1      35.060 -21.314 -18.602  0.00  0.00    +0.000 C 
ATOM      4  C   UNL     1      35.191 -20.281 -19.529  0.00  0.00    +0.005 C 
ATOM      5  C   UNL     1      32.860 -20.515 -20.121  0.00  0.00    +0.143 C 
ATOM      6  C   UNL     1      33.828 -21.948 -18.434  0.00  0.00    +0.002 C 
ATOM      7  C   UNL     1      32.729 -21.549 -19.193  0.00  0.00    +0.030 C 
ENDROOT
BRANCH   2  10
ATOM      8  O   UNL     1      34.926 -17.734 -20.814  0.00  0.00    -0.353 OA
ATOM      9  N   UNL     1      34.980 -16.793 -21.836  0.00  0.00    -0.070 NA
ATOM     10  C   UNL     1      34.232 -18.813 -21.248  0.00  0.00    +0.179 C 
ATOM     11  C   UNL     1      33.819 -18.623 -22.533  0.00  0.00    +0.069 C 
ATOM     12  C   UNL     1      34.312 -17.347 -22.852  0.00  0.00    +0.198 C 
BRANCH  12  14
ATOM     13  O   UNL     1      33.569 -17.053 -25.090  0.00  0.00    -0.243 OA
ATOM     14  C   UNL     1      34.172 -16.635 -24.088  0.00  0.00    +0.359 C 
BRANCH  14  15
ATOM     15  O   UNL     1      34.770 -15.400 -24.119  0.00  0.00    -0.476 OA
ATOM     16  H   UNL     1      35.490 -15.212 -23.548  0.00  0.00    +0.295 HD
ENDBRANCH  14  15
ENDBRANCH  12  14
ENDBRANCH   2  10
BRANCH   3  17
ATOM     17  C   UNL     1      36.206 -21.732 -17.809  0.00  0.00    -0.001 C 
ATOM     18  C   UNL     1      36.627 -21.157 -16.660  0.00  0.00    +0.021 C 
BRANCH  18  19
ATOM     19  C   UNL     1      37.805 -21.631 -15.872  0.00  0.00    +0.232 C 
BRANCH  19  20
ATOM     20  O   UNL     1      37.337 -22.261 -14.688  0.00  0.00    -0.470 OA
BRANCH  20  21
ATOM     21  C   UNL     1      37.469 -23.624 -14.617  0.00  0.00    +0.148 C 
ATOM     22  C   UNL     1      36.353 -24.450 -14.687  0.00  0.00    +0.143 C 
ATOM     23  C   UNL     1      36.511 -25.833 -14.614  0.00  0.00    +0.143 C 
ATOM     24  C   UNL     1      38.743 -24.166 -14.475  0.00  0.00    +0.037 C 
ATOM     25  C   UNL     1      37.785 -26.384 -14.473  0.00  0.00    +0.037 C 
ATOM     26  C   UNL     1      38.900 -25.550 -14.403  0.00  0.00    +0.006 C 
BRANCH  23  27
ATOM     27  O   UNL     1      35.434 -26.667 -14.682  0.00  0.00    -0.505 OA
ATOM     28  H   UNL     1      35.163 -27.016 -15.508  0.00  0.00    +0.292 HD
ENDBRANCH  23  27
BRANCH  22  30
ATOM     29  O   UNL     1      34.301 -24.034 -15.829  0.00  0.00    -0.245 OA
ATOM     30  C   UNL     1      35.020 -23.875 -14.837  0.00  0.00    +0.347 C 
BRANCH  30  31
ATOM     31  O   UNL     1      34.669 -23.139 -13.741  0.00  0.00    -0.441 OA
ATOM     32  C   UNL     1      34.100 -23.857 -12.640  0.00  0.00    +0.256 C 
ENDBRANCH  30  31
ENDBRANCH  22  30
ENDBRANCH  20  21
ENDBRANCH  19  20
ENDBRANCH  18  19
ENDBRANCH   3  17
TORSDOF 10
ENDMDL
MODEL 4
REMARK VINA RESULT:     -12.2      5.852     13.298
REMARK  Name = 447994
REMARK  10 active torsions:
REMARK  status: ('A' for Active; 'I' for Inactive)
REMARK    1  A    between atoms: C_2  and  C_10
REMARK    2  A    between atoms: C_3  and  C_17
REMARK    3  A    between atoms: C_12  and  C_14
REMARK    4  A    between atoms: C_14  and  O_15
REMARK    5  A    between atoms: C_18  and  C_19
REMARK    6  A    between atoms: C_19  and  O_20
REMARK    7  A    between atoms: O_20  and  C_21
REMARK    8  A    between atoms: C_22  and  C_30
REMARK    9  A    between atoms: C_23  and  O_27
REMARK   10  A    between atoms: C_30  and  O_31
REMARK                            x       y       z     vdW  Elec       q    Type
REMARK                         _______ _______ _______ _____ _____    ______ ____
ROOT
ATOM      1  F   UNL     1      34.050 -18.996 -24.053  0.00  0.00    -0.204 F 
ATOM      2  C   UNL     1      34.446 -17.236 -22.504  0.00  0.00    +0.065 C 
ATOM      3  C   UNL     1      33.925 -14.967 -23.152  0.00  0.00    +0.000 C 
ATOM      4  C   UNL     1      34.402 -15.874 -22.206  0.00  0.00    +0.005 C 
ATOM      5  C   UNL     1      34.014 -17.691 -23.750  0.00  0.00    +0.143 C 
ATOM      6  C   UNL     1      33.493 -15.423 -24.398  0.00  0.00    +0.002 C 
ATOM      7  C   UNL     1      33.537 -16.785 -24.697  0.00  0.00    +0.030 C 
ENDROOT
BRANCH   2  10
ATOM      8  O   UNL     1      36.126 -17.844 -20.958  0.00  0.00    -0.353 OA
ATOM      9  N   UNL     1      36.474 -18.827 -20.039  0.00  0.00    -0.070 NA
ATOM     10  C   UNL     1      34.940 -18.170 -21.523  0.00  0.00    +0.179 C 
ATOM     11  C   UNL     1      34.479 -19.346 -21.008  0.00  0.00    +0.069 C 
ATOM     12  C   UNL     1      35.475 -19.713 -20.086  0.00  0.00    +0.198 C 
BRANCH  12  14
ATOM     13  O   UNL     1      34.969 -21.963 -19.510  0.00  0.00    -0.243 OA
ATOM     14  C   UNL     1      35.509 -20.876 -19.248  0.00  0.00    +0.359 C 
BRANCH  14  15
ATOM     15  O   UNL     1      36.205 -20.726 -18.075  0.00  0.00    -0.476 OA
ATOM     16  H   UNL     1      35.843 -20.217 -17.376  0.00  0.00    +0.295 HD
ENDBRANCH  14  15
ENDBRANCH  12  14
ENDBRANCH   2  10
BRANCH   3  17
ATOM     17  C   UNL     1      33.879 -13.547 -22.841  0.00  0.00    -0.001 C 
ATOM     18  C   UNL     1      33.300 -12.588 -23.599  0.00  0.00    +0.021 C 
BRANCH  18  19
ATOM     19  C   UNL     1      33.265 -11.140 -23.230  0.00  0.00    +0.232 C 
BRANCH  19  20
ATOM     20  O   UNL     1      31.921 -10.771 -22.958  0.00  0.00    -0.470 OA
BRANCH  20  21
ATOM     21  C   UNL     1      31.696 -10.049 -21.814  0.00  0.00    +0.148 C 
ATOM     22  C   UNL     1      31.782  -8.661 -21.823  0.00  0.00    +0.143 C 
ATOM     23  C   UNL     1      31.548  -7.946 -20.649  0.00  0.00    +0.143 C 
ATOM     24  C   UNL     1      31.379 -10.730 -20.644  0.00  0.00    +0.037 C 
ATOM     25  C   UNL     1      31.229  -8.623 -19.472  0.00  0.00    +0.037 C 
ATOM     26  C   UNL     1      31.144 -10.015 -19.470  0.00  0.00    +0.006 C 
BRANCH  23  27
ATOM     27  O   UNL     1      31.624  -6.585 -20.629  0.00  0.00    -0.505 OA
ATOM     28  H   UNL     1      31.801  -6.114 -21.420  0.00  0.00    +0.292 HD
ENDBRANCH  23  27
BRANCH  22  30
ATOM     29  O   UNL     1      31.309  -7.718 -23.962  0.00  0.00    -0.245 OA
ATOM     30  C   UNL     1      32.115  -7.952 -23.055  0.00  0.00    +0.347 C 
BRANCH  30  31
ATOM     31  O   UNL     1      33.429  -7.580 -23.076  0.00  0.00    -0.441 OA
ATOM     32  C   UNL     1      33.704  -6.213 -23.402  0.00  0.00    +0.256 C 
ENDBRANCH  30  31
ENDBRANCH  22  30
ENDBRANCH  20  21
ENDBRANCH  19  20
ENDBRANCH  18  19
ENDBRANCH   3  17
TORSDOF 10
ENDMDL
MODEL 5
REMARK VINA RESULT:     -12.1      3.780      6.437
REMARK  Name = 447994
REMARK  10 active torsions:
REMARK  status: ('A' for Active; 'I' for Inactive)
REMARK    1  A    between atoms: C_2  and  C_10
REMARK    2  A    between atoms: C_3  and  C_17
REMARK    3  A    between atoms: C_12  and  C_14
REMARK    4  A    between atoms: C_14  and  O_15
REMARK    5  A    between atoms: C_18  and  C_19
REMARK    6  A    between atoms: C_19  and  O_20
REMARK    7  A    between atoms: O_20  and  C_21
REMARK    8  A    between atoms: C_22  and  C_30
REMARK    9  A    between atoms: C_23  and  O_27
REMARK   10  A    between atoms: C_30  and  O_31
REMARK                            x       y       z     vdW  Elec       q    Type
REMARK                         _______ _______ _______ _____ _____    ______ ____
ROOT
ATOM      1  F   UNL     1      32.891 -14.710 -25.333  0.00  0.00    -0.204 F 
ATOM      2  C   UNL     1      33.586 -14.757 -23.060  0.00  0.00    +0.065 C 
ATOM      3  C   UNL     1      34.675 -16.739 -22.209  0.00  0.00    +0.000 C 
ATOM      4  C   UNL     1      34.189 -15.447 -22.009  0.00  0.00    +0.005 C 
ATOM      5  C   UNL     1      33.468 -15.359 -24.313  0.00  0.00    +0.143 C 
ATOM      6  C   UNL     1      34.557 -17.341 -23.462  0.00  0.00    +0.002 C 
ATOM      7  C   UNL     1      33.953 -16.651 -24.514  0.00  0.00    +0.030 C 
ENDROOT
BRANCH   2  10
ATOM      8  O   UNL     1      33.716 -12.449 -23.548  0.00  0.00    -0.353 OA
ATOM      9  N   UNL     1      33.132 -11.224 -23.247  0.00  0.00    -0.070 NA
ATOM     10  C   UNL     1      33.086 -13.421 -22.848  0.00  0.00    +0.179 C 
ATOM     11  C   UNL     1      32.091 -12.884 -22.085  0.00  0.00    +0.069 C 
ATOM     12  C   UNL     1      32.164 -11.510 -22.371  0.00  0.00    +0.198 C 
BRANCH  12  14
ATOM     13  O   UNL     1      31.679  -9.266 -21.756  0.00  0.00    -0.243 OA
ATOM     14  C   UNL     1      31.345 -10.459 -21.842  0.00  0.00    +0.359 C 
BRANCH  14  15
ATOM     15  O   UNL     1      30.103 -10.852 -21.410  0.00  0.00    -0.476 OA
ATOM     16  H   UNL     1      29.910 -10.872 -20.492  0.00  0.00    +0.295 HD
ENDBRANCH  14  15
ENDBRANCH  12  14
ENDBRANCH   2  10
BRANCH   3  17
ATOM     17  C   UNL     1      35.305 -17.459 -21.113  0.00  0.00    -0.001 C 
ATOM     18  C   UNL     1      35.536 -18.791 -21.069  0.00  0.00    +0.021 C 
BRANCH  18  19
ATOM     19  C   UNL     1      36.201 -19.484 -19.924  0.00  0.00    +0.232 C 
BRANCH  19  20
ATOM     20  O   UNL     1      35.558 -20.733 -19.712  0.00  0.00    -0.470 OA
BRANCH  20  21
ATOM     21  C   UNL     1      35.527 -21.203 -18.424  0.00  0.00    +0.148 C 
ATOM     22  C   UNL     1      34.464 -21.978 -17.976  0.00  0.00    +0.143 C 
ATOM     23  C   UNL     1      34.454 -22.447 -16.663  0.00  0.00    +0.143 C 
ATOM     24  C   UNL     1      36.583 -20.891 -17.573  0.00  0.00    +0.037 C 
ATOM     25  C   UNL     1      35.509 -22.138 -15.805  0.00  0.00    +0.037 C 
ATOM     26  C   UNL     1      36.573 -21.360 -16.260  0.00  0.00    +0.006 C 
BRANCH  23  27
ATOM     27  O   UNL     1      33.425 -23.210 -16.198  0.00  0.00    -0.505 OA
ATOM     28  H   UNL     1      33.087 -23.911 -16.722  0.00  0.00    +0.292 HD
ENDBRANCH  23  27
BRANCH  22  30
ATOM     29  O   UNL     1      33.358 -23.260 -19.657  0.00  0.00    -0.245 OA
ATOM     30  C   UNL     1      33.360 -22.303 -18.875  0.00  0.00    +0.347 C 
BRANCH  30  31
ATOM     31  O   UNL     1      32.331 -21.415 -18.740  0.00  0.00    -0.441 OA
ATOM     32  C   UNL     1      32.197 -20.426 -19.767  0.00  0.00    +0.256 C 
ENDBRANCH  30  31
ENDBRANCH  22  30
ENDBRANCH  20  21
ENDBRANCH  19  20
ENDBRANCH  18  19
ENDBRANCH   3  17
TORSDOF 10
ENDMDL
MODEL 6
REMARK VINA RESULT:     -11.9      2.844     10.707
REMARK  Name = 447994
REMARK  10 active torsions:
REMARK  status: ('A' for Active; 'I' for Inactive)
REMARK    1  A    between atoms: C_2  and  C_10
REMARK    2  A    between atoms: C_3  and  C_17
REMARK    3  A    between atoms: C_12  and  C_14
REMARK    4  A    between atoms: C_14  and  O_15
REMARK    5  A    between atoms: C_18  and  C_19
REMARK    6  A    between atoms: C_19  and  O_20
REMARK    7  A    between atoms: O_20  and  C_21
REMARK    8  A    between atoms: C_22  and  C_30
REMARK    9  A    between atoms: C_23  and  O_27
REMARK   10  A    between atoms: C_30  and  O_31
REMARK                            x       y       z     vdW  Elec       q    Type
REMARK                         _______ _______ _______ _____ _____    ______ ____
ROOT
ATOM      1  F   UNL     1      33.060 -23.342 -15.618  0.00  0.00    -0.204 F 
ATOM      2  C   UNL     1      34.981 -22.285 -16.538  0.00  0.00    +0.065 C 
ATOM      3  C   UNL     1      34.851 -21.354 -18.764  0.00  0.00    +0.000 C 
ATOM      4  C   UNL     1      35.580 -21.615 -17.604  0.00  0.00    +0.005 C 
ATOM      5  C   UNL     1      33.651 -22.696 -16.633  0.00  0.00    +0.143 C 
ATOM      6  C   UNL     1      33.521 -21.764 -18.858  0.00  0.00    +0.002 C 
ATOM      7  C   UNL     1      32.921 -22.435 -17.792  0.00  0.00    +0.030 C 
ENDROOT
BRANCH   2  10
ATOM      8  O   UNL     1      37.052 -22.818 -15.534  0.00  0.00    -0.353 OA
ATOM      9  N   UNL     1      37.650 -23.053 -14.301  0.00  0.00    -0.070 NA
ATOM     10  C   UNL     1      35.739 -22.553 -15.340  0.00  0.00    +0.179 C 
ATOM     11  C   UNL     1      35.437 -22.603 -14.011  0.00  0.00    +0.069 C 
ATOM     12  C   UNL     1      36.666 -22.920 -13.408  0.00  0.00    +0.198 C 
BRANCH  12  14
ATOM     13  O   UNL     1      37.417 -24.123 -11.502  0.00  0.00    -0.243 OA
ATOM     14  C   UNL     1      36.938 -23.098 -12.012  0.00  0.00    +0.359 C 
BRANCH  14  15
ATOM     15  O   UNL     1      36.626 -22.023 -11.217  0.00  0.00    -0.476 OA
ATOM     16  H   UNL     1      37.234 -21.727 -10.568  0.00  0.00    +0.295 HD
ENDBRANCH  14  15
ENDBRANCH  12  14
ENDBRANCH   2  10
BRANCH   3  17
ATOM     17  C   UNL     1      35.476 -20.654 -19.875  0.00  0.00    -0.001 C 
ATOM     18  C   UNL     1      35.811 -19.343 -19.899  0.00  0.00    +0.021 C 
BRANCH  18  19
ATOM     19  C   UNL     1      36.466 -18.671 -21.063  0.00  0.00    +0.232 C 
BRANCH  19  20
ATOM     20  O   UNL     1      35.663 -17.570 -21.464  0.00  0.00    -0.470 OA
BRANCH  20  21
ATOM     21  C   UNL     1      34.848 -17.762 -22.550  0.00  0.00    +0.148 C 
ATOM     22  C   UNL     1      34.211 -16.686 -23.159  0.00  0.00    +0.143 C 
ATOM     23  C   UNL     1      33.387 -16.904 -24.262  0.00  0.00    +0.143 C 
ATOM     24  C   UNL     1      34.669 -19.054 -23.032  0.00  0.00    +0.037 C 
ATOM     25  C   UNL     1      33.204 -18.197 -24.751  0.00  0.00    +0.037 C 
ATOM     26  C   UNL     1      33.845 -19.272 -24.136  0.00  0.00    +0.006 C 
BRANCH  23  27
ATOM     27  O   UNL     1      32.753 -15.867 -24.879  0.00  0.00    -0.505 OA
ATOM     28  H   UNL     1      32.559 -15.085 -24.401  0.00  0.00    +0.292 HD
ENDBRANCH  23  27
BRANCH  22  30
ATOM     29  O   UNL     1      34.655 -14.351 -23.356  0.00  0.00    -0.245 OA
ATOM     30  C   UNL     1      34.404 -15.332 -22.648  0.00  0.00    +0.347 C 
BRANCH  30  31
ATOM     31  O   UNL     1      34.271 -15.289 -21.289  0.00  0.00    -0.441 OA
ATOM     32  C   UNL     1      33.849 -14.043 -20.725  0.00  0.00    +0.256 C 
ENDBRANCH  30  31
ENDBRANCH  22  30
ENDBRANCH  20  21
ENDBRANCH  19  20
ENDBRANCH  18  19
ENDBRANCH   3  17
TORSDOF 10
ENDMDL
MODEL 7
REMARK VINA RESULT:     -11.8      3.045      4.705
REMARK  Name = 447994
REMARK  10 active torsions:
REMARK  status: ('A' for Active; 'I' for Inactive)
REMARK    1  A    between atoms: C_2  and  C_10
REMARK    2  A    between atoms: C_3  and  C_17
REMARK    3  A    between atoms: C_12  and  C_14
REMARK    4  A    between atoms: C_14  and  O_15
REMARK    5  A    between atoms: C_18  and  C_19
REMARK    6  A    between atoms: C_19  and  O_20
REMARK    7  A    between atoms: O_20  and  C_21
REMARK    8  A    between atoms: C_22  and  C_30
REMARK    9  A    between atoms: C_23  and  O_27
REMARK   10  A    between atoms: C_30  and  O_31
REMARK                            x       y       z     vdW  Elec       q    Type
REMARK                         _______ _______ _______ _____ _____    ______ ____
ROOT
ATOM      1  F   UNL     1      33.526 -16.544 -24.674  0.00  0.00    -0.204 F 
ATOM      2  C   UNL     1      34.343 -16.499 -22.441  0.00  0.00    +0.065 C 
ATOM      3  C   UNL     1      35.219 -18.532 -21.474  0.00  0.00    +0.000 C 
ATOM      4  C   UNL     1      34.914 -17.176 -21.364  0.00  0.00    +0.005 C 
ATOM      5  C   UNL     1      34.075 -17.180 -23.629  0.00  0.00    +0.143 C 
ATOM      6  C   UNL     1      34.951 -19.213 -22.662  0.00  0.00    +0.002 C 
ATOM      7  C   UNL     1      34.379 -18.536 -23.740  0.00  0.00    +0.030 C 
ENDROOT
BRANCH   2  10
ATOM      8  O   UNL     1      34.200 -14.567 -21.089  0.00  0.00    -0.353 OA
ATOM      9  N   UNL     1      33.864 -13.219 -21.126  0.00  0.00    -0.070 NA
ATOM     10  C   UNL     1      34.030 -15.096 -22.323  0.00  0.00    +0.179 C 
ATOM     11  C   UNL     1      33.590 -14.140 -23.190  0.00  0.00    +0.069 C 
ATOM     12  C   UNL     1      33.503 -12.987 -22.391  0.00  0.00    +0.198 C 
BRANCH  12  14
ATOM     13  O   UNL     1      32.052 -11.106 -22.413  0.00  0.00    -0.243 OA
ATOM     14  C   UNL     1      33.090 -11.673 -22.788  0.00  0.00    +0.359 C 
BRANCH  14  15
ATOM     15  O   UNL     1      33.942 -11.033 -23.654  0.00  0.00    -0.476 OA
ATOM     16  H   UNL     1      34.866 -11.174 -23.593  0.00  0.00    +0.295 HD
ENDBRANCH  14  15
ENDBRANCH  12  14
ENDBRANCH   2  10
BRANCH   3  17
ATOM     17  C   UNL     1      35.815 -19.239 -20.350  0.00  0.00    -0.001 C 
ATOM     18  C   UNL     1      35.414 -20.435 -19.863  0.00  0.00    +0.021 C 
BRANCH  18  19
ATOM     19  C   UNL     1      36.069 -21.129 -18.713  0.00  0.00    +0.232 C 
BRANCH  19  20
ATOM     20  O   UNL     1      35.112 -21.300 -17.678  0.00  0.00    -0.470 OA
BRANCH  20  21
ATOM     21  C   UNL     1      35.482 -22.082 -16.614  0.00  0.00    +0.148 C 
ATOM     22  C   UNL     1      34.578 -22.964 -16.033  0.00  0.00    +0.143 C 
ATOM     23  C   UNL     1      34.975 -23.751 -14.953  0.00  0.00    +0.143 C 
ATOM     24  C   UNL     1      36.781 -21.978 -16.127  0.00  0.00    +0.037 C 
ATOM     25  C   UNL     1      36.276 -23.653 -14.460  0.00  0.00    +0.037 C 
ATOM     26  C   UNL     1      37.179 -22.766 -15.048  0.00  0.00    +0.006 C 
BRANCH  23  27
ATOM     27  O   UNL     1      34.110 -24.625 -14.365  0.00  0.00    -0.505 OA
ATOM     28  H   UNL     1      34.373 -25.510 -14.208  0.00  0.00    +0.292 HD
ENDBRANCH  23  27
BRANCH  22  30
ATOM     29  O   UNL     1      32.934 -23.417 -17.701  0.00  0.00    -0.245 OA
ATOM     30  C   UNL     1      33.216 -23.068 -16.549  0.00  0.00    +0.347 C 
BRANCH  30  31
ATOM     31  O   UNL     1      32.295 -22.733 -15.598  0.00  0.00    -0.441 OA
ATOM     32  C   UNL     1      30.934 -22.628 -16.030  0.00  0.00    +0.256 C 
ENDBRANCH  30  31
ENDBRANCH  22  30
ENDBRANCH  20  21
ENDBRANCH  19  20
ENDBRANCH  18  19
ENDBRANCH   3  17
TORSDOF 10
ENDMDL
MODEL 8
REMARK VINA RESULT:     -11.7      4.781     11.119
REMARK  Name = 447994
REMARK  10 active torsions:
REMARK  status: ('A' for Active; 'I' for Inactive)
REMARK    1  A    between atoms: C_2  and  C_10
REMARK    2  A    between atoms: C_3  and  C_17
REMARK    3  A    between atoms: C_12  and  C_14
REMARK    4  A    between atoms: C_14  and  O_15
REMARK    5  A    between atoms: C_18  and  C_19
REMARK    6  A    between atoms: C_19  and  O_20
REMARK    7  A    between atoms: O_20  and  C_21
REMARK    8  A    between atoms: C_22  and  C_30
REMARK    9  A    between atoms: C_23  and  O_27
REMARK   10  A    between atoms: C_30  and  O_31
REMARK                            x       y       z     vdW  Elec       q    Type
REMARK                         _______ _______ _______ _____ _____    ______ ____
ROOT
ATOM      1  F   UNL     1      34.995 -22.455 -16.956  0.00  0.00    -0.204 F 
ATOM      2  C   UNL     1      33.318 -21.498 -18.343  0.00  0.00    +0.065 C 
ATOM      3  C   UNL     1      33.989 -20.216 -20.278  0.00  0.00    +0.000 C 
ATOM      4  C   UNL     1      32.984 -20.741 -19.466  0.00  0.00    +0.005 C 
ATOM      5  C   UNL     1      34.658 -21.730 -18.032  0.00  0.00    +0.143 C 
ATOM      6  C   UNL     1      35.329 -20.449 -19.967  0.00  0.00    +0.002 C 
ATOM      7  C   UNL     1      35.664 -21.206 -18.843  0.00  0.00    +0.030 C 
ENDROOT
BRANCH   2  10
ATOM      8  O   UNL     1      31.027 -21.585 -17.770  0.00  0.00    -0.353 OA
ATOM      9  N   UNL     1      30.133 -22.188 -16.893  0.00  0.00    -0.070 NA
ATOM     10  C   UNL     1      32.275 -22.039 -17.506  0.00  0.00    +0.179 C 
ATOM     11  C   UNL     1      32.245 -22.931 -16.475  0.00  0.00    +0.069 C 
ATOM     12  C   UNL     1      30.884 -22.988 -16.130  0.00  0.00    +0.198 C 
BRANCH  12  14
ATOM     13  O   UNL     1      29.744 -24.887 -15.269  0.00  0.00    -0.243 OA
ATOM     14  C   UNL     1      30.271 -23.776 -15.101  0.00  0.00    +0.359 C 
BRANCH  14  15
ATOM     15  O   UNL     1      30.293 -23.214 -13.848  0.00  0.00    -0.476 OA
ATOM     16  H   UNL     1      31.112 -23.038 -13.427  0.00  0.00    +0.295 HD
ENDBRANCH  14  15
ENDBRANCH  12  14
ENDBRANCH   2  10
BRANCH   3  17
ATOM     17  C   UNL     1      33.642 -19.427 -21.449  0.00  0.00    -0.001 C 
ATOM     18  C   UNL     1      34.510 -18.754 -22.238  0.00  0.00    +0.021 C 
BRANCH  18  19
ATOM     19  C   UNL     1      34.106 -17.967 -23.442  0.00  0.00    +0.232 C 
BRANCH  19  20
ATOM     20  O   UNL     1      34.784 -16.719 -23.420  0.00  0.00    -0.470 OA
BRANCH  20  21
ATOM     21  C   UNL     1      34.236 -15.730 -22.645  0.00  0.00    +0.148 C 
ATOM     22  C   UNL     1      33.493 -14.705 -23.220  0.00  0.00    +0.143 C 
ATOM     23  C   UNL     1      32.944 -13.710 -22.413  0.00  0.00    +0.143 C 
ATOM     24  C   UNL     1      34.435 -15.771 -21.268  0.00  0.00    +0.037 C 
ATOM     25  C   UNL     1      33.139 -13.746 -21.032  0.00  0.00    +0.037 C 
ATOM     26  C   UNL     1      33.885 -14.777 -20.461  0.00  0.00    +0.006 C 
BRANCH  23  27
ATOM     27  O   UNL     1      32.211 -12.695 -22.951  0.00  0.00    -0.505 OA
ATOM     28  H   UNL     1      31.277 -12.759 -22.987  0.00  0.00    +0.292 HD
ENDBRANCH  23  27
BRANCH  22  30
ATOM     29  O   UNL     1      32.970 -15.648 -25.348  0.00  0.00    -0.245 OA
ATOM     30  C   UNL     1      33.288 -14.668 -24.665  0.00  0.00    +0.347 C 
BRANCH  30  31
ATOM     31  O   UNL     1      33.491 -13.413 -25.165  0.00  0.00    -0.441 OA
ATOM     32  C   UNL     1      32.615 -12.992 -26.217  0.00  0.00    +0.256 C 
ENDBRANCH  30  31
ENDBRANCH  22  30
ENDBRANCH  20  21
ENDBRANCH  19  20
ENDBRANCH  18  19
ENDBRANCH   3  17
TORSDOF 10
ENDMDL
MODEL 9
REMARK VINA RESULT:     -11.5      2.954     10.173
REMARK  Name = 447994
REMARK  10 active torsions:
REMARK  status: ('A' for Active; 'I' for Inactive)
REMARK    1  A    between atoms: C_2  and  C_10
REMARK    2  A    between atoms: C_3  and  C_17
REMARK    3  A    between atoms: C_12  and  C_14
REMARK    4  A    between atoms: C_14  and  O_15
REMARK    5  A    between atoms: C_18  and  C_19
REMARK    6  A    between atoms: C_19  and  O_20
REMARK    7  A    between atoms: O_20  and  C_21
REMARK    8  A    between atoms: C_22  and  C_30
REMARK    9  A    between atoms: C_23  and  O_27
REMARK   10  A    between atoms: C_30  and  O_31
REMARK                            x       y       z     vdW  Elec       q    Type
REMARK                         _______ _______ _______ _____ _____    ______ ____
ROOT
ATOM      1  F   UNL     1      32.952 -23.711 -13.843  0.00  0.00    -0.204 F 
ATOM      2  C   UNL     1      33.884 -22.905 -15.876  0.00  0.00    +0.065 C 
ATOM      3  C   UNL     1      32.402 -22.093 -17.603  0.00  0.00    +0.000 C 
ATOM      4  C   UNL     1      33.692 -22.359 -17.145  0.00  0.00    +0.005 C 
ATOM      5  C   UNL     1      32.785 -23.186 -15.064  0.00  0.00    +0.143 C 
ATOM      6  C   UNL     1      31.303 -22.374 -16.791  0.00  0.00    +0.002 C 
ATOM      7  C   UNL     1      31.494 -22.921 -15.522  0.00  0.00    +0.030 C 
ENDROOT
BRANCH   2  10
ATOM      8  O   UNL     1      36.035 -22.100 -15.320  0.00  0.00    -0.353 OA
ATOM      9  N   UNL     1      37.279 -22.512 -14.857  0.00  0.00    -0.070 NA
ATOM     10  C   UNL     1      35.221 -23.178 -15.406  0.00  0.00    +0.179 C 
ATOM     11  C   UNL     1      35.883 -24.303 -15.012  0.00  0.00    +0.069 C 
ATOM     12  C   UNL     1      37.164 -23.831 -14.680  0.00  0.00    +0.198 C 
BRANCH  12  14
ATOM     13  O   UNL     1      38.713 -25.632 -14.715  0.00  0.00    -0.243 OA
ATOM     14  C   UNL     1      38.281 -24.589 -14.199  0.00  0.00    +0.359 C 
BRANCH  14  15
ATOM     15  O   UNL     1      38.888 -24.082 -13.076  0.00  0.00    -0.476 OA
ATOM     16  H   UNL     1      39.187 -23.194 -13.065  0.00  0.00    +0.295 HD
ENDBRANCH  14  15
ENDBRANCH  12  14
ENDBRANCH   2  10
BRANCH   3  17
ATOM     17  C   UNL     1      32.202 -21.524 -18.926  0.00  0.00    -0.001 C 
ATOM     18  C   UNL     1      32.874 -20.471 -19.446  0.00  0.00    +0.021 C 
BRANCH  18  19
ATOM     19  C   UNL     1      32.642 -19.930 -20.820  0.00  0.00    +0.232 C 
BRANCH  19  20
ATOM     20  O   UNL     1      33.897 -19.614 -21.404  0.00  0.00    -0.470 OA
BRANCH  20  21
ATOM     21  C   UNL     1      33.894 -18.697 -22.423  0.00  0.00    +0.148 C 
ATOM     22  C   UNL     1      34.416 -17.422 -22.234  0.00  0.00    +0.143 C 
ATOM     23  C   UNL     1      34.403 -16.507 -23.285  0.00  0.00    +0.143 C 
ATOM     24  C   UNL     1      33.359 -19.067 -23.653  0.00  0.00    +0.037 C 
ATOM     25  C   UNL     1      33.868 -16.870 -24.521  0.00  0.00    +0.037 C 
ATOM     26  C   UNL     1      33.346 -18.151 -24.704  0.00  0.00    +0.006 C 
BRANCH  23  27
ATOM     27  O   UNL     1      34.909 -15.251 -23.128  0.00  0.00    -0.505 OA
ATOM     28  H   UNL     1      35.791 -15.065 -23.386  0.00  0.00    +0.292 HD
ENDBRANCH  23  27
BRANCH  22  30
ATOM     29  O   UNL     1      34.541 -16.124 -20.237  0.00  0.00    -0.245 OA
ATOM     30  C   UNL     1      34.976 -17.041 -20.941  0.00  0.00    +0.347 C 
BRANCH  30  31
ATOM     31  O   UNL     1      36.043 -17.828 -20.610  0.00  0.00    -0.441 OA
ATOM     32  C   UNL     1      36.936 -18.182 -21.671  0.00  0.00    +0.256 C 
ENDBRANCH  30  31
ENDBRANCH  22  30
ENDBRANCH  20  21
ENDBRANCH  19  20
ENDBRANCH  18  19
ENDBRANCH   3  17
TORSDOF 10
ENDMDL
