MODEL 1
REMARK VINA RESULT:     -15.1      0.000      0.000
REMARK  Name = 5073
REMARK  4 active torsions:
REMARK  status: ('A' for Active; 'I' for Inactive)
REMARK    1  A    between atoms: N_1  and  C_18
REMARK    2  A    between atoms: C_2  and  C_11
REMARK    3  A    between atoms: C_18  and  C_19
REMARK    4  A    between atoms: C_19  and  C_23
REMARK                            x       y       z     vdW  Elec       q    Type
REMARK                         _______ _______ _______ _____ _____    ______ ____
ROOT
ATOM      1  N   UNL     1      35.340 -19.319 -20.179  0.00  0.00    +0.387 N 
ATOM      2  C   UNL     1      34.725 -18.049 -22.751  0.00  0.00    +0.039 C 
ATOM      3  C   UNL     1      33.660 -18.778 -21.914  0.00  0.00    -0.017 C 
ATOM      4  C   UNL     1      35.859 -17.556 -21.837  0.00  0.00    -0.017 C 
ATOM      5  C   UNL     1      34.289 -19.870 -21.046  0.00  0.00    -0.077 C 
ATOM      6  C   UNL     1      36.407 -18.693 -20.972  0.00  0.00    -0.077 C 
ATOM      7  H   UNL     1      34.919 -18.598 -19.593  0.00  0.00    -0.080 HD
ENDROOT
BRANCH   2  11
ATOM      8  F   UNL     1      32.867 -11.623 -23.433  0.00  0.00    -0.204 F 
ATOM      9  O   UNL     1      33.281 -16.014 -25.350  0.00  0.00    -0.354 OA
ATOM     10  N   UNL     1      33.763 -17.218 -24.852  0.00  0.00    -0.081 NA
ATOM     11  C   UNL     1      34.141 -16.946 -23.605  0.00  0.00    +0.100 A 
ATOM     12  C   UNL     1      33.932 -15.607 -23.246  0.00  0.00    +0.054 A 
ATOM     13  C   UNL     1      33.384 -15.054 -24.391  0.00  0.00    +0.179 A 
ATOM     14  C   UNL     1      34.130 -14.790 -22.123  0.00  0.00    +0.007 C 
ATOM     15  C   UNL     1      33.005 -13.720 -24.514  0.00  0.00    +0.070 C 
ATOM     16  C   UNL     1      33.759 -13.440 -22.212  0.00  0.00    +0.030 C 
ATOM     17  C   UNL     1      33.208 -12.918 -23.386  0.00  0.00    +0.143 C 
ENDBRANCH   2  11
BRANCH   1  18
ATOM     18  C   UNL     1      35.890 -20.364 -19.315  0.00  0.00    -0.076 C 
BRANCH  18  19
ATOM     19  C   UNL     1      35.019 -21.610 -19.392  0.00  0.00    -0.007 C 
BRANCH  19  23
ATOM     20  O   UNL     1      32.299 -22.055 -19.009  0.00  0.00    -0.274 OA
ATOM     21  N   UNL     1      32.468 -22.482 -16.725  0.00  0.00    -0.237 N 
ATOM     22  N   UNL     1      34.582 -22.335 -15.671  0.00  0.00    -0.399 NA
ATOM     23  C   UNL     1      34.457 -21.953 -18.043  0.00  0.00    +0.123 C 
ATOM     24  C   UNL     1      31.012 -22.616 -16.612  0.00  0.00    +0.100 C 
ATOM     25  C   UNL     1      30.534 -23.302 -15.346  0.00  0.00    +0.022 C 
ATOM     26  C   UNL     1      33.302 -22.531 -15.622  0.00  0.00    +0.165 C 
ATOM     27  C   UNL     1      31.224 -22.677 -14.152  0.00  0.00    +0.011 C 
ATOM     28  C   UNL     1      32.717 -22.903 -14.272  0.00  0.00    +0.075 C 
ATOM     29  C   UNL     1      32.977 -22.169 -17.988  0.00  0.00    +0.237 C 
ATOM     30  C   UNL     1      35.149 -22.051 -16.890  0.00  0.00    +0.096 C 
ATOM     31  C   UNL     1      36.644 -21.885 -16.817  0.00  0.00    +0.062 C 
ENDBRANCH  19  23
ENDBRANCH  18  19
ENDBRANCH   1  18
TORSDOF 4
ENDMDL
MODEL 2
REMARK VINA RESULT:     -14.2      1.195      1.973
REMARK  Name = 5073
REMARK  4 active torsions:
REMARK  status: ('A' for Active; 'I' for Inactive)
REMARK    1  A    between atoms: N_1  and  C_18
REMARK    2  A    between atoms: C_2  and  C_11
REMARK    3  A    between atoms: C_18  and  C_19
REMARK    4  A    between atoms: C_19  and  C_23
REMARK                            x       y       z     vdW  Elec       q    Type
REMARK                         _______ _______ _______ _____ _____    ______ ____
ROOT
ATOM      1  N   UNL     1      34.945 -18.978 -20.588  0.00  0.00    +0.387 N 
ATOM      2  C   UNL     1      34.763 -17.271 -22.967  0.00  0.00    +0.039 C 
ATOM      3  C   UNL     1      33.945 -18.563 -22.814  0.00  0.00    -0.017 C 
ATOM      4  C   UNL     1      35.130 -16.718 -21.580  0.00  0.00    -0.017 C 
ATOM      5  C   UNL     1      34.657 -19.567 -21.904  0.00  0.00    -0.077 C 
ATOM      6  C   UNL     1      35.799 -17.789 -20.715  0.00  0.00    -0.077 C 
ATOM      7  H   UNL     1      34.060 -18.688 -20.173  0.00  0.00    -0.080 HD
ENDROOT
BRANCH   2  11
ATOM      8  F   UNL     1      32.474 -11.010 -23.847  0.00  0.00    -0.204 F 
ATOM      9  O   UNL     1      33.092 -15.450 -25.588  0.00  0.00    -0.354 OA
ATOM     10  N   UNL     1      33.668 -16.597 -25.060  0.00  0.00    -0.081 NA
ATOM     11  C   UNL     1      34.077 -16.246 -23.842  0.00  0.00    +0.100 A 
ATOM     12  C   UNL     1      33.798 -14.907 -23.533  0.00  0.00    +0.054 A 
ATOM     13  C   UNL     1      33.170 -14.442 -24.677  0.00  0.00    +0.179 A 
ATOM     14  C   UNL     1      33.988 -14.029 -22.456  0.00  0.00    +0.007 C 
ATOM     15  C   UNL     1      32.703 -13.142 -24.841  0.00  0.00    +0.070 C 
ATOM     16  C   UNL     1      33.528 -12.711 -22.587  0.00  0.00    +0.030 C 
ATOM     17  C   UNL     1      32.899 -12.278 -23.758  0.00  0.00    +0.143 C 
ENDBRANCH   2  11
BRANCH   1  18
ATOM     18  C   UNL     1      35.573 -19.968 -19.712  0.00  0.00    -0.076 C 
BRANCH  18  19
ATOM     19  C   UNL     1      34.934 -21.332 -19.931  0.00  0.00    -0.007 C 
BRANCH  19  23
ATOM     20  O   UNL     1      35.563 -22.478 -17.474  0.00  0.00    -0.274 OA
ATOM     21  N   UNL     1      33.378 -22.469 -16.665  0.00  0.00    -0.237 N 
ATOM     22  N   UNL     1      31.632 -21.670 -18.048  0.00  0.00    -0.399 NA
ATOM     23  C   UNL     1      33.883 -21.602 -18.893  0.00  0.00    +0.123 C 
ATOM     24  C   UNL     1      33.799 -23.152 -15.437  0.00  0.00    +0.100 C 
ATOM     25  C   UNL     1      32.802 -23.079 -14.296  0.00  0.00    +0.022 C 
ATOM     26  C   UNL     1      32.051 -22.196 -16.940  0.00  0.00    +0.165 C 
ATOM     27  C   UNL     1      31.429 -23.456 -14.813  0.00  0.00    +0.011 C 
ATOM     28  C   UNL     1      31.008 -22.455 -15.868  0.00  0.00    +0.075 C 
ATOM     29  C   UNL     1      34.368 -22.219 -17.618  0.00  0.00    +0.237 C 
ATOM     30  C   UNL     1      32.561 -21.373 -19.016  0.00  0.00    +0.096 C 
ATOM     31  C   UNL     1      31.952 -20.731 -20.235  0.00  0.00    +0.062 C 
ENDBRANCH  19  23
ENDBRANCH  18  19
ENDBRANCH   1  18
TORSDOF 4
ENDMDL
MODEL 3
REMARK VINA RESULT:     -14.1      3.474     10.149
REMARK  Name = 5073
REMARK  4 active torsions:
REMARK  status: ('A' for Active; 'I' for Inactive)
REMARK    1  A    between atoms: N_1  and  C_18
REMARK    2  A    between atoms: C_2  and  C_11
REMARK    3  A    between atoms: C_18  and  C_19
REMARK    4  A    between atoms: C_19  and  C_23
REMARK                            x       y       z     vdW  Elec       q    Type
REMARK                         _______ _______ _______ _____ _____    ______ ____
ROOT
ATOM      1  N   UNL     1      33.737 -20.043 -20.077  0.00  0.00    +0.387 N 
ATOM      2  C   UNL     1      33.604 -22.201 -18.092  0.00  0.00    +0.039 C 
ATOM      3  C   UNL     1      34.915 -21.473 -18.434  0.00  0.00    -0.017 C 
ATOM      4  C   UNL     1      32.405 -21.290 -18.404  0.00  0.00    -0.017 C 
ATOM      5  C   UNL     1      34.891 -20.929 -19.865  0.00  0.00    -0.077 C 
ATOM      6  C   UNL     1      32.473 -20.753 -19.835  0.00  0.00    -0.077 C 
ATOM      7  H   UNL     1      33.802 -19.277 -19.406  0.00  0.00    -0.080 HD
ENDROOT
BRANCH   2  11
ATOM      8  F   UNL     1      30.128 -23.870 -12.584  0.00  0.00    -0.204 F 
ATOM      9  O   UNL     1      34.367 -23.519 -14.828  0.00  0.00    -0.354 OA
ATOM     10  N   UNL     1      34.728 -23.084 -16.096  0.00  0.00    -0.081 NA
ATOM     11  C   UNL     1      33.583 -22.731 -16.677  0.00  0.00    +0.100 A 
ATOM     12  C   UNL     1      32.468 -22.913 -15.847  0.00  0.00    +0.054 A 
ATOM     13  C   UNL     1      33.018 -23.417 -14.681  0.00  0.00    +0.179 A 
ATOM     14  C   UNL     1      31.079 -22.724 -15.919  0.00  0.00    +0.007 C 
ATOM     15  C   UNL     1      32.282 -23.757 -13.550  0.00  0.00    +0.070 C 
ATOM     16  C   UNL     1      30.307 -23.056 -14.797  0.00  0.00    +0.030 C 
ATOM     17  C   UNL     1      30.899 -23.563 -13.636  0.00  0.00    +0.143 C 
ENDBRANCH   2  11
BRANCH   1  18
ATOM     18  C   UNL     1      33.762 -19.487 -21.430  0.00  0.00    -0.076 C 
BRANCH  18  19
ATOM     19  C   UNL     1      34.829 -18.407 -21.525  0.00  0.00    -0.007 C 
BRANCH  19  23
ATOM     20  O   UNL     1      34.558 -15.773 -20.667  0.00  0.00    -0.274 OA
ATOM     21  N   UNL     1      33.894 -14.937 -22.737  0.00  0.00    -0.237 N 
ATOM     22  N   UNL     1      33.648 -16.422 -24.563  0.00  0.00    -0.399 NA
ATOM     23  C   UNL     1      34.399 -17.312 -22.458  0.00  0.00    +0.123 C 
ATOM     24  C   UNL     1      33.700 -13.600 -22.168  0.00  0.00    +0.100 C 
ATOM     25  C   UNL     1      33.621 -12.480 -23.189  0.00  0.00    +0.022 C 
ATOM     26  C   UNL     1      33.569 -15.236 -24.048  0.00  0.00    +0.165 C 
ATOM     27  C   UNL     1      32.645 -12.871 -24.278  0.00  0.00    +0.011 C 
ATOM     28  C   UNL     1      33.160 -14.111 -24.980  0.00  0.00    +0.075 C 
ATOM     29  C   UNL     1      34.300 -15.944 -21.858  0.00  0.00    +0.237 C 
ATOM     30  C   UNL     1      34.069 -17.453 -23.757  0.00  0.00    +0.096 C 
ATOM     31  C   UNL     1      34.154 -18.769 -24.485  0.00  0.00    +0.062 C 
ENDBRANCH  19  23
ENDBRANCH  18  19
ENDBRANCH   1  18
TORSDOF 4
ENDMDL
MODEL 4
REMARK VINA RESULT:     -14.1      3.571      9.635
REMARK  Name = 5073
REMARK  4 active torsions:
REMARK  status: ('A' for Active; 'I' for Inactive)
REMARK    1  A    between atoms: N_1  and  C_18
REMARK    2  A    between atoms: C_2  and  C_11
REMARK    3  A    between atoms: C_18  and  C_19
REMARK    4  A    between atoms: C_19  and  C_23
REMARK                            x       y       z     vdW  Elec       q    Type
REMARK                         _______ _______ _______ _____ _____    ______ ____
ROOT
ATOM      1  N   UNL     1      34.247 -18.856 -20.998  0.00  0.00    +0.387 N 
ATOM      2  C   UNL     1      34.311 -21.296 -19.369  0.00  0.00    +0.039 C 
ATOM      3  C   UNL     1      35.522 -20.355 -19.496  0.00  0.00    -0.017 C 
ATOM      4  C   UNL     1      33.014 -20.514 -19.635  0.00  0.00    -0.017 C 
ATOM      5  C   UNL     1      35.502 -19.602 -20.828  0.00  0.00    -0.077 C 
ATOM      6  C   UNL     1      33.086 -19.756 -20.963  0.00  0.00    -0.077 C 
ATOM      7  H   UNL     1      34.163 -18.202 -20.219  0.00  0.00    -0.080 HD
ENDROOT
BRANCH   2  11
ATOM      8  F   UNL     1      37.275 -22.844 -13.535  0.00  0.00    -0.204 F 
ATOM      9  O   UNL     1      33.521 -23.329 -16.502  0.00  0.00    -0.354 OA
ATOM     10  N   UNL     1      33.234 -22.798 -17.753  0.00  0.00    -0.081 NA
ATOM     11  C   UNL     1      34.286 -22.039 -18.052  0.00  0.00    +0.100 A 
ATOM     12  C   UNL     1      35.267 -22.038 -17.051  0.00  0.00    +0.054 A 
ATOM     13  C   UNL     1      34.734 -22.874 -16.084  0.00  0.00    +0.179 A 
ATOM     14  C   UNL     1      36.522 -21.452 -16.827  0.00  0.00    +0.007 C 
ATOM     15  C   UNL     1      35.362 -23.183 -14.881  0.00  0.00    +0.070 C 
ATOM     16  C   UNL     1      37.184 -21.742 -15.625  0.00  0.00    +0.030 C 
ATOM     17  C   UNL     1      36.612 -22.591 -14.672  0.00  0.00    +0.143 C 
ENDBRANCH   2  11
BRANCH   1  18
ATOM     18  C   UNL     1      34.269 -18.097 -22.248  0.00  0.00    -0.076 C 
BRANCH  18  19
ATOM     19  C   UNL     1      35.118 -16.845 -22.078  0.00  0.00    -0.007 C 
BRANCH  19  23
ATOM     20  O   UNL     1      34.085 -15.370 -19.956  0.00  0.00    -0.274 OA
ATOM     21  N   UNL     1      33.045 -13.769 -21.291  0.00  0.00    -0.237 N 
ATOM     22  N   UNL     1      33.155 -13.973 -23.646  0.00  0.00    -0.399 NA
ATOM     23  C   UNL     1      34.298 -15.608 -22.301  0.00  0.00    +0.123 C 
ATOM     24  C   UNL     1      32.477 -13.111 -20.110  0.00  0.00    +0.100 C 
ATOM     25  C   UNL     1      31.974 -11.700 -20.350  0.00  0.00    +0.022 C 
ATOM     26  C   UNL     1      32.741 -13.366 -22.579  0.00  0.00    +0.165 C 
ATOM     27  C   UNL     1      31.098 -11.689 -21.585  0.00  0.00    +0.011 C 
ATOM     28  C   UNL     1      31.930 -12.100 -22.782  0.00  0.00    +0.075 C 
ATOM     29  C   UNL     1      33.812 -14.915 -21.067  0.00  0.00    +0.237 C 
ATOM     30  C   UNL     1      33.938 -15.092 -23.493  0.00  0.00    +0.096 C 
ATOM     31  C   UNL     1      34.386 -15.677 -24.807  0.00  0.00    +0.062 C 
ENDBRANCH  19  23
ENDBRANCH  18  19
ENDBRANCH   1  18
TORSDOF 4
ENDMDL
MODEL 5
REMARK VINA RESULT:     -13.7      2.419      3.370
REMARK  Name = 5073
REMARK  4 active torsions:
REMARK  status: ('A' for Active; 'I' for Inactive)
REMARK    1  A    between atoms: N_1  and  C_18
REMARK    2  A    between atoms: C_2  and  C_11
REMARK    3  A    between atoms: C_18  and  C_19
REMARK    4  A    between atoms: C_19  and  C_23
REMARK                            x       y       z     vdW  Elec       q    Type
REMARK                         _______ _______ _______ _____ _____    ______ ____
ROOT
ATOM      1  N   UNL     1      35.356 -20.100 -19.550  0.00  0.00    +0.387 N 
ATOM      2  C   UNL     1      34.941 -18.538 -21.999  0.00  0.00    +0.039 C 
ATOM      3  C   UNL     1      33.776 -19.149 -21.202  0.00  0.00    -0.017 C 
ATOM      4  C   UNL     1      36.147 -18.315 -21.072  0.00  0.00    -0.017 C 
ATOM      5  C   UNL     1      34.222 -20.398 -20.437  0.00  0.00    -0.077 C 
ATOM      6  C   UNL     1      36.506 -19.594 -20.312  0.00  0.00    -0.077 C 
ATOM      7  H   UNL     1      35.063 -19.370 -18.900  0.00  0.00    -0.080 HD
ENDROOT
BRANCH   2  11
ATOM      8  F   UNL     1      33.187 -12.047 -21.916  0.00  0.00    -0.204 F 
ATOM      9  O   UNL     1      34.068 -16.042 -24.446  0.00  0.00    -0.354 OA
ATOM     10  N   UNL     1      34.447 -17.326 -24.077  0.00  0.00    -0.081 NA
ATOM     11  C   UNL     1      34.541 -17.288 -22.749  0.00  0.00    +0.100 A 
ATOM     12  C   UNL     1      34.241 -16.027 -22.213  0.00  0.00    +0.054 A 
ATOM     13  C   UNL     1      33.946 -15.268 -23.333  0.00  0.00    +0.179 A 
ATOM     14  C   UNL     1      34.179 -15.426 -20.947  0.00  0.00    +0.007 C 
ATOM     15  C   UNL     1      33.585 -13.924 -23.296  0.00  0.00    +0.070 C 
ATOM     16  C   UNL     1      33.817 -14.073 -20.873  0.00  0.00    +0.030 C 
ATOM     17  C   UNL     1      33.527 -13.338 -22.027  0.00  0.00    +0.143 C 
ENDBRANCH   2  11
BRANCH   1  18
ATOM     18  C   UNL     1      35.732 -21.288 -18.784  0.00  0.00    -0.076 C 
BRANCH  18  19
ATOM     19  C   UNL     1      36.078 -20.895 -17.356  0.00  0.00    -0.007 C 
BRANCH  19  23
ATOM     20  O   UNL     1      38.260 -21.876 -15.934  0.00  0.00    -0.274 OA
ATOM     21  N   UNL     1      37.081 -23.586 -14.879  0.00  0.00    -0.237 N 
ATOM     22  N   UNL     1      34.787 -23.889 -15.375  0.00  0.00    -0.399 NA
ATOM     23  C   UNL     1      35.955 -22.072 -16.432  0.00  0.00    +0.123 C 
ATOM     24  C   UNL     1      38.307 -24.077 -14.241  0.00  0.00    +0.100 C 
ATOM     25  C   UNL     1      38.080 -25.012 -13.068  0.00  0.00    +0.022 C 
ATOM     26  C   UNL     1      35.871 -24.245 -14.760  0.00  0.00    +0.165 C 
ATOM     27  C   UNL     1      37.084 -26.079 -13.469  0.00  0.00    +0.011 C 
ATOM     28  C   UNL     1      35.762 -25.418 -13.803  0.00  0.00    +0.075 C 
ATOM     29  C   UNL     1      37.211 -22.486 -15.731  0.00  0.00    +0.237 C 
ATOM     30  C   UNL     1      34.842 -22.797 -16.206  0.00  0.00    +0.096 C 
ATOM     31  C   UNL     1      33.510 -22.466 -16.827  0.00  0.00    +0.062 C 
ENDBRANCH  19  23
ENDBRANCH  18  19
ENDBRANCH   1  18
TORSDOF 4
ENDMDL
MODEL 6
REMARK VINA RESULT:     -13.4      2.573      3.696
REMARK  Name = 5073
REMARK  4 active torsions:
REMARK  status: ('A' for Active; 'I' for Inactive)
REMARK    1  A    between atoms: N_1  and  C_18
REMARK    2  A    between atoms: C_2  and  C_11
REMARK    3  A    between atoms: C_18  and  C_19
REMARK    4  A    between atoms: C_19  and  C_23
REMARK                            x       y       z     vdW  Elec       q    Type
REMARK                         _______ _______ _______ _____ _____    ______ ____
ROOT
ATOM      1  N   UNL     1      34.089 -21.834 -19.242  0.00  0.00    +0.387 N 
ATOM      2  C   UNL     1      34.254 -19.238 -20.600  0.00  0.00    +0.039 C 
ATOM      3  C   UNL     1      35.439 -20.216 -20.541  0.00  0.00    -0.017 C 
ATOM      4  C   UNL     1      32.933 -20.010 -20.453  0.00  0.00    -0.017 C 
ATOM      5  C   UNL     1      35.364 -21.105 -19.297  0.00  0.00    -0.077 C 
ATOM      6  C   UNL     1      32.949 -20.907 -19.213  0.00  0.00    -0.077 C 
ATOM      7  H   UNL     1      34.014 -22.399 -20.088  0.00  0.00    -0.080 HD
ENDROOT
BRANCH   2  11
ATOM      8  F   UNL     1      34.101 -13.097 -23.336  0.00  0.00    -0.204 F 
ATOM      9  O   UNL     1      34.389 -17.861 -23.926  0.00  0.00    -0.354 OA
ATOM     10  N   UNL     1      34.390 -18.923 -23.032  0.00  0.00    -0.081 NA
ATOM     11  C   UNL     1      34.284 -18.359 -21.830  0.00  0.00    +0.100 A 
ATOM     12  C   UNL     1      34.213 -16.960 -21.884  0.00  0.00    +0.054 A 
ATOM     13  C   UNL     1      34.284 -16.690 -23.240  0.00  0.00    +0.179 A 
ATOM     14  C   UNL     1      34.100 -15.891 -20.983  0.00  0.00    +0.007 C 
ATOM     15  C   UNL     1      34.252 -15.412 -23.789  0.00  0.00    +0.070 C 
ATOM     16  C   UNL     1      34.063 -14.588 -21.501  0.00  0.00    +0.030 C 
ATOM     17  C   UNL     1      34.139 -14.356 -22.878  0.00  0.00    +0.143 C 
ENDBRANCH   2  11
BRANCH   1  18
ATOM     18  C   UNL     1      34.057 -22.721 -18.080  0.00  0.00    -0.076 C 
BRANCH  18  19
ATOM     19  C   UNL     1      34.313 -21.920 -16.811  0.00  0.00    -0.007 C 
BRANCH  19  23
ATOM     20  O   UNL     1      33.989 -24.309 -15.420  0.00  0.00    -0.274 OA
ATOM     21  N   UNL     1      36.160 -24.365 -14.577  0.00  0.00    -0.237 N 
ATOM     22  N   UNL     1      37.642 -22.587 -15.069  0.00  0.00    -0.399 NA
ATOM     23  C   UNL     1      35.430 -22.527 -16.013  0.00  0.00    +0.123 C 
ATOM     24  C   UNL     1      35.863 -25.581 -13.812  0.00  0.00    +0.100 C 
ATOM     25  C   UNL     1      37.083 -26.339 -13.326  0.00  0.00    +0.022 C 
ATOM     26  C   UNL     1      37.372 -23.707 -14.476  0.00  0.00    +0.165 C 
ATOM     27  C   UNL     1      38.037 -25.370 -12.661  0.00  0.00    +0.011 C 
ATOM     28  C   UNL     1      38.495 -24.350 -13.682  0.00  0.00    +0.075 C 
ATOM     29  C   UNL     1      35.112 -23.816 -15.320  0.00  0.00    +0.237 C 
ATOM     30  C   UNL     1      36.662 -22.009 -15.839  0.00  0.00    +0.096 C 
ATOM     31  C   UNL     1      37.115 -20.736 -16.505  0.00  0.00    +0.062 C 
ENDBRANCH  19  23
ENDBRANCH  18  19
ENDBRANCH   1  18
TORSDOF 4
ENDMDL
MODEL 7
REMARK VINA RESULT:     -13.3      3.954     10.201
REMARK  Name = 5073
REMARK  4 active torsions:
REMARK  status: ('A' for Active; 'I' for Inactive)
REMARK    1  A    between atoms: N_1  and  C_18
REMARK    2  A    between atoms: C_2  and  C_11
REMARK    3  A    between atoms: C_18  and  C_19
REMARK    4  A    between atoms: C_19  and  C_23
REMARK                            x       y       z     vdW  Elec       q    Type
REMARK                         _______ _______ _______ _____ _____    ______ ____
ROOT
ATOM      1  N   UNL     1      34.165 -20.951 -19.888  0.00  0.00    +0.387 N 
ATOM      2  C   UNL     1      34.645 -21.850 -17.136  0.00  0.00    +0.039 C 
ATOM      3  C   UNL     1      33.370 -22.217 -17.915  0.00  0.00    -0.017 C 
ATOM      4  C   UNL     1      35.789 -21.553 -18.119  0.00  0.00    -0.017 C 
ATOM      5  C   UNL     1      33.038 -21.156 -18.967  0.00  0.00    -0.077 C 
ATOM      6  C   UNL     1      35.368 -20.517 -19.164  0.00  0.00    -0.077 C 
ATOM      7  H   UNL     1      34.372 -21.843 -20.336  0.00  0.00    -0.080 HD
ENDROOT
BRANCH   2  11
ATOM      8  F   UNL     1      39.337 -24.848 -13.366  0.00  0.00    -0.204 F 
ATOM      9  O   UNL     1      34.727 -24.496 -14.693  0.00  0.00    -0.354 OA
ATOM     10  N   UNL     1      34.066 -23.670 -15.592  0.00  0.00    -0.081 NA
ATOM     11  C   UNL     1      35.017 -22.890 -16.103  0.00  0.00    +0.100 A 
ATOM     12  C   UNL     1      36.289 -23.159 -15.580  0.00  0.00    +0.054 A 
ATOM     13  C   UNL     1      36.054 -24.190 -14.686  0.00  0.00    +0.179 A 
ATOM     14  C   UNL     1      37.598 -22.679 -15.735  0.00  0.00    +0.007 C 
ATOM     15  C   UNL     1      37.038 -24.798 -13.913  0.00  0.00    +0.070 C 
ATOM     16  C   UNL     1      38.616 -23.270 -14.973  0.00  0.00    +0.030 C 
ATOM     17  C   UNL     1      38.338 -24.309 -14.079  0.00  0.00    +0.143 C 
ENDBRANCH   2  11
BRANCH   1  18
ATOM     18  C   UNL     1      33.810 -19.977 -20.920  0.00  0.00    -0.076 C 
BRANCH  18  19
ATOM     19  C   UNL     1      34.977 -19.031 -21.162  0.00  0.00    -0.007 C 
BRANCH  19  23
ATOM     20  O   UNL     1      34.732 -16.413 -20.249  0.00  0.00    -0.274 OA
ATOM     21  N   UNL     1      34.109 -15.522 -22.309  0.00  0.00    -0.237 N 
ATOM     22  N   UNL     1      33.868 -16.963 -24.171  0.00  0.00    -0.399 NA
ATOM     23  C   UNL     1      34.577 -17.910 -22.076  0.00  0.00    +0.123 C 
ATOM     24  C   UNL     1      33.927 -14.195 -21.713  0.00  0.00    +0.100 C 
ATOM     25  C   UNL     1      33.878 -13.052 -22.711  0.00  0.00    +0.022 C 
ATOM     26  C   UNL     1      33.799 -15.788 -23.631  0.00  0.00    +0.165 C 
ATOM     27  C   UNL     1      32.911 -13.405 -23.822  0.00  0.00    +0.011 C 
ATOM     28  C   UNL     1      33.419 -14.636 -24.544  0.00  0.00    +0.075 C 
ATOM     29  C   UNL     1      34.488 -16.554 -21.447  0.00  0.00    +0.237 C 
ATOM     30  C   UNL     1      34.263 -18.017 -23.382  0.00  0.00    +0.096 C 
ATOM     31  C   UNL     1      34.340 -19.318 -24.137  0.00  0.00    +0.062 C 
ENDBRANCH  19  23
ENDBRANCH  18  19
ENDBRANCH   1  18
TORSDOF 4
ENDMDL
MODEL 8
REMARK VINA RESULT:     -13.3      3.977     10.215
REMARK  Name = 5073
REMARK  4 active torsions:
REMARK  status: ('A' for Active; 'I' for Inactive)
REMARK    1  A    between atoms: N_1  and  C_18
REMARK    2  A    between atoms: C_2  and  C_11
REMARK    3  A    between atoms: C_18  and  C_19
REMARK    4  A    between atoms: C_19  and  C_23
REMARK                            x       y       z     vdW  Elec       q    Type
REMARK                         _______ _______ _______ _____ _____    ______ ____
ROOT
ATOM      1  N   UNL     1      34.479 -20.346 -19.248  0.00  0.00    +0.387 N 
ATOM      2  C   UNL     1      35.863 -22.040 -17.293  0.00  0.00    +0.039 C 
ATOM      3  C   UNL     1      36.414 -20.676 -17.741  0.00  0.00    -0.017 C 
ATOM      4  C   UNL     1      34.338 -22.073 -17.481  0.00  0.00    -0.017 C 
ATOM      5  C   UNL     1      35.946 -20.325 -19.155  0.00  0.00    -0.077 C 
ATOM      6  C   UNL     1      33.945 -21.671 -18.904  0.00  0.00    -0.077 C 
ATOM      7  H   UNL     1      34.111 -19.674 -18.575  0.00  0.00    -0.080 HD
ENDROOT
BRANCH   2  11
ATOM      8  F   UNL     1      34.276 -24.355 -11.183  0.00  0.00    -0.204 F 
ATOM      9  O   UNL     1      37.616 -22.681 -14.211  0.00  0.00    -0.354 OA
ATOM     10  N   UNL     1      37.563 -22.262 -15.534  0.00  0.00    -0.081 NA
ATOM     11  C   UNL     1      36.288 -22.409 -15.889  0.00  0.00    +0.100 A 
ATOM     12  C   UNL     1      35.483 -22.910 -14.856  0.00  0.00    +0.054 A 
ATOM     13  C   UNL     1      36.375 -23.067 -13.808  0.00  0.00    +0.179 A 
ATOM     14  C   UNL     1      34.137 -23.251 -14.661  0.00  0.00    +0.007 C 
ATOM     15  C   UNL     1      36.028 -23.549 -12.549  0.00  0.00    +0.070 C 
ATOM     16  C   UNL     1      33.752 -23.738 -13.404  0.00  0.00    +0.030 C 
ATOM     17  C   UNL     1      34.682 -23.884 -12.370  0.00  0.00    +0.143 C 
ENDBRANCH   2  11
BRANCH   1  18
ATOM     18  C   UNL     1      34.046 -19.952 -20.589  0.00  0.00    -0.076 C 
BRANCH  18  19
ATOM     19  C   UNL     1      35.198 -19.286 -21.329  0.00  0.00    -0.007 C 
BRANCH  19  23
ATOM     20  O   UNL     1      34.979 -16.693 -20.343  0.00  0.00    -0.274 OA
ATOM     21  N   UNL     1      34.171 -15.774 -22.326  0.00  0.00    -0.237 N 
ATOM     22  N   UNL     1      33.804 -17.183 -24.191  0.00  0.00    -0.399 NA
ATOM     23  C   UNL     1      34.701 -18.156 -22.183  0.00  0.00    +0.123 C 
ATOM     24  C   UNL     1      34.014 -14.463 -21.689  0.00  0.00    +0.100 C 
ATOM     25  C   UNL     1      33.861 -13.302 -22.654  0.00  0.00    +0.022 C 
ATOM     26  C   UNL     1      33.758 -16.020 -23.623  0.00  0.00    +0.165 C 
ATOM     27  C   UNL     1      32.813 -13.653 -23.689  0.00  0.00    +0.011 C 
ATOM     28  C   UNL     1      33.282 -14.859 -24.476  0.00  0.00    +0.075 C 
ATOM     29  C   UNL     1      34.640 -16.815 -21.520  0.00  0.00    +0.237 C 
ATOM     30  C   UNL     1      34.282 -18.244 -23.460  0.00  0.00    +0.096 C 
ATOM     31  C   UNL     1      34.321 -19.528 -24.247  0.00  0.00    +0.062 C 
ENDBRANCH  19  23
ENDBRANCH  18  19
ENDBRANCH   1  18
TORSDOF 4
ENDMDL
MODEL 9
REMARK VINA RESULT:     -13.1      6.010      9.983
REMARK  Name = 5073
REMARK  4 active torsions:
REMARK  status: ('A' for Active; 'I' for Inactive)
REMARK    1  A    between atoms: N_1  and  C_18
REMARK    2  A    between atoms: C_2  and  C_11
REMARK    3  A    between atoms: C_18  and  C_19
REMARK    4  A    between atoms: C_19  and  C_23
REMARK                            x       y       z     vdW  Elec       q    Type
REMARK                         _______ _______ _______ _____ _____    ______ ____
ROOT
ATOM      1  N   UNL     1      32.210 -11.074 -21.986  0.00  0.00    +0.387 N 
ATOM      2  C   UNL     1      31.084  -8.365 -22.049  0.00  0.00    +0.039 C 
ATOM      3  C   UNL     1      30.993  -9.269 -20.808  0.00  0.00    -0.017 C 
ATOM      4  C   UNL     1      32.292  -8.777 -22.906  0.00  0.00    -0.017 C 
ATOM      5  C   UNL     1      31.013 -10.749 -21.197  0.00  0.00    -0.077 C 
ATOM      6  C   UNL     1      32.266 -10.275 -23.219  0.00  0.00    -0.077 C 
ATOM      7  H   UNL     1      33.029 -10.843 -21.424  0.00  0.00    -0.080 HD
ENDROOT
BRANCH   2  11
ATOM      8  F   UNL     1      30.649  -1.946 -24.004  0.00  0.00    -0.204 F 
ATOM      9  O   UNL     1      31.206  -5.139 -20.451  0.00  0.00    -0.354 OA
ATOM     10  N   UNL     1      31.246  -6.527 -20.429  0.00  0.00    -0.081 NA
ATOM     11  C   UNL     1      31.090  -6.894 -21.699  0.00  0.00    +0.100 A 
ATOM     12  C   UNL     1      30.946  -5.807 -22.572  0.00  0.00    +0.054 A 
ATOM     13  C   UNL     1      31.026  -4.710 -21.730  0.00  0.00    +0.179 A 
ATOM     14  C   UNL     1      30.759  -5.596 -23.947  0.00  0.00    +0.007 C 
ATOM     15  C   UNL     1      30.933  -3.388 -22.153  0.00  0.00    +0.070 C 
ATOM     16  C   UNL     1      30.662  -4.276 -24.408  0.00  0.00    +0.030 C 
ATOM     17  C   UNL     1      30.747  -3.194 -23.526  0.00  0.00    +0.143 C 
ENDBRANCH   2  11
BRANCH   1  18
ATOM     18  C   UNL     1      32.244 -12.502 -22.300  0.00  0.00    -0.076 C 
BRANCH  18  19
ATOM     19  C   UNL     1      33.651 -12.908 -22.713  0.00  0.00    -0.007 C 
BRANCH  19  23
ATOM     20  O   UNL     1      34.400 -14.901 -20.921  0.00  0.00    -0.274 OA
ATOM     21  N   UNL     1      34.153 -16.656 -22.433  0.00  0.00    -0.237 N 
ATOM     22  N   UNL     1      33.515 -16.186 -24.662  0.00  0.00    -0.399 NA
ATOM     23  C   UNL     1      33.695 -14.354 -23.113  0.00  0.00    +0.123 C 
ATOM     24  C   UNL     1      34.641 -17.619 -21.440  0.00  0.00    +0.100 C 
ATOM     25  C   UNL     1      34.332 -19.070 -21.757  0.00  0.00    +0.022 C 
ATOM     26  C   UNL     1      33.868 -17.020 -23.737  0.00  0.00    +0.165 C 
ATOM     27  C   UNL     1      34.725 -19.359 -23.190  0.00  0.00    +0.011 C 
ATOM     28  C   UNL     1      33.895 -18.490 -24.113  0.00  0.00    +0.075 C 
ATOM     29  C   UNL     1      34.112 -15.315 -22.044  0.00  0.00    +0.237 C 
ATOM     30  C   UNL     1      33.428 -14.854 -24.336  0.00  0.00    +0.096 C 
ATOM     31  C   UNL     1      32.971 -13.997 -25.487  0.00  0.00    +0.062 C 
ENDBRANCH  19  23
ENDBRANCH  18  19
ENDBRANCH   1  18
TORSDOF 4
ENDMDL
