MODEL 1
REMARK VINA RESULT:     -12.8      0.000      0.000
REMARK  Name = 9810927
REMARK  6 active torsions:
REMARK  status: ('A' for Active; 'I' for Inactive)
REMARK    1  A    between atoms: N_1  and  C_13
REMARK    2  A    between atoms: C_11  and  O_24
REMARK    3  A    between atoms: C_12  and  O_26
REMARK    4  A    between atoms: C_14  and  C_18
REMARK    5  A    between atoms: C_19  and  C_20
REMARK    6  A    between atoms: N_28  and  C_32
REMARK                            x       y       z     vdW  Elec       q    Type
REMARK                         _______ _______ _______ _____ _____    ______ ____
ROOT
ATOM      1  N   UNL     1      35.741 -22.917 -15.785  0.00  0.00    -0.247 N 
ATOM      2  N   UNL     1      36.785 -21.314 -16.935  0.00  0.00    -0.242 NA
ATOM      3  N   UNL     1      33.724 -23.138 -17.122  0.00  0.00    -0.228 NA
ATOM      4  N   UNL     1      33.741 -21.599 -19.016  0.00  0.00    -0.228 NA
ATOM      5  C   UNL     1      34.919 -22.601 -16.832  0.00  0.00    +0.152 C 
ATOM      6  C   UNL     1      36.848 -22.115 -15.891  0.00  0.00    +0.223 C 
ATOM      7  C   UNL     1      35.585 -21.608 -17.531  0.00  0.00    +0.140 C 
ATOM      8  C   UNL     1      34.952 -21.104 -18.663  0.00  0.00    +0.150 C 
ATOM      9  C   UNL     1      33.210 -22.571 -18.235  0.00  0.00    +0.253 C 
ATOM     10  N   UNL     1      35.555 -20.094 -19.434  0.00  0.00    -0.295 N 
ATOM     11  H   UNL     1      36.432 -19.808 -19.091  0.00  0.00    +0.154 HD
ENDROOT
BRANCH  10  14
ATOM     12 CL   UNL     1      33.862 -17.231 -24.331  0.00  0.00    -0.082 Cl
ATOM     13  F   UNL     1      37.197 -18.203 -20.647  0.00  0.00    -0.203 F 
ATOM     14  C   UNL     1      35.153 -19.411 -20.601  0.00  0.00    +0.077 C 
ATOM     15  C   UNL     1      35.998 -18.469 -21.185  0.00  0.00    +0.154 C 
ATOM     16  C   UNL     1      33.908 -19.680 -21.169  0.00  0.00    +0.018 C 
ATOM     17  C   UNL     1      35.599 -17.794 -22.339  0.00  0.00    +0.042 C 
ATOM     18  C   UNL     1      33.509 -19.005 -22.322  0.00  0.00    +0.013 C 
ATOM     19  C   UNL     1      34.354 -18.063 -22.908  0.00  0.00    +0.060 C 
ENDBRANCH  10  14
BRANCH   1  23
ATOM     20  O   UNL     1      34.082 -24.181 -14.643  0.00  0.00    -0.326 OA
ATOM     21  C   UNL     1      35.972 -23.491 -13.359  0.00  0.00    +0.187 C 
ATOM     22  C   UNL     1      34.694 -22.995 -12.711  0.00  0.00    +0.178 C 
ATOM     23  C   UNL     1      35.495 -23.916 -14.743  0.00  0.00    +0.225 C 
ATOM     24  C   UNL     1      33.651 -23.946 -13.282  0.00  0.00    +0.223 C 
BRANCH  24  28
ATOM     25  O   UNL     1      31.604 -23.518 -14.546  0.00  0.00    -0.421 OA
ATOM     26  N   UNL     1      31.469 -22.984 -12.379  0.00  0.00    -0.109 NA
ATOM     27  N   UNL     1      30.252 -22.691 -12.967  0.00  0.00    -0.112 NA
ATOM     28  C   UNL     1      32.218 -23.460 -13.337  0.00  0.00    +0.255 A 
ATOM     29  C   UNL     1      30.378 -23.019 -14.232  0.00  0.00    +0.225 A 
BRANCH  29  30
ATOM     30  C   UNL     1      29.400 -22.926 -15.324  0.00  0.00    +0.070 C 
ATOM     31  C   UNL     1      28.756 -24.317 -15.676  0.00  0.00    +0.009 C 
ATOM     32  C   UNL     1      30.031 -22.376 -16.655  0.00  0.00    +0.009 C 
ATOM     33  C   UNL     1      28.162 -21.982 -15.064  0.00  0.00    +0.009 C 
ENDBRANCH  29  30
ENDBRANCH  24  28
BRANCH  21  34
ATOM     34  O   UNL     1      36.457 -24.653 -12.688  0.00  0.00    -0.378 OA
ATOM     35  H   UNL     1      37.235 -24.418 -12.157  0.00  0.00    +0.211 HD
ENDBRANCH  21  34
BRANCH  22  36
ATOM     36  O   UNL     1      34.746 -23.048 -11.300  0.00  0.00    -0.379 OA
ATOM     37  H   UNL     1      35.241 -23.836 -11.024  0.00  0.00    +0.211 HD
ENDBRANCH  22  36
ENDBRANCH   1  23
TORSDOF 6
ENDMDL
MODEL 2
REMARK VINA RESULT:     -12.3      6.361      8.945
REMARK  Name = 9810927
REMARK  6 active torsions:
REMARK  status: ('A' for Active; 'I' for Inactive)
REMARK    1  A    between atoms: N_1  and  C_13
REMARK    2  A    between atoms: C_11  and  O_24
REMARK    3  A    between atoms: C_12  and  O_26
REMARK    4  A    between atoms: C_14  and  C_18
REMARK    5  A    between atoms: C_19  and  C_20
REMARK    6  A    between atoms: N_28  and  C_32
REMARK                            x       y       z     vdW  Elec       q    Type
REMARK                         _______ _______ _______ _____ _____    ______ ____
ROOT
ATOM      1  N   UNL     1      34.418 -16.161 -22.042  0.00  0.00    -0.247 N 
ATOM      2  N   UNL     1      33.765 -14.484 -20.722  0.00  0.00    -0.242 NA
ATOM      3  N   UNL     1      33.815 -15.241 -24.208  0.00  0.00    -0.228 NA
ATOM      4  N   UNL     1      32.824 -13.022 -23.987  0.00  0.00    -0.228 NA
ATOM      5  C   UNL     1      33.909 -15.200 -22.871  0.00  0.00    +0.152 C 
ATOM      6  C   UNL     1      34.308 -15.684 -20.762  0.00  0.00    +0.223 C 
ATOM      7  C   UNL     1      33.512 -14.170 -22.033  0.00  0.00    +0.140 C 
ATOM      8  C   UNL     1      32.951 -13.049 -22.638  0.00  0.00    +0.150 C 
ATOM      9  C   UNL     1      33.257 -14.104 -24.678  0.00  0.00    +0.253 C 
ATOM     10  N   UNL     1      32.520 -11.956 -21.865  0.00  0.00    -0.295 N 
ATOM     11  H   UNL     1      32.659 -12.078 -20.898  0.00  0.00    +0.154 HD
ENDROOT
BRANCH  10  14
ATOM     12 CL   UNL     1      30.032  -6.770 -23.263  0.00  0.00    -0.082 Cl
ATOM     13  F   UNL     1      33.836 -10.105 -23.474  0.00  0.00    -0.203 F 
ATOM     14  C   UNL     1      31.928 -10.720 -22.200  0.00  0.00    +0.077 C 
ATOM     15  C   UNL     1      32.613  -9.813 -23.008  0.00  0.00    +0.154 C 
ATOM     16  C   UNL     1      30.658 -10.406 -21.720  0.00  0.00    +0.018 C 
ATOM     17  C   UNL     1      32.027  -8.591 -23.337  0.00  0.00    +0.042 C 
ATOM     18  C   UNL     1      30.071  -9.184 -22.048  0.00  0.00    +0.013 C 
ATOM     19  C   UNL     1      30.755  -8.277 -22.857  0.00  0.00    +0.060 C 
ENDBRANCH  10  14
BRANCH   1  23
ATOM     20  O   UNL     1      34.043 -18.509 -22.113  0.00  0.00    -0.326 OA
ATOM     21  C   UNL     1      36.291 -17.796 -21.744  0.00  0.00    +0.187 C 
ATOM     22  C   UNL     1      35.843 -18.710 -20.619  0.00  0.00    +0.178 C 
ATOM     23  C   UNL     1      34.975 -17.457 -22.435  0.00  0.00    +0.225 C 
ATOM     24  C   UNL     1      34.698 -19.479 -21.264  0.00  0.00    +0.223 C 
BRANCH  24  28
ATOM     25  O   UNL     1      34.058 -21.030 -19.487  0.00  0.00    -0.421 OA
ATOM     26  N   UNL     1      32.374 -19.773 -20.254  0.00  0.00    -0.109 NA
ATOM     27  N   UNL     1      31.874 -20.598 -19.263  0.00  0.00    -0.112 NA
ATOM     28  C   UNL     1      33.645 -20.064 -20.346  0.00  0.00    +0.255 A 
ATOM     29  C   UNL     1      32.892 -21.313 -18.845  0.00  0.00    +0.225 A 
BRANCH  29  30
ATOM     30  C   UNL     1      32.943 -22.347 -17.803  0.00  0.00    +0.070 C 
ATOM     31  C   UNL     1      33.144 -23.790 -18.395  0.00  0.00    +0.009 C 
ATOM     32  C   UNL     1      31.632 -22.398 -16.937  0.00  0.00    +0.009 C 
ATOM     33  C   UNL     1      34.102 -22.200 -16.742  0.00  0.00    +0.009 C 
ENDBRANCH  29  30
ENDBRANCH  24  28
BRANCH  21  34
ATOM     34  O   UNL     1      37.104 -18.508 -22.676  0.00  0.00    -0.378 OA
ATOM     35  H   UNL     1      36.929 -18.180 -23.573  0.00  0.00    +0.211 HD
ENDBRANCH  21  34
BRANCH  22  36
ATOM     36  O   UNL     1      36.875 -19.568 -20.175  0.00  0.00    -0.379 OA
ATOM     37  H   UNL     1      36.703 -19.833 -19.257  0.00  0.00    +0.211 HD
ENDBRANCH  22  36
ENDBRANCH   1  23
TORSDOF 6
ENDMDL
MODEL 3
REMARK VINA RESULT:     -12.2     11.155     15.232
REMARK  Name = 9810927
REMARK  6 active torsions:
REMARK  status: ('A' for Active; 'I' for Inactive)
REMARK    1  A    between atoms: N_1  and  C_13
REMARK    2  A    between atoms: C_11  and  O_24
REMARK    3  A    between atoms: C_12  and  O_26
REMARK    4  A    between atoms: C_14  and  C_18
REMARK    5  A    between atoms: C_19  and  C_20
REMARK    6  A    between atoms: N_28  and  C_32
REMARK                            x       y       z     vdW  Elec       q    Type
REMARK                         _______ _______ _______ _____ _____    ______ ____
ROOT
ATOM      1  N   UNL     1      31.666  -9.538 -21.823  0.00  0.00    -0.247 N 
ATOM      2  N   UNL     1      32.687 -10.629 -23.479  0.00  0.00    -0.242 NA
ATOM      3  N   UNL     1      31.305 -11.377 -20.277  0.00  0.00    -0.228 NA
ATOM      4  N   UNL     1      32.173 -13.475 -21.173  0.00  0.00    -0.228 NA
ATOM      5  C   UNL     1      31.746 -10.844 -21.426  0.00  0.00    +0.152 C 
ATOM      6  C   UNL     1      32.244  -9.461 -23.063  0.00  0.00    +0.223 C 
ATOM      7  C   UNL     1      32.383 -11.502 -22.466  0.00  0.00    +0.140 C 
ATOM      8  C   UNL     1      32.593 -12.869 -22.310  0.00  0.00    +0.150 C 
ATOM      9  C   UNL     1      31.563 -12.702 -20.241  0.00  0.00    +0.253 C 
ATOM     10  N   UNL     1      33.232 -13.616 -23.315  0.00  0.00    -0.295 N 
ATOM     11  H   UNL     1      33.498 -13.080 -24.097  0.00  0.00    +0.154 HD
ENDROOT
BRANCH  10  14
ATOM     12 CL   UNL     1      34.645 -19.346 -23.788  0.00  0.00    -0.082 Cl
ATOM     13  F   UNL     1      34.598 -14.944 -21.285  0.00  0.00    -0.203 F 
ATOM     14  C   UNL     1      33.570 -14.982 -23.425  0.00  0.00    +0.077 C 
ATOM     15  C   UNL     1      34.254 -15.619 -22.391  0.00  0.00    +0.154 C 
ATOM     16  C   UNL     1      33.218 -15.693 -24.572  0.00  0.00    +0.018 C 
ATOM     17  C   UNL     1      34.587 -16.968 -22.503  0.00  0.00    +0.042 C 
ATOM     18  C   UNL     1      33.551 -17.042 -24.685  0.00  0.00    +0.013 C 
ATOM     19  C   UNL     1      34.235 -17.681 -23.650  0.00  0.00    +0.060 C 
ENDBRANCH  10  14
BRANCH   1  23
ATOM     20  O   UNL     1      30.886  -7.294 -21.948  0.00  0.00    -0.326 OA
ATOM     21  C   UNL     1      31.927  -7.952 -19.903  0.00  0.00    +0.187 C 
ATOM     22  C   UNL     1      32.635  -6.742 -20.482  0.00  0.00    +0.178 C 
ATOM     23  C   UNL     1      31.075  -8.426 -21.075  0.00  0.00    +0.225 C 
ATOM     24  C   UNL     1      31.568  -6.147 -21.391  0.00  0.00    +0.223 C 
BRANCH  24  28
ATOM     25  O   UNL     1      32.752  -5.918 -23.516  0.00  0.00    -0.421 OA
ATOM     26  N   UNL     1      31.851  -4.014 -22.761  0.00  0.00    -0.109 NA
ATOM     27  N   UNL     1      32.485  -3.741 -23.959  0.00  0.00    -0.112 NA
ATOM     28  C   UNL     1      32.036  -5.290 -22.549  0.00  0.00    +0.255 A 
ATOM     29  C   UNL     1      32.996  -4.880 -24.363  0.00  0.00    +0.225 A 
BRANCH  29  30
ATOM     30  C   UNL     1      33.772  -5.182 -25.573  0.00  0.00    +0.070 C 
ATOM     31  C   UNL     1      34.650  -6.478 -25.420  0.00  0.00    +0.009 C 
ATOM     32  C   UNL     1      34.756  -4.019 -25.965  0.00  0.00    +0.009 C 
ATOM     33  C   UNL     1      32.932  -5.436 -26.885  0.00  0.00    +0.009 C 
ENDBRANCH  29  30
ENDBRANCH  24  28
BRANCH  21  34
ATOM     34  O   UNL     1      31.046  -7.562 -18.851  0.00  0.00    -0.378 OA
ATOM     35  H   UNL     1      30.795  -8.343 -18.333  0.00  0.00    +0.211 HD
ENDBRANCH  21  34
BRANCH  22  36
ATOM     36  O   UNL     1      33.054  -5.831 -19.486  0.00  0.00    -0.379 OA
ATOM     37  H   UNL     1      33.789  -5.296 -19.825  0.00  0.00    +0.211 HD
ENDBRANCH  22  36
ENDBRANCH   1  23
TORSDOF 6
ENDMDL
MODEL 4
REMARK VINA RESULT:     -12.1     11.211     15.290
REMARK  Name = 9810927
REMARK  6 active torsions:
REMARK  status: ('A' for Active; 'I' for Inactive)
REMARK    1  A    between atoms: N_1  and  C_13
REMARK    2  A    between atoms: C_11  and  O_24
REMARK    3  A    between atoms: C_12  and  O_26
REMARK    4  A    between atoms: C_14  and  C_18
REMARK    5  A    between atoms: C_19  and  C_20
REMARK    6  A    between atoms: N_28  and  C_32
REMARK                            x       y       z     vdW  Elec       q    Type
REMARK                         _______ _______ _______ _____ _____    ______ ____
ROOT
ATOM      1  N   UNL     1      31.705  -9.509 -21.764  0.00  0.00    -0.247 N 
ATOM      2  N   UNL     1      32.746 -10.615 -23.398  0.00  0.00    -0.242 NA
ATOM      3  N   UNL     1      31.402 -11.316 -20.168  0.00  0.00    -0.228 NA
ATOM      4  N   UNL     1      32.320 -13.412 -21.015  0.00  0.00    -0.228 NA
ATOM      5  C   UNL     1      31.822 -10.801 -21.333  0.00  0.00    +0.152 C 
ATOM      6  C   UNL     1      32.274  -9.449 -23.009  0.00  0.00    +0.223 C 
ATOM      7  C   UNL     1      32.471 -11.469 -22.360  0.00  0.00    +0.140 C 
ATOM      8  C   UNL     1      32.718 -12.825 -22.170  0.00  0.00    +0.150 C 
ATOM      9  C   UNL     1      31.696 -12.632 -20.099  0.00  0.00    +0.253 C 
ATOM     10  N   UNL     1      33.371 -13.582 -23.159  0.00  0.00    -0.295 N 
ATOM     11  H   UNL     1      33.618 -13.059 -23.956  0.00  0.00    +0.154 HD
ENDROOT
BRANCH  10  14
ATOM     12 CL   UNL     1      34.938 -19.282 -23.474  0.00  0.00    -0.082 Cl
ATOM     13  F   UNL     1      32.870 -15.098 -25.438  0.00  0.00    -0.203 F 
ATOM     14  C   UNL     1      33.744 -14.940 -23.236  0.00  0.00    +0.077 C 
ATOM     15  C   UNL     1      33.479 -15.674 -24.392  0.00  0.00    +0.154 C 
ATOM     16  C   UNL     1      34.377 -15.549 -22.153  0.00  0.00    +0.018 C 
ATOM     17  C   UNL     1      33.848 -17.016 -24.466  0.00  0.00    +0.042 C 
ATOM     18  C   UNL     1      34.746 -16.892 -22.226  0.00  0.00    +0.013 C 
ATOM     19  C   UNL     1      34.483 -17.625 -23.382  0.00  0.00    +0.060 C 
ENDBRANCH  10  14
BRANCH   1  23
ATOM     20  O   UNL     1      30.898  -7.277 -21.934  0.00  0.00    -0.326 OA
ATOM     21  C   UNL     1      31.918  -7.890 -19.864  0.00  0.00    +0.187 C 
ATOM     22  C   UNL     1      32.619  -6.680 -20.452  0.00  0.00    +0.178 C 
ATOM     23  C   UNL     1      31.089  -8.393 -21.041  0.00  0.00    +0.225 C 
ATOM     24  C   UNL     1      31.558  -6.113 -21.385  0.00  0.00    +0.223 C 
BRANCH  24  28
ATOM     25  O   UNL     1      32.777  -5.898 -23.491  0.00  0.00    -0.421 OA
ATOM     26  N   UNL     1      31.825  -4.000 -22.788  0.00  0.00    -0.109 NA
ATOM     27  N   UNL     1      32.476  -3.735 -23.979  0.00  0.00    -0.112 NA
ATOM     28  C   UNL     1      32.030  -5.268 -22.550  0.00  0.00    +0.255 A 
ATOM     29  C   UNL     1      33.017  -4.871 -24.352  0.00  0.00    +0.225 A 
BRANCH  29  30
ATOM     30  C   UNL     1      33.822  -5.178 -25.541  0.00  0.00    +0.070 C 
ATOM     31  C   UNL     1      34.885  -4.062 -25.855  0.00  0.00    +0.009 C 
ATOM     32  C   UNL     1      32.948  -5.339 -26.838  0.00  0.00    +0.009 C 
ATOM     33  C   UNL     1      34.668  -6.509 -25.477  0.00  0.00    +0.009 C 
ENDBRANCH  29  30
ENDBRANCH  24  28
BRANCH  21  34
ATOM     34  O   UNL     1      31.018  -7.496 -18.831  0.00  0.00    -0.378 OA
ATOM     35  H   UNL     1      30.327  -6.926 -19.205  0.00  0.00    +0.211 HD
ENDBRANCH  21  34
BRANCH  22  36
ATOM     36  O   UNL     1      33.012  -5.749 -19.464  0.00  0.00    -0.379 OA
ATOM     37  H   UNL     1      33.924  -5.462 -19.634  0.00  0.00    +0.211 HD
ENDBRANCH  22  36
ENDBRANCH   1  23
TORSDOF 6
ENDMDL
MODEL 5
REMARK VINA RESULT:     -12.0      5.707     10.082
REMARK  Name = 9810927
REMARK  6 active torsions:
REMARK  status: ('A' for Active; 'I' for Inactive)
REMARK    1  A    between atoms: N_1  and  C_13
REMARK    2  A    between atoms: C_11  and  O_24
REMARK    3  A    between atoms: C_12  and  O_26
REMARK    4  A    between atoms: C_14  and  C_18
REMARK    5  A    between atoms: C_19  and  C_20
REMARK    6  A    between atoms: N_28  and  C_32
REMARK                            x       y       z     vdW  Elec       q    Type
REMARK                         _______ _______ _______ _____ _____    ______ ____
ROOT
ATOM      1  N   UNL     1      33.736 -19.855 -20.928  0.00  0.00    -0.247 N 
ATOM      2  N   UNL     1      31.762 -20.319 -19.999  0.00  0.00    -0.242 NA
ATOM      3  N   UNL     1      35.209 -20.968 -19.347  0.00  0.00    -0.228 NA
ATOM      4  N   UNL     1      33.943 -22.035 -17.554  0.00  0.00    -0.228 NA
ATOM      5  C   UNL     1      34.006 -20.592 -19.808  0.00  0.00    +0.152 C 
ATOM      6  C   UNL     1      32.374 -19.718 -20.998  0.00  0.00    +0.223 C 
ATOM      7  C   UNL     1      32.769 -20.870 -19.248  0.00  0.00    +0.140 C 
ATOM      8  C   UNL     1      32.764 -21.621 -18.077  0.00  0.00    +0.150 C 
ATOM      9  C   UNL     1      35.076 -21.687 -18.212  0.00  0.00    +0.253 C 
ATOM     10  N   UNL     1      31.554 -21.951 -17.441  0.00  0.00    -0.295 N 
ATOM     11  H   UNL     1      30.757 -21.603 -17.904  0.00  0.00    +0.154 HD
ENDROOT
BRANCH  10  14
ATOM     12 CL   UNL     1      30.304 -25.017 -12.533  0.00  0.00    -0.082 Cl
ATOM     13  F   UNL     1      28.927 -22.507 -16.710  0.00  0.00    -0.203 F 
ATOM     14  C   UNL     1      31.254 -22.682 -16.272  0.00  0.00    +0.077 C 
ATOM     15  C   UNL     1      29.927 -22.944 -15.933  0.00  0.00    +0.154 C 
ATOM     16  C   UNL     1      32.287 -23.140 -15.456  0.00  0.00    +0.018 C 
ATOM     17  C   UNL     1      29.633 -23.667 -14.777  0.00  0.00    +0.042 C 
ATOM     18  C   UNL     1      31.994 -23.861 -14.299  0.00  0.00    +0.013 C 
ATOM     19  C   UNL     1      30.667 -24.126 -13.960  0.00  0.00    +0.060 C 
ENDBRANCH  10  14
BRANCH   1  23
ATOM     20  O   UNL     1      35.004 -17.939 -21.544  0.00  0.00    -0.326 OA
ATOM     21  C   UNL     1      34.231 -19.327 -23.325  0.00  0.00    +0.187 C 
ATOM     22  C   UNL     1      33.745 -17.904 -23.525  0.00  0.00    +0.178 C 
ATOM     23  C   UNL     1      34.709 -19.310 -21.878  0.00  0.00    +0.225 C 
ATOM     24  C   UNL     1      34.737 -17.103 -22.694  0.00  0.00    +0.223 C 
BRANCH  24  28
ATOM     25  O   UNL     1      33.731 -14.912 -23.087  0.00  0.00    -0.421 OA
ATOM     26  N   UNL     1      34.357 -15.263 -20.969  0.00  0.00    -0.109 NA
ATOM     27  N   UNL     1      33.810 -13.996 -21.048  0.00  0.00    -0.112 NA
ATOM     28  C   UNL     1      34.287 -15.752 -22.179  0.00  0.00    +0.255 A 
ATOM     29  C   UNL     1      33.459 -13.834 -22.302  0.00  0.00    +0.225 A 
BRANCH  29  30
ATOM     30  C   UNL     1      32.826 -12.681 -22.955  0.00  0.00    +0.070 C 
ATOM     31  C   UNL     1      31.589 -12.135 -22.151  0.00  0.00    +0.009 C 
ATOM     32  C   UNL     1      32.306 -13.016 -24.401  0.00  0.00    +0.009 C 
ATOM     33  C   UNL     1      33.744 -11.413 -23.158  0.00  0.00    +0.009 C 
ENDBRANCH  29  30
ENDBRANCH  24  28
BRANCH  21  34
ATOM     34  O   UNL     1      35.360 -19.594 -24.156  0.00  0.00    -0.378 OA
ATOM     35  H   UNL     1      36.009 -20.117 -23.660  0.00  0.00    +0.211 HD
ENDBRANCH  21  34
BRANCH  22  36
ATOM     36  O   UNL     1      33.754 -17.515 -24.884  0.00  0.00    -0.379 OA
ATOM     37  H   UNL     1      34.560 -17.847 -25.311  0.00  0.00    +0.211 HD
ENDBRANCH  22  36
ENDBRANCH   1  23
TORSDOF 6
ENDMDL
MODEL 6
REMARK VINA RESULT:     -11.9      2.293      3.091
REMARK  Name = 9810927
REMARK  6 active torsions:
REMARK  status: ('A' for Active; 'I' for Inactive)
REMARK    1  A    between atoms: N_1  and  C_13
REMARK    2  A    between atoms: C_11  and  O_24
REMARK    3  A    between atoms: C_12  and  O_26
REMARK    4  A    between atoms: C_14  and  C_18
REMARK    5  A    between atoms: C_19  and  C_20
REMARK    6  A    between atoms: N_28  and  C_32
REMARK                            x       y       z     vdW  Elec       q    Type
REMARK                         _______ _______ _______ _____ _____    ______ ____
ROOT
ATOM      1  N   UNL     1      35.207 -21.609 -18.306  0.00  0.00    -0.247 N 
ATOM      2  N   UNL     1      36.307 -19.941 -19.298  0.00  0.00    -0.242 NA
ATOM      3  N   UNL     1      33.039 -21.368 -19.375  0.00  0.00    -0.228 NA
ATOM      4  N   UNL     1      33.033 -19.517 -20.966  0.00  0.00    -0.228 NA
ATOM      5  C   UNL     1      34.317 -21.022 -19.163  0.00  0.00    +0.152 C 
ATOM      6  C   UNL     1      36.388 -20.922 -18.424  0.00  0.00    +0.223 C 
ATOM      7  C   UNL     1      35.020 -19.992 -19.768  0.00  0.00    +0.140 C 
ATOM      8  C   UNL     1      34.330 -19.225 -20.701  0.00  0.00    +0.150 C 
ATOM      9  C   UNL     1      32.477 -20.555 -20.296  0.00  0.00    +0.253 C 
ATOM     10  N   UNL     1      34.964 -18.159 -21.365  0.00  0.00    -0.295 N 
ATOM     11  H   UNL     1      35.905 -18.034 -21.100  0.00  0.00    +0.154 HD
ENDROOT
BRANCH  10  14
ATOM     12 CL   UNL     1      33.111 -14.273 -25.427  0.00  0.00    -0.082 Cl
ATOM     13  F   UNL     1      34.098 -18.991 -23.876  0.00  0.00    -0.203 F 
ATOM     14  C   UNL     1      34.522 -17.235 -22.334  0.00  0.00    +0.077 C 
ATOM     15  C   UNL     1      34.094 -17.682 -23.584  0.00  0.00    +0.154 C 
ATOM     16  C   UNL     1      34.514 -15.872 -22.041  0.00  0.00    +0.018 C 
ATOM     17  C   UNL     1      33.658 -16.766 -24.540  0.00  0.00    +0.042 C 
ATOM     18  C   UNL     1      34.079 -14.955 -22.997  0.00  0.00    +0.013 C 
ATOM     19  C   UNL     1      33.649 -15.402 -24.247  0.00  0.00    +0.060 C 
ENDBRANCH  10  14
BRANCH   1  23
ATOM     20  O   UNL     1      33.576 -23.152 -17.522  0.00  0.00    -0.326 OA
ATOM     21  C   UNL     1      35.240 -22.467 -15.954  0.00  0.00    +0.187 C 
ATOM     22  C   UNL     1      33.856 -22.174 -15.406  0.00  0.00    +0.178 C 
ATOM     23  C   UNL     1      34.957 -22.752 -17.425  0.00  0.00    +0.225 C 
ATOM     24  C   UNL     1      32.982 -23.133 -16.203  0.00  0.00    +0.223 C 
BRANCH  24  28
ATOM     25  O   UNL     1      30.628 -23.541 -15.692  0.00  0.00    -0.421 OA
ATOM     26  N   UNL     1      30.978 -21.821 -17.078  0.00  0.00    -0.109 NA
ATOM     27  N   UNL     1      29.615 -21.937 -16.878  0.00  0.00    -0.112 NA
ATOM     28  C   UNL     1      31.521 -22.774 -16.368  0.00  0.00    +0.255 A 
ATOM     29  C   UNL     1      29.458 -22.953 -16.063  0.00  0.00    +0.225 A 
BRANCH  29  30
ATOM     30  C   UNL     1      28.224 -23.526 -15.508  0.00  0.00    +0.070 C 
ATOM     31  C   UNL     1      27.404 -24.340 -16.575  0.00  0.00    +0.009 C 
ATOM     32  C   UNL     1      27.252 -22.429 -14.939  0.00  0.00    +0.009 C 
ATOM     33  C   UNL     1      28.411 -24.537 -14.311  0.00  0.00    +0.009 C 
ENDBRANCH  29  30
ENDBRANCH  24  28
BRANCH  21  34
ATOM     34  O   UNL     1      35.768 -23.658 -15.372  0.00  0.00    -0.378 OA
ATOM     35  H   UNL     1      36.406 -23.423 -14.679  0.00  0.00    +0.211 HD
ENDBRANCH  21  34
BRANCH  22  36
ATOM     36  O   UNL     1      33.765 -22.403 -14.015  0.00  0.00    -0.379 OA
ATOM     37  H   UNL     1      34.408 -23.082 -13.755  0.00  0.00    +0.211 HD
ENDBRANCH  22  36
ENDBRANCH   1  23
TORSDOF 6
ENDMDL
MODEL 7
REMARK VINA RESULT:     -11.4     12.346     16.614
REMARK  Name = 9810927
REMARK  6 active torsions:
REMARK  status: ('A' for Active; 'I' for Inactive)
REMARK    1  A    between atoms: N_1  and  C_13
REMARK    2  A    between atoms: C_11  and  O_24
REMARK    3  A    between atoms: C_12  and  O_26
REMARK    4  A    between atoms: C_14  and  C_18
REMARK    5  A    between atoms: C_19  and  C_20
REMARK    6  A    between atoms: N_28  and  C_32
REMARK                            x       y       z     vdW  Elec       q    Type
REMARK                         _______ _______ _______ _____ _____    ______ ____
ROOT
ATOM      1  N   UNL     1      31.610  -8.300 -22.567  0.00  0.00    -0.247 N 
ATOM      2  N   UNL     1      33.279  -9.457 -23.492  0.00  0.00    -0.242 NA
ATOM      3  N   UNL     1      30.377 -10.116 -21.524  0.00  0.00    -0.228 NA
ATOM      4  N   UNL     1      31.454 -12.268 -21.928  0.00  0.00    -0.228 NA
ATOM      5  C   UNL     1      31.388  -9.611 -22.247  0.00  0.00    +0.152 C 
ATOM      6  C   UNL     1      32.757  -8.261 -23.316  0.00  0.00    +0.223 C 
ATOM      7  C   UNL     1      32.434 -10.310 -22.828  0.00  0.00    +0.140 C 
ATOM      8  C   UNL     1      32.445 -11.690 -22.648  0.00  0.00    +0.150 C 
ATOM      9  C   UNL     1      30.495 -11.457 -21.418  0.00  0.00    +0.253 C 
ATOM     10  N   UNL     1      33.469 -12.478 -23.202  0.00  0.00    -0.295 N 
ATOM     11  H   UNL     1      34.139 -11.959 -23.704  0.00  0.00    +0.154 HD
ENDROOT
BRANCH  10  14
ATOM     12 CL   UNL     1      34.558 -18.297 -23.108  0.00  0.00    -0.082 Cl
ATOM     13  F   UNL     1      33.130 -14.052 -25.472  0.00  0.00    -0.203 F 
ATOM     14  C   UNL     1      33.728 -13.865 -23.182  0.00  0.00    +0.077 C 
ATOM     15  C   UNL     1      33.549 -14.627 -24.335  0.00  0.00    +0.154 C 
ATOM     16  C   UNL     1      34.163 -14.472 -22.005  0.00  0.00    +0.018 C 
ATOM     17  C   UNL     1      33.805 -15.997 -24.313  0.00  0.00    +0.042 C 
ATOM     18  C   UNL     1      34.419 -15.843 -21.981  0.00  0.00    +0.013 C 
ATOM     19  C   UNL     1      34.241 -16.606 -23.135  0.00  0.00    +0.060 C 
ENDBRANCH  10  14
BRANCH   1  23
ATOM     20  O   UNL     1      30.505  -6.345 -23.352  0.00  0.00    -0.326 OA
ATOM     21  C   UNL     1      31.439  -6.238 -21.157  0.00  0.00    +0.187 C 
ATOM     22  C   UNL     1      32.001  -5.122 -22.018  0.00  0.00    +0.178 C 
ATOM     23  C   UNL     1      30.785  -7.150 -22.189  0.00  0.00    +0.225 C 
ATOM     24  C   UNL     1      30.945  -4.990 -23.107  0.00  0.00    +0.223 C 
BRANCH  24  28
ATOM     25  O   UNL     1      32.418  -5.021 -25.056  0.00  0.00    -0.421 OA
ATOM     26  N   UNL     1      30.898  -3.381 -25.085  0.00  0.00    -0.109 NA
ATOM     27  N   UNL     1      31.657  -3.279 -26.236  0.00  0.00    -0.112 NA
ATOM     28  C   UNL     1      31.379  -4.406 -24.435  0.00  0.00    +0.255 A 
ATOM     29  C   UNL     1      32.531  -4.256 -26.176  0.00  0.00    +0.225 A 
BRANCH  29  30
ATOM     30  C   UNL     1      33.585  -4.629 -27.129  0.00  0.00    +0.070 C 
ATOM     31  C   UNL     1      34.775  -5.395 -26.443  0.00  0.00    +0.009 C 
ATOM     32  C   UNL     1      34.213  -3.383 -27.854  0.00  0.00    +0.009 C 
ATOM     33  C   UNL     1      33.142  -5.580 -28.309  0.00  0.00    +0.009 C 
ENDBRANCH  29  30
ENDBRANCH  24  28
BRANCH  21  34
ATOM     34  O   UNL     1      30.413  -5.741 -20.300  0.00  0.00    -0.378 OA
ATOM     35  H   UNL     1      29.588  -6.224 -20.470  0.00  0.00    +0.211 HD
ENDBRANCH  21  34
BRANCH  22  36
ATOM     36  O   UNL     1      32.177  -3.919 -21.298  0.00  0.00    -0.379 OA
ATOM     37  H   UNL     1      31.413  -3.776 -20.716  0.00  0.00    +0.211 HD
ENDBRANCH  22  36
ENDBRANCH   1  23
TORSDOF 6
ENDMDL
MODEL 8
REMARK VINA RESULT:     -11.2      1.441      1.828
REMARK  Name = 9810927
REMARK  6 active torsions:
REMARK  status: ('A' for Active; 'I' for Inactive)
REMARK    1  A    between atoms: N_1  and  C_13
REMARK    2  A    between atoms: C_11  and  O_24
REMARK    3  A    between atoms: C_12  and  O_26
REMARK    4  A    between atoms: C_14  and  C_18
REMARK    5  A    between atoms: C_19  and  C_20
REMARK    6  A    between atoms: N_28  and  C_32
REMARK                            x       y       z     vdW  Elec       q    Type
REMARK                         _______ _______ _______ _____ _____    ______ ____
ROOT
ATOM      1  N   UNL     1      35.303 -22.284 -17.190  0.00  0.00    -0.247 N 
ATOM      2  N   UNL     1      36.364 -20.587 -18.177  0.00  0.00    -0.242 NA
ATOM      3  N   UNL     1      33.262 -22.317 -18.508  0.00  0.00    -0.228 NA
ATOM      4  N   UNL     1      33.284 -20.582 -20.224  0.00  0.00    -0.228 NA
ATOM      5  C   UNL     1      34.472 -21.840 -18.182  0.00  0.00    +0.152 C 
ATOM      6  C   UNL     1      36.425 -21.499 -17.228  0.00  0.00    +0.223 C 
ATOM      7  C   UNL     1      35.150 -20.790 -18.781  0.00  0.00    +0.140 C 
ATOM      8  C   UNL     1      34.511 -20.152 -19.840  0.00  0.00    +0.150 C 
ATOM      9  C   UNL     1      32.744 -21.622 -19.544  0.00  0.00    +0.253 C 
ATOM     10  N   UNL     1      35.124 -19.078 -20.507  0.00  0.00    -0.295 N 
ATOM     11  H   UNL     1      36.013 -18.848 -20.150  0.00  0.00    +0.154 HD
ENDROOT
BRANCH  10  14
ATOM     12 CL   UNL     1      33.430 -15.668 -25.040  0.00  0.00    -0.082 Cl
ATOM     13  F   UNL     1      34.902 -16.316 -20.239  0.00  0.00    -0.203 F 
ATOM     14  C   UNL     1      34.721 -18.263 -21.586  0.00  0.00    +0.077 C 
ATOM     15  C   UNL     1      34.619 -16.882 -21.420  0.00  0.00    +0.154 C 
ATOM     16  C   UNL     1      34.424 -18.842 -22.819  0.00  0.00    +0.018 C 
ATOM     17  C   UNL     1      34.220 -16.080 -22.488  0.00  0.00    +0.042 C 
ATOM     18  C   UNL     1      34.024 -18.040 -23.887  0.00  0.00    +0.013 C 
ATOM     19  C   UNL     1      33.922 -16.659 -23.723  0.00  0.00    +0.060 C 
ENDBRANCH  10  14
BRANCH   1  23
ATOM     20  O   UNL     1      33.630 -23.574 -16.097  0.00  0.00    -0.326 OA
ATOM     21  C   UNL     1      35.635 -23.163 -14.869  0.00  0.00    +0.187 C 
ATOM     22  C   UNL     1      34.434 -22.671 -14.084  0.00  0.00    +0.178 C 
ATOM     23  C   UNL     1      35.050 -23.386 -16.259  0.00  0.00    +0.225 C 
ATOM     24  C   UNL     1      33.296 -23.481 -14.693  0.00  0.00    +0.223 C 
BRANCH  24  28
ATOM     25  O   UNL     1      30.901 -23.641 -15.146  0.00  0.00    -0.421 OA
ATOM     26  N   UNL     1      31.502 -21.785 -14.052  0.00  0.00    -0.109 NA
ATOM     27  N   UNL     1      30.133 -21.745 -14.241  0.00  0.00    -0.112 NA
ATOM     28  C   UNL     1      31.899 -22.905 -14.595  0.00  0.00    +0.255 A 
ATOM     29  C   UNL     1      29.827 -22.847 -14.883  0.00  0.00    +0.225 A 
BRANCH  29  30
ATOM     30  C   UNL     1      28.518 -23.331 -15.342  0.00  0.00    +0.070 C 
ATOM     31  C   UNL     1      27.359 -22.311 -15.040  0.00  0.00    +0.009 C 
ATOM     32  C   UNL     1      28.105 -24.690 -14.667  0.00  0.00    +0.009 C 
ATOM     33  C   UNL     1      28.391 -23.613 -16.890  0.00  0.00    +0.009 C 
ENDBRANCH  29  30
ENDBRANCH  24  28
BRANCH  21  34
ATOM     34  O   UNL     1      36.078 -24.425 -14.372  0.00  0.00    -0.378 OA
ATOM     35  H   UNL     1      35.308 -24.957 -14.113  0.00  0.00    +0.211 HD
ENDBRANCH  21  34
BRANCH  22  36
ATOM     36  O   UNL     1      34.565 -22.899 -12.695  0.00  0.00    -0.379 OA
ATOM     37  H   UNL     1      33.938 -23.587 -12.420  0.00  0.00    +0.211 HD
ENDBRANCH  22  36
ENDBRANCH   1  23
TORSDOF 6
ENDMDL
MODEL 9
REMARK VINA RESULT:      -9.9      5.430      9.492
REMARK  Name = 9810927
REMARK  6 active torsions:
REMARK  status: ('A' for Active; 'I' for Inactive)
REMARK    1  A    between atoms: N_1  and  C_13
REMARK    2  A    between atoms: C_11  and  O_24
REMARK    3  A    between atoms: C_12  and  O_26
REMARK    4  A    between atoms: C_14  and  C_18
REMARK    5  A    between atoms: C_19  and  C_20
REMARK    6  A    between atoms: N_28  and  C_32
REMARK                            x       y       z     vdW  Elec       q    Type
REMARK                         _______ _______ _______ _____ _____    ______ ____
ROOT
ATOM      1  N   UNL     1      35.361 -20.094 -20.688  0.00  0.00    -0.247 N 
ATOM      2  N   UNL     1      35.777 -21.202 -18.797  0.00  0.00    -0.242 NA
ATOM      3  N   UNL     1      32.932 -20.127 -20.660  0.00  0.00    -0.228 NA
ATOM      4  N   UNL     1      32.081 -21.287 -18.689  0.00  0.00    -0.228 NA
ATOM      5  C   UNL     1      34.142 -20.414 -20.158  0.00  0.00    +0.152 C 
ATOM      6  C   UNL     1      36.311 -20.590 -19.834  0.00  0.00    +0.223 C 
ATOM      7  C   UNL     1      34.423 -21.098 -18.986  0.00  0.00    +0.140 C 
ATOM      8  C   UNL     1      33.335 -21.542 -18.241  0.00  0.00    +0.150 C 
ATOM      9  C   UNL     1      31.960 -20.606 -19.855  0.00  0.00    +0.253 C 
ATOM     10  N   UNL     1      33.526 -22.245 -17.039  0.00  0.00    -0.295 N 
ATOM     11  H   UNL     1      34.474 -22.374 -16.804  0.00  0.00    +0.154 HD
ENDROOT
BRANCH  10  14
ATOM     12 CL   UNL     1      29.763 -24.576 -13.108  0.00  0.00    -0.082 Cl
ATOM     13  F   UNL     1      34.433 -23.405 -14.677  0.00  0.00    -0.203 F 
ATOM     14  C   UNL     1      32.631 -22.800 -16.100  0.00  0.00    +0.077 C 
ATOM     15  C   UNL     1      33.116 -23.375 -14.926  0.00  0.00    +0.154 C 
ATOM     16  C   UNL     1      31.259 -22.775 -16.350  0.00  0.00    +0.018 C 
ATOM     17  C   UNL     1      32.229 -23.924 -14.001  0.00  0.00    +0.042 C 
ATOM     18  C   UNL     1      30.372 -23.325 -15.426  0.00  0.00    +0.013 C 
ATOM     19  C   UNL     1      30.856 -23.898 -14.250  0.00  0.00    +0.060 C 
ENDBRANCH  10  14
BRANCH   1  23
ATOM     20  O   UNL     1      35.712 -17.951 -21.659  0.00  0.00    -0.326 OA
ATOM     21  C   UNL     1      34.528 -19.544 -22.984  0.00  0.00    +0.187 C 
ATOM     22  C   UNL     1      33.695 -18.287 -22.813  0.00  0.00    +0.178 C 
ATOM     23  C   UNL     1      35.615 -19.363 -21.932  0.00  0.00    +0.225 C 
ATOM     24  C   UNL     1      34.751 -17.243 -22.475  0.00  0.00    +0.223 C 
BRANCH  24  28
ATOM     25  O   UNL     1      33.746 -15.017 -22.416  0.00  0.00    -0.421 OA
ATOM     26  N   UNL     1      34.378 -15.789 -20.414  0.00  0.00    -0.109 NA
ATOM     27  N   UNL     1      33.832 -14.531 -20.234  0.00  0.00    -0.112 NA
ATOM     28  C   UNL     1      34.304 -16.023 -21.697  0.00  0.00    +0.255 A 
ATOM     29  C   UNL     1      33.478 -14.120 -21.428  0.00  0.00    +0.225 A 
BRANCH  29  30
ATOM     30  C   UNL     1      32.845 -12.858 -21.833  0.00  0.00    +0.070 C 
ATOM     31  C   UNL     1      31.925 -12.256 -20.709  0.00  0.00    +0.009 C 
ATOM     32  C   UNL     1      31.941 -13.018 -23.111  0.00  0.00    +0.009 C 
ATOM     33  C   UNL     1      33.828 -11.679 -22.200  0.00  0.00    +0.009 C 
ENDBRANCH  29  30
ENDBRANCH  24  28
BRANCH  21  34
ATOM     34  O   UNL     1      35.156 -19.559 -24.265  0.00  0.00    -0.378 OA
ATOM     35  H   UNL     1      35.041 -18.694 -24.691  0.00  0.00    +0.211 HD
ENDBRANCH  21  34
BRANCH  22  36
ATOM     36  O   UNL     1      32.971 -17.953 -23.980  0.00  0.00    -0.379 OA
ATOM     37  H   UNL     1      32.497 -18.737 -24.302  0.00  0.00    +0.211 HD
ENDBRANCH  22  36
ENDBRANCH   1  23
TORSDOF 6
ENDMDL
