MODEL 1
REMARK VINA RESULT:     -12.0      0.000      0.000
REMARK  Name = 4147757
REMARK  8 active torsions:
REMARK  status: ('A' for Active; 'I' for Inactive)
REMARK    1  A    between atoms: C_1  and  C_20
REMARK    2  A    between atoms: C_4  and  O_7
REMARK    3  A    between atoms: O_7  and  C_8
REMARK    4  A    between atoms: C_8  and  C_9
REMARK    5  A    between atoms: C_9  and  C_11
REMARK    6  A    between atoms: C_12  and  C_16
REMARK    7  A    between atoms: C_16  and  O_18
REMARK    8  A    between atoms: C_20  and  C_25
REMARK                            x       y       z     vdW  Elec       q    Type
REMARK                         _______ _______ _______ _____ _____    ______ ____
ROOT
ATOM      1  C   UNL     1      34.820 -20.160 -20.206  0.00  0.00    -0.021 C 
ATOM      2  C   UNL     1      33.464 -20.436 -20.114  0.00  0.00    -0.001 C 
ATOM      3  C   UNL     1      35.733 -20.755 -19.348  0.00  0.00    -0.001 C 
ATOM      4  C   UNL     1      33.918 -21.932 -18.272  0.00  0.00    +0.139 C 
ATOM      5  C   UNL     1      33.010 -21.327 -19.142  0.00  0.00    +0.037 C 
ATOM      6  C   UNL     1      35.279 -21.646 -18.376  0.00  0.00    +0.037 C 
ENDROOT
BRANCH   4   7
ATOM      7  O   UNL     1      33.474 -22.802 -17.324  0.00  0.00    -0.475 OA
BRANCH   7   8
ATOM      8  C   UNL     1      33.652 -22.420 -15.960  0.00  0.00    +0.212 C 
BRANCH   8   9
ATOM      9  C   UNL     1      33.779 -23.665 -15.089  0.00  0.00    +0.093 C 
BRANCH   9  11
ATOM     10  N   UNL     1      35.413 -25.451 -15.024  0.00  0.00    -0.248 NA
ATOM     11  C   UNL     1      35.211 -24.124 -14.950  0.00  0.00    +0.063 C 
ATOM     12  C   UNL     1      37.767 -24.998 -14.705  0.00  0.00    +0.023 C 
ATOM     13  C   UNL     1      36.194 -23.179 -14.761  0.00  0.00    +0.015 C 
ATOM     14  C   UNL     1      37.502 -23.635 -14.636  0.00  0.00    +0.001 C 
ATOM     15  C   UNL     1      36.696 -25.858 -14.899  0.00  0.00    +0.096 C 
BRANCH  12  16
ATOM     16  C   UNL     1      39.154 -25.518 -14.579  0.00  0.00    +0.134 C 
ATOM     17  C   UNL     1      40.009 -24.698 -13.605  0.00  0.00    +0.037 C 
BRANCH  16  18
ATOM     18  O   UNL     1      39.797 -25.525 -15.860  0.00  0.00    -0.380 OA
ATOM     19  H   UNL     1      40.442 -24.802 -15.901  0.00  0.00    +0.211 HD
ENDBRANCH  16  18
ENDBRANCH  12  16
ENDBRANCH   9  11
ENDBRANCH   8   9
ENDBRANCH   7   8
ENDBRANCH   4   7
BRANCH   1  20
ATOM     20  C   UNL     1      35.311 -19.197 -21.257  0.00  0.00    +0.047 C 
BRANCH  20  25
ATOM     21  S   UNL     1      33.974 -18.390 -23.524  0.00  0.00    -0.048 S 
ATOM     22  O   UNL     1      34.834 -16.378 -20.346  0.00  0.00    -0.274 OA
ATOM     23  O   UNL     1      34.185 -16.167 -24.914  0.00  0.00    -0.263 OA
ATOM     24  N   UNL     1      34.536 -16.068 -22.618  0.00  0.00    -0.246 N 
ATOM     25  C   UNL     1      34.211 -18.262 -21.727  0.00  0.00    +0.137 C 
ATOM     26  C   UNL     1      34.564 -16.816 -21.459  0.00  0.00    +0.239 C 
ATOM     27  C   UNL     1      34.247 -16.683 -23.808  0.00  0.00    +0.279 C 
ATOM     28  H   UNL     1      34.721 -15.102 -22.591  0.00  0.00    +0.158 HD
ENDBRANCH  20  25
ENDBRANCH   1  20
TORSDOF 8
ENDMDL
MODEL 2
REMARK VINA RESULT:     -11.6      4.364     10.251
REMARK  Name = 4147757
REMARK  8 active torsions:
REMARK  status: ('A' for Active; 'I' for Inactive)
REMARK    1  A    between atoms: C_1  and  C_20
REMARK    2  A    between atoms: C_4  and  O_7
REMARK    3  A    between atoms: O_7  and  C_8
REMARK    4  A    between atoms: C_8  and  C_9
REMARK    5  A    between atoms: C_9  and  C_11
REMARK    6  A    between atoms: C_12  and  C_16
REMARK    7  A    between atoms: C_16  and  O_18
REMARK    8  A    between atoms: C_20  and  C_25
REMARK                            x       y       z     vdW  Elec       q    Type
REMARK                         _______ _______ _______ _____ _____    ______ ____
ROOT
ATOM      1  C   UNL     1      33.348 -22.053 -18.228  0.00  0.00    -0.021 C 
ATOM      2  C   UNL     1      32.574 -21.229 -19.031  0.00  0.00    -0.001 C 
ATOM      3  C   UNL     1      34.730 -21.944 -18.209  0.00  0.00    -0.001 C 
ATOM      4  C   UNL     1      34.586 -20.153 -19.824  0.00  0.00    +0.139 C 
ATOM      5  C   UNL     1      33.197 -20.273 -19.833  0.00  0.00    +0.037 C 
ATOM      6  C   UNL     1      35.353 -20.989 -19.012  0.00  0.00    +0.037 C 
ENDROOT
BRANCH   4   7
ATOM      7  O   UNL     1      35.194 -19.220 -20.608  0.00  0.00    -0.475 OA
BRANCH   7   8
ATOM      8  C   UNL     1      34.600 -18.954 -21.877  0.00  0.00    +0.212 C 
BRANCH   8   9
ATOM      9  C   UNL     1      35.365 -17.837 -22.580  0.00  0.00    +0.093 C 
BRANCH   9  11
ATOM     10  N   UNL     1      34.578 -16.092 -21.097  0.00  0.00    -0.248 NA
ATOM     11  C   UNL     1      34.724 -16.485 -22.374  0.00  0.00    +0.063 C 
ATOM     12  C   UNL     1      33.575 -14.065 -21.953  0.00  0.00    +0.023 C 
ATOM     13  C   UNL     1      34.338 -15.760 -23.479  0.00  0.00    +0.015 C 
ATOM     14  C   UNL     1      33.750 -14.520 -23.255  0.00  0.00    +0.001 C 
ATOM     15  C   UNL     1      34.003 -14.881 -20.917  0.00  0.00    +0.096 C 
BRANCH  12  16
ATOM     16  C   UNL     1      32.953 -12.742 -21.679  0.00  0.00    +0.134 C 
ATOM     17  C   UNL     1      31.880 -12.805 -20.586  0.00  0.00    +0.037 C 
BRANCH  16  18
ATOM     18  O   UNL     1      32.360 -12.219 -22.875  0.00  0.00    -0.380 OA
ATOM     19  H   UNL     1      31.424 -12.472 -22.909  0.00  0.00    +0.211 HD
ENDBRANCH  16  18
ENDBRANCH  12  16
ENDBRANCH   9  11
ENDBRANCH   8   9
ENDBRANCH   7   8
ENDBRANCH   4   7
BRANCH   1  20
ATOM     20  C   UNL     1      32.675 -23.086 -17.361  0.00  0.00    +0.047 C 
BRANCH  20  25
ATOM     21  S   UNL     1      32.798 -23.402 -14.628  0.00  0.00    -0.048 S 
ATOM     22  O   UNL     1      29.891 -22.108 -16.812  0.00  0.00    -0.274 OA
ATOM     23  O   UNL     1      31.022 -24.384 -12.956  0.00  0.00    -0.263 OA
ATOM     24  N   UNL     1      30.256 -23.256 -14.838  0.00  0.00    -0.246 N 
ATOM     25  C   UNL     1      32.158 -22.489 -16.064  0.00  0.00    +0.137 C 
ATOM     26  C   UNL     1      30.652 -22.582 -15.975  0.00  0.00    +0.239 C 
ATOM     27  C   UNL     1      31.207 -23.765 -13.993  0.00  0.00    +0.279 C 
ATOM     28  H   UNL     1      29.299 -23.371 -14.636  0.00  0.00    +0.158 HD
ENDBRANCH  20  25
ENDBRANCH   1  20
TORSDOF 8
ENDMDL
MODEL 3
REMARK VINA RESULT:     -11.3      3.130      4.566
REMARK  Name = 4147757
REMARK  8 active torsions:
REMARK  status: ('A' for Active; 'I' for Inactive)
REMARK    1  A    between atoms: C_1  and  C_20
REMARK    2  A    between atoms: C_4  and  O_7
REMARK    3  A    between atoms: O_7  and  C_8
REMARK    4  A    between atoms: C_8  and  C_9
REMARK    5  A    between atoms: C_9  and  C_11
REMARK    6  A    between atoms: C_12  and  C_16
REMARK    7  A    between atoms: C_16  and  O_18
REMARK    8  A    between atoms: C_20  and  C_25
REMARK                            x       y       z     vdW  Elec       q    Type
REMARK                         _______ _______ _______ _____ _____    ______ ____
ROOT
ATOM      1  C   UNL     1      34.587 -18.109 -22.467  0.00  0.00    -0.021 C 
ATOM      2  C   UNL     1      35.906 -17.871 -22.111  0.00  0.00    -0.001 C 
ATOM      3  C   UNL     1      33.813 -19.029 -21.777  0.00  0.00    -0.001 C 
ATOM      4  C   UNL     1      35.696 -19.498 -20.338  0.00  0.00    +0.139 C 
ATOM      5  C   UNL     1      36.464 -18.569 -21.040  0.00  0.00    +0.037 C 
ATOM      6  C   UNL     1      34.370 -19.728 -20.706  0.00  0.00    +0.037 C 
ENDROOT
BRANCH   4   7
ATOM      7  O   UNL     1      36.240 -20.180 -19.292  0.00  0.00    -0.475 OA
BRANCH   7   8
ATOM      8  C   UNL     1      35.459 -21.231 -18.726  0.00  0.00    +0.212 C 
BRANCH   8   9
ATOM      9  C   UNL     1      35.962 -21.549 -17.322  0.00  0.00    +0.093 C 
BRANCH   9  11
ATOM     10  N   UNL     1      35.237 -22.413 -15.180  0.00  0.00    -0.248 NA
ATOM     11  C   UNL     1      34.892 -22.169 -16.456  0.00  0.00    +0.063 C 
ATOM     12  C   UNL     1      33.004 -23.284 -14.860  0.00  0.00    +0.023 C 
ATOM     13  C   UNL     1      33.662 -22.438 -17.013  0.00  0.00    +0.015 C 
ATOM     14  C   UNL     1      32.699 -23.010 -16.188  0.00  0.00    +0.001 C 
ATOM     15  C   UNL     1      34.276 -22.969 -14.408  0.00  0.00    +0.096 C 
BRANCH  12  16
ATOM     16  C   UNL     1      31.996 -23.892 -13.951  0.00  0.00    +0.134 C 
ATOM     17  C   UNL     1      31.043 -22.856 -13.343  0.00  0.00    +0.037 C 
BRANCH  16  18
ATOM     18  O   UNL     1      32.651 -24.594 -12.886  0.00  0.00    -0.380 OA
ATOM     19  H   UNL     1      33.488 -24.963 -13.209  0.00  0.00    +0.211 HD
ENDBRANCH  16  18
ENDBRANCH  12  16
ENDBRANCH   9  11
ENDBRANCH   8   9
ENDBRANCH   7   8
ENDBRANCH   4   7
BRANCH   1  20
ATOM     20  C   UNL     1      33.985 -17.354 -23.625  0.00  0.00    +0.047 C 
BRANCH  20  25
ATOM     21  S   UNL     1      34.182 -15.193 -21.931  0.00  0.00    -0.048 S 
ATOM     22  O   UNL     1      33.294 -15.285 -25.685  0.00  0.00    -0.274 OA
ATOM     23  O   UNL     1      32.619 -13.093 -21.676  0.00  0.00    -0.263 OA
ATOM     24  N   UNL     1      32.842 -14.051 -23.782  0.00  0.00    -0.246 N 
ATOM     25  C   UNL     1      34.364 -15.884 -23.602  0.00  0.00    +0.137 C 
ATOM     26  C   UNL     1      33.453 -15.066 -24.489  0.00  0.00    +0.239 C 
ATOM     27  C   UNL     1      33.081 -13.929 -22.438  0.00  0.00    +0.279 C 
ATOM     28  H   UNL     1      32.238 -13.420 -24.238  0.00  0.00    +0.158 HD
ENDBRANCH  20  25
ENDBRANCH   1  20
TORSDOF 8
ENDMDL
MODEL 4
REMARK VINA RESULT:     -11.3      3.293     10.333
REMARK  Name = 4147757
REMARK  8 active torsions:
REMARK  status: ('A' for Active; 'I' for Inactive)
REMARK    1  A    between atoms: C_1  and  C_20
REMARK    2  A    between atoms: C_4  and  O_7
REMARK    3  A    between atoms: O_7  and  C_8
REMARK    4  A    between atoms: C_8  and  C_9
REMARK    5  A    between atoms: C_9  and  C_11
REMARK    6  A    between atoms: C_12  and  C_16
REMARK    7  A    between atoms: C_16  and  O_18
REMARK    8  A    between atoms: C_20  and  C_25
REMARK                            x       y       z     vdW  Elec       q    Type
REMARK                         _______ _______ _______ _____ _____    ______ ____
ROOT
ATOM      1  C   UNL     1      34.840 -22.306 -16.747  0.00  0.00    -0.021 C 
ATOM      2  C   UNL     1      33.717 -22.315 -17.559  0.00  0.00    -0.001 C 
ATOM      3  C   UNL     1      36.005 -21.664 -17.141  0.00  0.00    -0.001 C 
ATOM      4  C   UNL     1      34.923 -21.018 -19.202  0.00  0.00    +0.139 C 
ATOM      5  C   UNL     1      33.757 -21.667 -18.794  0.00  0.00    +0.037 C 
ATOM      6  C   UNL     1      36.046 -21.017 -18.375  0.00  0.00    +0.037 C 
ENDROOT
BRANCH   4   7
ATOM      7  O   UNL     1      34.963 -20.386 -20.407  0.00  0.00    -0.475 OA
BRANCH   7   8
ATOM      8  C   UNL     1      35.593 -19.107 -20.448  0.00  0.00    +0.212 C 
BRANCH   8   9
ATOM      9  C   UNL     1      35.532 -18.547 -21.865  0.00  0.00    +0.093 C 
BRANCH   9  11
ATOM     10  N   UNL     1      34.705 -16.582 -20.716  0.00  0.00    -0.248 NA
ATOM     11  C   UNL     1      34.936 -17.160 -21.908  0.00  0.00    +0.063 C 
ATOM     12  C   UNL     1      33.864 -14.669 -21.933  0.00  0.00    +0.023 C 
ATOM     13  C   UNL     1      34.673 -16.589 -23.133  0.00  0.00    +0.015 C 
ATOM     14  C   UNL     1      34.124 -15.312 -23.138  0.00  0.00    +0.001 C 
ATOM     15  C   UNL     1      34.170 -15.341 -20.759  0.00  0.00    +0.096 C 
BRANCH  12  16
ATOM     16  C   UNL     1      33.280 -13.301 -21.903  0.00  0.00    +0.134 C 
ATOM     17  C   UNL     1      32.263 -13.114 -20.771  0.00  0.00    +0.037 C 
BRANCH  16  18
ATOM     18  O   UNL     1      32.636 -13.013 -23.151  0.00  0.00    -0.380 OA
ATOM     19  H   UNL     1      32.936 -13.645 -23.823  0.00  0.00    +0.211 HD
ENDBRANCH  16  18
ENDBRANCH  12  16
ENDBRANCH   9  11
ENDBRANCH   8   9
ENDBRANCH   7   8
ENDBRANCH   4   7
BRANCH   1  20
ATOM     20  C   UNL     1      34.795 -23.006 -15.412  0.00  0.00    +0.047 C 
BRANCH  20  25
ATOM     21  S   UNL     1      35.772 -25.481 -14.703  0.00  0.00    -0.048 S 
ATOM     22  O   UNL     1      37.120 -21.975 -13.819  0.00  0.00    -0.274 OA
ATOM     23  O   UNL     1      36.677 -26.344 -12.390  0.00  0.00    -0.263 OA
ATOM     24  N   UNL     1      37.009 -24.110 -12.938  0.00  0.00    -0.246 N 
ATOM     25  C   UNL     1      36.091 -23.739 -15.113  0.00  0.00    +0.137 C 
ATOM     26  C   UNL     1      36.790 -23.153 -13.907  0.00  0.00    +0.239 C 
ATOM     27  C   UNL     1      36.565 -25.390 -13.144  0.00  0.00    +0.279 C 
ATOM     28  H   UNL     1      37.480 -23.876 -12.105  0.00  0.00    +0.158 HD
ENDBRANCH  20  25
ENDBRANCH   1  20
TORSDOF 8
ENDMDL
MODEL 5
REMARK VINA RESULT:     -11.2      2.200      3.682
REMARK  Name = 4147757
REMARK  8 active torsions:
REMARK  status: ('A' for Active; 'I' for Inactive)
REMARK    1  A    between atoms: C_1  and  C_20
REMARK    2  A    between atoms: C_4  and  O_7
REMARK    3  A    between atoms: O_7  and  C_8
REMARK    4  A    between atoms: C_8  and  C_9
REMARK    5  A    between atoms: C_9  and  C_11
REMARK    6  A    between atoms: C_12  and  C_16
REMARK    7  A    between atoms: C_16  and  O_18
REMARK    8  A    between atoms: C_20  and  C_25
REMARK                            x       y       z     vdW  Elec       q    Type
REMARK                         _______ _______ _______ _____ _____    ______ ____
ROOT
ATOM      1  C   UNL     1      34.530 -17.875 -22.732  0.00  0.00    -0.021 C 
ATOM      2  C   UNL     1      35.818 -17.607 -22.294  0.00  0.00    -0.001 C 
ATOM      3  C   UNL     1      33.749 -18.840 -22.113  0.00  0.00    -0.001 C 
ATOM      4  C   UNL     1      35.562 -19.291 -20.581  0.00  0.00    +0.139 C 
ATOM      5  C   UNL     1      36.337 -18.318 -21.212  0.00  0.00    +0.037 C 
ATOM      6  C   UNL     1      34.267 -19.552 -21.032  0.00  0.00    +0.037 C 
ENDROOT
BRANCH   4   7
ATOM      7  O   UNL     1      36.068 -19.985 -19.526  0.00  0.00    -0.475 OA
BRANCH   7   8
ATOM      8  C   UNL     1      35.600 -21.320 -19.342  0.00  0.00    +0.212 C 
BRANCH   8   9
ATOM      9  C   UNL     1      34.695 -21.386 -18.117  0.00  0.00    +0.093 C 
BRANCH   9  11
ATOM     10  N   UNL     1      34.619 -22.902 -16.230  0.00  0.00    -0.248 NA
ATOM     11  C   UNL     1      35.373 -22.042 -16.938  0.00  0.00    +0.063 C 
ATOM     12  C   UNL     1      36.545 -23.246 -14.809  0.00  0.00    +0.023 C 
ATOM     13  C   UNL     1      36.686 -21.727 -16.668  0.00  0.00    +0.015 C 
ATOM     14  C   UNL     1      37.280 -22.349 -15.575  0.00  0.00    +0.001 C 
ATOM     15  C   UNL     1      35.230 -23.487 -15.175  0.00  0.00    +0.096 C 
BRANCH  12  16
ATOM     16  C   UNL     1      37.152 -23.930 -13.636  0.00  0.00    +0.134 C 
ATOM     17  C   UNL     1      36.519 -23.502 -12.306  0.00  0.00    +0.037 C 
BRANCH  16  18
ATOM     18  O   UNL     1      38.559 -23.661 -13.582  0.00  0.00    -0.380 OA
ATOM     19  H   UNL     1      38.748 -22.834 -14.052  0.00  0.00    +0.211 HD
ENDBRANCH  16  18
ENDBRANCH  12  16
ENDBRANCH   9  11
ENDBRANCH   8   9
ENDBRANCH   7   8
ENDBRANCH   4   7
BRANCH   1  20
ATOM     20  C   UNL     1      33.969 -17.106 -23.901  0.00  0.00    +0.047 C 
BRANCH  20  25
ATOM     21  S   UNL     1      34.107 -15.012 -22.119  0.00  0.00    -0.048 S 
ATOM     22  O   UNL     1      33.202 -14.976 -25.871  0.00  0.00    -0.274 OA
ATOM     23  O   UNL     1      32.480 -12.975 -21.771  0.00  0.00    -0.263 OA
ATOM     24  N   UNL     1      32.722 -13.838 -23.916  0.00  0.00    -0.246 N 
ATOM     25  C   UNL     1      34.302 -15.627 -23.819  0.00  0.00    +0.137 C 
ATOM     26  C   UNL     1      33.361 -14.802 -24.667  0.00  0.00    +0.239 C 
ATOM     27  C   UNL     1      32.964 -13.764 -22.569  0.00  0.00    +0.279 C 
ATOM     28  H   UNL     1      32.096 -13.208 -24.343  0.00  0.00    +0.158 HD
ENDBRANCH  20  25
ENDBRANCH   1  20
TORSDOF 8
ENDMDL
MODEL 6
REMARK VINA RESULT:     -11.2      4.139      7.025
REMARK  Name = 4147757
REMARK  8 active torsions:
REMARK  status: ('A' for Active; 'I' for Inactive)
REMARK    1  A    between atoms: C_1  and  C_20
REMARK    2  A    between atoms: C_4  and  O_7
REMARK    3  A    between atoms: O_7  and  C_8
REMARK    4  A    between atoms: C_8  and  C_9
REMARK    5  A    between atoms: C_9  and  C_11
REMARK    6  A    between atoms: C_12  and  C_16
REMARK    7  A    between atoms: C_16  and  O_18
REMARK    8  A    between atoms: C_20  and  C_25
REMARK                            x       y       z     vdW  Elec       q    Type
REMARK                         _______ _______ _______ _____ _____    ______ ____
ROOT
ATOM      1  C   UNL     1      33.948 -14.071 -22.713  0.00  0.00    -0.021 C 
ATOM      2  C   UNL     1      34.271 -14.902 -21.652  0.00  0.00    -0.001 C 
ATOM      3  C   UNL     1      33.790 -14.575 -23.996  0.00  0.00    -0.001 C 
ATOM      4  C   UNL     1      34.286 -16.787 -23.162  0.00  0.00    +0.139 C 
ATOM      5  C   UNL     1      34.441 -16.268 -21.876  0.00  0.00    +0.037 C 
ATOM      6  C   UNL     1      33.960 -15.940 -24.222  0.00  0.00    +0.037 C 
ENDROOT
BRANCH   4   7
ATOM      7  O   UNL     1      34.452 -18.120 -23.381  0.00  0.00    -0.475 OA
BRANCH   7   8
ATOM      8  C   UNL     1      33.884 -19.011 -22.422  0.00  0.00    +0.212 C 
BRANCH   8   9
ATOM      9  C   UNL     1      34.839 -19.179 -21.245  0.00  0.00    +0.093 C 
BRANCH   9  11
ATOM     10  N   UNL     1      35.248 -20.883 -19.575  0.00  0.00    -0.248 NA
ATOM     11  C   UNL     1      34.318 -20.156 -20.219  0.00  0.00    +0.063 C 
ATOM     12  C   UNL     1      33.433 -21.927 -18.366  0.00  0.00    +0.023 C 
ATOM     13  C   UNL     1      32.959 -20.240 -20.013  0.00  0.00    +0.015 C 
ATOM     14  C   UNL     1      32.513 -21.150 -19.061  0.00  0.00    +0.001 C 
ATOM     15  C   UNL     1      34.777 -21.757 -18.656  0.00  0.00    +0.096 C 
BRANCH  12  16
ATOM     16  C   UNL     1      32.988 -22.907 -17.339  0.00  0.00    +0.134 C 
ATOM     17  C   UNL     1      31.692 -22.485 -16.637  0.00  0.00    +0.037 C 
BRANCH  16  18
ATOM     18  O   UNL     1      34.010 -23.083 -16.349  0.00  0.00    -0.380 OA
ATOM     19  H   UNL     1      33.799 -22.547 -15.569  0.00  0.00    +0.211 HD
ENDBRANCH  16  18
ENDBRANCH  12  16
ENDBRANCH   9  11
ENDBRANCH   8   9
ENDBRANCH   7   8
ENDBRANCH   4   7
BRANCH   1  20
ATOM     20  C   UNL     1      33.764 -12.595 -22.470  0.00  0.00    +0.047 C 
BRANCH  20  25
ATOM     21  S   UNL     1      32.096 -10.501 -23.115  0.00  0.00    -0.048 S 
ATOM     22  O   UNL     1      31.716 -13.169 -20.353  0.00  0.00    -0.274 OA
ATOM     23  O   UNL     1      30.835  -8.798 -21.557  0.00  0.00    -0.263 OA
ATOM     24  N   UNL     1      31.172 -10.962 -20.778  0.00  0.00    -0.246 N 
ATOM     25  C   UNL     1      32.299 -12.195 -22.487  0.00  0.00    +0.137 C 
ATOM     26  C   UNL     1      31.711 -12.192 -21.094  0.00  0.00    +0.239 C 
ATOM     27  C   UNL     1      31.257  -9.938 -21.684  0.00  0.00    +0.279 C 
ATOM     28  H   UNL     1      30.731 -10.821 -19.909  0.00  0.00    +0.158 HD
ENDBRANCH  20  25
ENDBRANCH   1  20
TORSDOF 8
ENDMDL
MODEL 7
REMARK VINA RESULT:     -11.2      3.281     10.539
REMARK  Name = 4147757
REMARK  8 active torsions:
REMARK  status: ('A' for Active; 'I' for Inactive)
REMARK    1  A    between atoms: C_1  and  C_20
REMARK    2  A    between atoms: C_4  and  O_7
REMARK    3  A    between atoms: O_7  and  C_8
REMARK    4  A    between atoms: C_8  and  C_9
REMARK    5  A    between atoms: C_9  and  C_11
REMARK    6  A    between atoms: C_12  and  C_16
REMARK    7  A    between atoms: C_16  and  O_18
REMARK    8  A    between atoms: C_20  and  C_25
REMARK                            x       y       z     vdW  Elec       q    Type
REMARK                         _______ _______ _______ _____ _____    ______ ____
ROOT
ATOM      1  C   UNL     1      35.833 -22.145 -16.325  0.00  0.00    -0.021 C 
ATOM      2  C   UNL     1      36.640 -21.354 -17.129  0.00  0.00    -0.001 C 
ATOM      3  C   UNL     1      34.538 -22.466 -16.703  0.00  0.00    -0.001 C 
ATOM      4  C   UNL     1      34.839 -21.188 -18.731  0.00  0.00    +0.139 C 
ATOM      5  C   UNL     1      36.141 -20.873 -18.339  0.00  0.00    +0.037 C 
ATOM      6  C   UNL     1      34.038 -21.985 -17.913  0.00  0.00    +0.037 C 
ENDROOT
BRANCH   4   7
ATOM      7  O   UNL     1      34.352 -20.718 -19.912  0.00  0.00    -0.475 OA
BRANCH   7   8
ATOM      8  C   UNL     1      35.065 -19.646 -20.527  0.00  0.00    +0.212 C 
BRANCH   8   9
ATOM      9  C   UNL     1      34.593 -19.471 -21.967  0.00  0.00    +0.093 C 
BRANCH   9  11
ATOM     10  N   UNL     1      33.987 -17.782 -23.592  0.00  0.00    -0.248 NA
ATOM     11  C   UNL     1      34.413 -18.019 -22.339  0.00  0.00    +0.063 C 
ATOM     12  C   UNL     1      34.077 -15.425 -23.057  0.00  0.00    +0.023 C 
ATOM     13  C   UNL     1      34.691 -17.054 -21.397  0.00  0.00    +0.015 C 
ATOM     14  C   UNL     1      34.516 -15.726 -21.773  0.00  0.00    +0.001 C 
ATOM     15  C   UNL     1      33.828 -16.480 -23.921  0.00  0.00    +0.096 C 
BRANCH  12  16
ATOM     16  C   UNL     1      33.877 -14.016 -23.489  0.00  0.00    +0.134 C 
ATOM     17  C   UNL     1      33.734 -13.048 -22.308  0.00  0.00    +0.037 C 
BRANCH  16  18
ATOM     18  O   UNL     1      32.706 -13.913 -24.310  0.00  0.00    -0.380 OA
ATOM     19  H   UNL     1      32.155 -13.179 -23.997  0.00  0.00    +0.211 HD
ENDBRANCH  16  18
ENDBRANCH  12  16
ENDBRANCH   9  11
ENDBRANCH   8   9
ENDBRANCH   7   8
ENDBRANCH   4   7
BRANCH   1  20
ATOM     20  C   UNL     1      36.373 -22.665 -15.017  0.00  0.00    +0.047 C 
BRANCH  20  25
ATOM     21  S   UNL     1      35.196 -23.109 -12.568  0.00  0.00    -0.048 S 
ATOM     22  O   UNL     1      36.124 -25.640 -15.330  0.00  0.00    -0.274 OA
ATOM     23  O   UNL     1      35.658 -24.983 -10.782  0.00  0.00    -0.263 OA
ATOM     24  N   UNL     1      35.935 -25.511 -13.029  0.00  0.00    -0.246 N 
ATOM     25  C   UNL     1      35.381 -23.575 -14.316  0.00  0.00    +0.137 C 
ATOM     26  C   UNL     1      35.855 -25.011 -14.312  0.00  0.00    +0.239 C 
ATOM     27  C   UNL     1      35.634 -24.695 -11.969  0.00  0.00    +0.279 C 
ATOM     28  H   UNL     1      36.207 -26.444 -12.875  0.00  0.00    +0.158 HD
ENDBRANCH  20  25
ENDBRANCH   1  20
TORSDOF 8
ENDMDL
MODEL 8
REMARK VINA RESULT:     -11.1      4.871      7.970
REMARK  Name = 4147757
REMARK  8 active torsions:
REMARK  status: ('A' for Active; 'I' for Inactive)
REMARK    1  A    between atoms: C_1  and  C_20
REMARK    2  A    between atoms: C_4  and  O_7
REMARK    3  A    between atoms: O_7  and  C_8
REMARK    4  A    between atoms: C_8  and  C_9
REMARK    5  A    between atoms: C_9  and  C_11
REMARK    6  A    between atoms: C_12  and  C_16
REMARK    7  A    between atoms: C_16  and  O_18
REMARK    8  A    between atoms: C_20  and  C_25
REMARK                            x       y       z     vdW  Elec       q    Type
REMARK                         _______ _______ _______ _____ _____    ______ ____
ROOT
ATOM      1  C   UNL     1      32.972 -12.821 -22.776  0.00  0.00    -0.021 C 
ATOM      2  C   UNL     1      33.571 -13.764 -23.596  0.00  0.00    -0.001 C 
ATOM      3  C   UNL     1      32.949 -12.978 -21.398  0.00  0.00    -0.001 C 
ATOM      4  C   UNL     1      34.145 -15.063 -21.642  0.00  0.00    +0.139 C 
ATOM      5  C   UNL     1      34.161 -14.892 -23.026  0.00  0.00    +0.037 C 
ATOM      6  C   UNL     1      33.538 -14.106 -20.828  0.00  0.00    +0.037 C 
ENDROOT
BRANCH   4   7
ATOM      7  O   UNL     1      34.721 -16.164 -21.086  0.00  0.00    -0.475 OA
BRANCH   7   8
ATOM      8  C   UNL     1      34.988 -17.265 -21.953  0.00  0.00    +0.212 C 
BRANCH   8   9
ATOM      9  C   UNL     1      35.921 -18.253 -21.261  0.00  0.00    +0.093 C 
BRANCH   9  11
ATOM     10  N   UNL     1      35.899 -20.104 -19.702  0.00  0.00    -0.248 NA
ATOM     11  C   UNL     1      35.167 -19.335 -20.526  0.00  0.00    +0.063 C 
ATOM     12  C   UNL     1      33.859 -21.295 -19.183  0.00  0.00    +0.023 C 
ATOM     13  C   UNL     1      33.813 -19.463 -20.741  0.00  0.00    +0.015 C 
ATOM     14  C   UNL     1      33.149 -20.470 -20.049  0.00  0.00    +0.001 C 
ATOM     15  C   UNL     1      35.220 -21.073 -19.046  0.00  0.00    +0.096 C 
BRANCH  12  16
ATOM     16  C   UNL     1      33.178 -22.379 -18.426  0.00  0.00    +0.134 C 
ATOM     17  C   UNL     1      33.699 -22.518 -16.991  0.00  0.00    +0.037 C 
BRANCH  16  18
ATOM     18  O   UNL     1      33.348 -23.633 -19.099  0.00  0.00    -0.380 OA
ATOM     19  H   UNL     1      33.464 -23.476 -20.050  0.00  0.00    +0.211 HD
ENDBRANCH  16  18
ENDBRANCH  12  16
ENDBRANCH   9  11
ENDBRANCH   8   9
ENDBRANCH   7   8
ENDBRANCH   4   7
BRANCH   1  20
ATOM     20  C   UNL     1      32.334 -11.601 -23.393  0.00  0.00    +0.047 C 
BRANCH  20  25
ATOM     21  S   UNL     1      30.782  -9.746 -22.077  0.00  0.00    -0.048 S 
ATOM     22  O   UNL     1      34.302  -9.345 -23.608  0.00  0.00    -0.274 OA
ATOM     23  O   UNL     1      30.315  -7.221 -22.645  0.00  0.00    -0.263 OA
ATOM     24  N   UNL     1      32.392  -8.109 -23.196  0.00  0.00    -0.246 N 
ATOM     25  C   UNL     1      32.433 -10.389 -22.484  0.00  0.00    +0.137 C 
ATOM     26  C   UNL     1      33.164  -9.251 -23.159  0.00  0.00    +0.239 C 
ATOM     27  C   UNL     1      31.120  -8.139 -22.686  0.00  0.00    +0.279 C 
ATOM     28  H   UNL     1      32.750  -7.278 -23.586  0.00  0.00    +0.158 HD
ENDBRANCH  20  25
ENDBRANCH   1  20
TORSDOF 8
ENDMDL
MODEL 9
REMARK VINA RESULT:     -11.1      4.642     11.499
REMARK  Name = 4147757
REMARK  8 active torsions:
REMARK  status: ('A' for Active; 'I' for Inactive)
REMARK    1  A    between atoms: C_1  and  C_20
REMARK    2  A    between atoms: C_4  and  O_7
REMARK    3  A    between atoms: O_7  and  C_8
REMARK    4  A    between atoms: C_8  and  C_9
REMARK    5  A    between atoms: C_9  and  C_11
REMARK    6  A    between atoms: C_12  and  C_16
REMARK    7  A    between atoms: C_16  and  O_18
REMARK    8  A    between atoms: C_20  and  C_25
REMARK                            x       y       z     vdW  Elec       q    Type
REMARK                         _______ _______ _______ _____ _____    ______ ____
ROOT
ATOM      1  C   UNL     1      34.525 -18.924 -21.891  0.00  0.00    -0.021 C 
ATOM      2  C   UNL     1      34.914 -17.752 -21.260  0.00  0.00    -0.001 C 
ATOM      3  C   UNL     1      33.998 -18.907 -23.173  0.00  0.00    -0.001 C 
ATOM      4  C   UNL     1      34.242 -16.504 -23.216  0.00  0.00    +0.139 C 
ATOM      5  C   UNL     1      34.772 -16.535 -21.926  0.00  0.00    +0.037 C 
ATOM      6  C   UNL     1      33.855 -17.691 -23.840  0.00  0.00    +0.037 C 
ENDROOT
BRANCH   4   7
ATOM      7  O   UNL     1      34.103 -15.316 -23.866  0.00  0.00    -0.475 OA
BRANCH   7   8
ATOM      8  C   UNL     1      33.986 -14.145 -23.059  0.00  0.00    +0.212 C 
BRANCH   8   9
ATOM      9  C   UNL     1      32.914 -13.226 -23.637  0.00  0.00    +0.093 C 
BRANCH   9  11
ATOM     10  N   UNL     1      32.187 -10.994 -23.048  0.00  0.00    -0.248 NA
ATOM     11  C   UNL     1      32.383 -12.251 -22.614  0.00  0.00    +0.063 C 
ATOM     12  C   UNL     1      31.432 -10.460 -20.813  0.00  0.00    +0.023 C 
ATOM     13  C   UNL     1      32.141 -12.698 -21.335  0.00  0.00    +0.015 C 
ATOM     14  C   UNL     1      31.653 -11.774 -20.417  0.00  0.00    +0.001 C 
ATOM     15  C   UNL     1      31.711 -10.123 -22.129  0.00  0.00    +0.096 C 
BRANCH  12  16
ATOM     16  C   UNL     1      30.907  -9.449 -19.857  0.00  0.00    +0.134 C 
ATOM     17  C   UNL     1      31.318  -8.017 -20.223  0.00  0.00    +0.037 C 
BRANCH  16  18
ATOM     18  O   UNL     1      31.371  -9.735 -18.532  0.00  0.00    -0.380 OA
ATOM     19  H   UNL     1      31.967 -10.500 -18.556  0.00  0.00    +0.211 HD
ENDBRANCH  16  18
ENDBRANCH  12  16
ENDBRANCH   9  11
ENDBRANCH   8   9
ENDBRANCH   7   8
ENDBRANCH   4   7
BRANCH   1  20
ATOM     20  C   UNL     1      34.679 -20.240 -21.171  0.00  0.00    +0.047 C 
BRANCH  20  25
ATOM     21  S   UNL     1      34.875 -21.370 -18.668  0.00  0.00    -0.048 S 
ATOM     22  O   UNL     1      31.747 -20.109 -20.543  0.00  0.00    -0.274 OA
ATOM     23  O   UNL     1      33.371 -23.189 -17.509  0.00  0.00    -0.263 OA
ATOM     24  N   UNL     1      32.366 -21.716 -19.000  0.00  0.00    -0.246 N 
ATOM     25  C   UNL     1      34.043 -20.209 -19.792  0.00  0.00    +0.137 C 
ATOM     26  C   UNL     1      32.597 -20.648 -19.842  0.00  0.00    +0.239 C 
ATOM     27  C   UNL     1      33.409 -22.249 -18.289  0.00  0.00    +0.279 C 
ATOM     28  H   UNL     1      31.461 -22.093 -18.910  0.00  0.00    +0.158 HD
ENDBRANCH  20  25
ENDBRANCH   1  20
TORSDOF 8
ENDMDL
