MODEL 1
REMARK VINA RESULT:     -11.3      0.000      0.000
REMARK  Name = 11395145
REMARK  8 active torsions:
REMARK  status: ('A' for Active; 'I' for Inactive)
REMARK    1  A    between atoms: N_1  and  S_10
REMARK    2  A    between atoms: C_2  and  C_23
REMARK    3  A    between atoms: C_8  and  O_21
REMARK    4  A    between atoms: S_10  and  C_13
REMARK    5  A    between atoms: C_18  and  O_19
REMARK    6  A    between atoms: C_23  and  C_24
REMARK    7  A    between atoms: C_24  and  C_26
REMARK    8  A    between atoms: C_26  and  O_27
REMARK                            x       y       z     vdW  Elec       q    Type
REMARK                         _______ _______ _______ _____ _____    ______ ____
ROOT
ATOM      1  N   UNL     1      34.851 -17.034 -21.710  0.00  0.00    -0.168 N 
ATOM      2  C   UNL     1      34.018 -15.058 -21.140  0.00  0.00    -0.004 C 
ATOM      3  C   UNL     1      33.840 -15.227 -22.542  0.00  0.00    +0.016 C 
ATOM      4  C   UNL     1      34.372 -16.476 -22.874  0.00  0.00    +0.074 C 
ATOM      5  C   UNL     1      34.641 -16.185 -20.657  0.00  0.00    +0.085 C 
ATOM      6  C   UNL     1      33.277 -14.437 -23.563  0.00  0.00    +0.038 C 
ATOM      7  C   UNL     1      34.368 -16.975 -24.180  0.00  0.00    +0.020 C 
ATOM      8  C   UNL     1      33.267 -14.923 -24.876  0.00  0.00    +0.139 C 
ATOM      9  C   UNL     1      33.806 -16.173 -25.177  0.00  0.00    +0.038 C 
ENDROOT
BRANCH   1  10
ATOM     10  S   UNL     1      35.583 -18.524 -21.572  0.00  0.00    +0.080 S 
ATOM     11  O   UNL     1      36.798 -18.291 -20.790  0.00  0.00    -0.149 OA
ATOM     12  O   UNL     1      35.657 -19.129 -22.904  0.00  0.00    -0.149 OA
BRANCH  10  13
ATOM     13  C   UNL     1      34.496 -19.554 -20.622  0.00  0.00    +0.126 C 
ATOM     14  C   UNL     1      35.042 -20.467 -19.740  0.00  0.00    +0.023 C 
ATOM     15  C   UNL     1      33.132 -19.420 -20.787  0.00  0.00    +0.023 C 
ATOM     16  C   UNL     1      34.187 -21.278 -18.992  0.00  0.00    +0.038 C 
ATOM     17  C   UNL     1      32.278 -20.231 -20.039  0.00  0.00    +0.038 C 
ATOM     18  C   UNL     1      32.805 -21.160 -19.142  0.00  0.00    +0.139 C 
BRANCH  18  19
ATOM     19  O   UNL     1      31.971 -21.950 -18.412  0.00  0.00    -0.471 OA
ATOM     20  C   UNL     1      32.533 -22.618 -17.284  0.00  0.00    +0.252 C 
ENDBRANCH  18  19
ENDBRANCH  10  13
ENDBRANCH   1  10
BRANCH   8  21
ATOM     21  O   UNL     1      32.725 -14.164 -25.868  0.00  0.00    -0.471 OA
ATOM     22  C   UNL     1      32.697 -12.753 -25.663  0.00  0.00    +0.252 C 
ENDBRANCH   8  21
BRANCH   2  23
ATOM     23  C   UNL     1      33.609 -13.886 -20.338  0.00  0.00    +0.039 C 
BRANCH  23  24
ATOM     24  C   UNL     1      32.084 -13.670 -20.254  0.00  0.00    +0.114 C 
BRANCH  24  26
ATOM     25  O   UNL     1      31.712 -11.275 -19.979  0.00  0.00    -0.250 OA
ATOM     26  C   UNL     1      31.652 -12.281 -20.674  0.00  0.00    +0.314 C 
BRANCH  26  27
ATOM     27  O   UNL     1      31.145 -12.277 -21.935  0.00  0.00    -0.480 OA
ATOM     28  H   UNL     1      30.245 -12.055 -22.077  0.00  0.00    +0.295 HD
ENDBRANCH  26  27
ENDBRANCH  24  26
ENDBRANCH  23  24
ENDBRANCH   2  23
TORSDOF 8
ENDMDL
MODEL 2
REMARK VINA RESULT:     -10.5      6.448     10.532
REMARK  Name = 11395145
REMARK  8 active torsions:
REMARK  status: ('A' for Active; 'I' for Inactive)
REMARK    1  A    between atoms: N_1  and  S_10
REMARK    2  A    between atoms: C_2  and  C_23
REMARK    3  A    between atoms: C_8  and  O_21
REMARK    4  A    between atoms: S_10  and  C_13
REMARK    5  A    between atoms: C_18  and  O_19
REMARK    6  A    between atoms: C_23  and  C_24
REMARK    7  A    between atoms: C_24  and  C_26
REMARK    8  A    between atoms: C_26  and  O_27
REMARK                            x       y       z     vdW  Elec       q    Type
REMARK                         _______ _______ _______ _____ _____    ______ ____
ROOT
ATOM      1  N   UNL     1      32.679 -23.353 -14.600  0.00  0.00    -0.168 N 
ATOM      2  C   UNL     1      33.892 -22.642 -16.317  0.00  0.00    -0.004 C 
ATOM      3  C   UNL     1      34.781 -23.027 -15.275  0.00  0.00    +0.016 C 
ATOM      4  C   UNL     1      33.995 -23.471 -14.209  0.00  0.00    +0.074 C 
ATOM      5  C   UNL     1      32.608 -22.853 -15.872  0.00  0.00    +0.085 C 
ATOM      6  C   UNL     1      36.184 -23.044 -15.135  0.00  0.00    +0.038 C 
ATOM      7  C   UNL     1      34.542 -23.929 -13.006  0.00  0.00    +0.020 C 
ATOM      8  C   UNL     1      36.745 -23.500 -13.937  0.00  0.00    +0.139 C 
ATOM      9  C   UNL     1      35.935 -23.935 -12.890  0.00  0.00    +0.038 C 
ENDROOT
BRANCH   1  10
ATOM     10  S   UNL     1      31.349 -23.753 -13.680  0.00  0.00    +0.080 S 
ATOM     11  O   UNL     1      31.357 -22.817 -12.556  0.00  0.00    -0.149 OA
ATOM     12  O   UNL     1      31.364 -25.199 -13.448  0.00  0.00    -0.149 OA
BRANCH  10  13
ATOM     13  C   UNL     1      29.914 -23.426 -14.670  0.00  0.00    +0.126 C 
ATOM     14  C   UNL     1      29.368 -22.158 -14.657  0.00  0.00    +0.023 C 
ATOM     15  C   UNL     1      29.376 -24.448 -15.428  0.00  0.00    +0.023 C 
ATOM     16  C   UNL     1      28.238 -21.901 -15.435  0.00  0.00    +0.038 C 
ATOM     17  C   UNL     1      28.247 -24.190 -16.206  0.00  0.00    +0.038 C 
ATOM     18  C   UNL     1      27.678 -22.917 -16.209  0.00  0.00    +0.139 C 
BRANCH  18  19
ATOM     19  O   UNL     1      26.577 -22.666 -16.969  0.00  0.00    -0.471 OA
ATOM     20  C   UNL     1      26.062 -21.335 -16.945  0.00  0.00    +0.252 C 
ENDBRANCH  18  19
ENDBRANCH  10  13
ENDBRANCH   1  10
BRANCH   8  21
ATOM     21  O   UNL     1      38.099 -23.517 -13.795  0.00  0.00    -0.471 OA
ATOM     22  C   UNL     1      38.685 -24.724 -13.309  0.00  0.00    +0.252 C 
ENDBRANCH   8  21
BRANCH   2  23
ATOM     23  C   UNL     1      34.271 -22.108 -17.642  0.00  0.00    +0.039 C 
BRANCH  23  24
ATOM     24  C   UNL     1      33.149 -22.168 -18.699  0.00  0.00    +0.114 C 
BRANCH  24  26
ATOM     25  O   UNL     1      31.862 -20.318 -19.629  0.00  0.00    -0.250 OA
ATOM     26  C   UNL     1      32.942 -20.857 -19.426  0.00  0.00    +0.314 C 
BRANCH  26  27
ATOM     27  O   UNL     1      34.119 -20.342 -19.870  0.00  0.00    -0.480 OA
ATOM     28  H   UNL     1      34.361 -19.465 -19.644  0.00  0.00    +0.295 HD
ENDBRANCH  26  27
ENDBRANCH  24  26
ENDBRANCH  23  24
ENDBRANCH   2  23
TORSDOF 8
ENDMDL
MODEL 3
REMARK VINA RESULT:      -9.9      7.200     10.511
REMARK  Name = 11395145
REMARK  8 active torsions:
REMARK  status: ('A' for Active; 'I' for Inactive)
REMARK    1  A    between atoms: N_1  and  S_10
REMARK    2  A    between atoms: C_2  and  C_23
REMARK    3  A    between atoms: C_8  and  O_21
REMARK    4  A    between atoms: S_10  and  C_13
REMARK    5  A    between atoms: C_18  and  O_19
REMARK    6  A    between atoms: C_23  and  C_24
REMARK    7  A    between atoms: C_24  and  C_26
REMARK    8  A    between atoms: C_26  and  O_27
REMARK                            x       y       z     vdW  Elec       q    Type
REMARK                         _______ _______ _______ _____ _____    ______ ____
ROOT
ATOM      1  N   UNL     1      34.105 -23.462 -13.470  0.00  0.00    -0.168 N 
ATOM      2  C   UNL     1      32.181 -23.493 -14.575  0.00  0.00    -0.004 C 
ATOM      3  C   UNL     1      33.183 -22.976 -15.443  0.00  0.00    +0.016 C 
ATOM      4  C   UNL     1      34.382 -22.967 -14.725  0.00  0.00    +0.074 C 
ATOM      5  C   UNL     1      32.778 -23.783 -13.370  0.00  0.00    +0.085 C 
ATOM      6  C   UNL     1      33.188 -22.513 -16.774  0.00  0.00    +0.038 C 
ATOM      7  C   UNL     1      35.587 -22.518 -15.273  0.00  0.00    +0.020 C 
ATOM      8  C   UNL     1      34.387 -22.060 -17.335  0.00  0.00    +0.139 C 
ATOM      9  C   UNL     1      35.567 -22.062 -16.594  0.00  0.00    +0.038 C 
ENDROOT
BRANCH   1  10
ATOM     10  S   UNL     1      35.204 -23.655 -12.233  0.00  0.00    +0.080 S 
ATOM     11  O   UNL     1      34.566 -24.565 -11.282  0.00  0.00    -0.149 OA
ATOM     12  O   UNL     1      35.661 -22.330 -11.808  0.00  0.00    -0.149 OA
BRANCH  10  13
ATOM     13  C   UNL     1      36.624 -24.469 -12.919  0.00  0.00    +0.126 C 
ATOM     14  C   UNL     1      36.447 -25.652 -13.609  0.00  0.00    +0.023 C 
ATOM     15  C   UNL     1      37.870 -23.901 -12.745  0.00  0.00    +0.023 C 
ATOM     16  C   UNL     1      37.563 -26.293 -14.148  0.00  0.00    +0.038 C 
ATOM     17  C   UNL     1      38.986 -24.542 -13.284  0.00  0.00    +0.038 C 
ATOM     18  C   UNL     1      38.832 -25.738 -13.986  0.00  0.00    +0.139 C 
BRANCH  18  19
ATOM     19  O   UNL     1      39.921 -26.362 -14.513  0.00  0.00    -0.471 OA
ATOM     20  C   UNL     1      40.938 -26.772 -13.600  0.00  0.00    +0.252 C 
ENDBRANCH  18  19
ENDBRANCH  10  13
ENDBRANCH   1  10
BRANCH   8  21
ATOM     21  O   UNL     1      34.398 -21.610 -18.621  0.00  0.00    -0.471 OA
ATOM     22  C   UNL     1      35.613 -21.030 -19.094  0.00  0.00    +0.252 C 
ENDBRANCH   8  21
BRANCH   2  23
ATOM     23  C   UNL     1      30.753 -23.687 -14.901  0.00  0.00    +0.039 C 
BRANCH  23  24
ATOM     24  C   UNL     1      29.836 -22.521 -14.475  0.00  0.00    +0.114 C 
BRANCH  24  26
ATOM     25  O   UNL     1      27.746 -21.689 -15.415  0.00  0.00    -0.250 OA
ATOM     26  C   UNL     1      28.899 -22.065 -15.574  0.00  0.00    +0.314 C 
BRANCH  26  27
ATOM     27  O   UNL     1      29.487 -22.150 -16.796  0.00  0.00    -0.480 OA
ATOM     28  H   UNL     1      30.350 -22.508 -16.877  0.00  0.00    +0.295 HD
ENDBRANCH  26  27
ENDBRANCH  24  26
ENDBRANCH  23  24
ENDBRANCH   2  23
TORSDOF 8
ENDMDL
MODEL 4
REMARK VINA RESULT:      -9.8      7.002     10.715
REMARK  Name = 11395145
REMARK  8 active torsions:
REMARK  status: ('A' for Active; 'I' for Inactive)
REMARK    1  A    between atoms: N_1  and  S_10
REMARK    2  A    between atoms: C_2  and  C_23
REMARK    3  A    between atoms: C_8  and  O_21
REMARK    4  A    between atoms: S_10  and  C_13
REMARK    5  A    between atoms: C_18  and  O_19
REMARK    6  A    between atoms: C_23  and  C_24
REMARK    7  A    between atoms: C_24  and  C_26
REMARK    8  A    between atoms: C_26  and  O_27
REMARK                            x       y       z     vdW  Elec       q    Type
REMARK                         _______ _______ _______ _____ _____    ______ ____
ROOT
ATOM      1  N   UNL     1      32.580 -23.448 -14.264  0.00  0.00    -0.168 N 
ATOM      2  C   UNL     1      34.741 -23.509 -14.770  0.00  0.00    -0.004 C 
ATOM      3  C   UNL     1      34.039 -22.972 -15.885  0.00  0.00    +0.016 C 
ATOM      4  C   UNL     1      32.685 -22.944 -15.541  0.00  0.00    +0.074 C 
ATOM      5  C   UNL     1      33.818 -23.792 -13.789  0.00  0.00    +0.085 C 
ATOM      6  C   UNL     1      34.426 -22.504 -17.156  0.00  0.00    +0.038 C 
ATOM      7  C   UNL     1      31.696 -22.471 -16.410  0.00  0.00    +0.020 C 
ATOM      8  C   UNL     1      33.447 -22.028 -18.036  0.00  0.00    +0.139 C 
ATOM      9  C   UNL     1      32.103 -22.013 -17.666  0.00  0.00    +0.038 C 
ENDROOT
BRANCH   1  10
ATOM     10  S   UNL     1      31.169 -23.625 -13.398  0.00  0.00    +0.080 S 
ATOM     11  O   UNL     1      31.151 -22.511 -12.450  0.00  0.00    -0.149 OA
ATOM     12  O   UNL     1      31.085 -25.009 -12.927  0.00  0.00    -0.149 OA
BRANCH  10  13
ATOM     13  C   UNL     1      29.827 -23.410 -14.538  0.00  0.00    +0.126 C 
ATOM     14  C   UNL     1      29.229 -22.168 -14.640  0.00  0.00    +0.023 C 
ATOM     15  C   UNL     1      29.411 -24.488 -15.294  0.00  0.00    +0.023 C 
ATOM     16  C   UNL     1      28.173 -21.999 -15.537  0.00  0.00    +0.038 C 
ATOM     17  C   UNL     1      28.356 -24.317 -16.191  0.00  0.00    +0.038 C 
ATOM     18  C   UNL     1      27.737 -23.073 -16.312  0.00  0.00    +0.139 C 
BRANCH  18  19
ATOM     19  O   UNL     1      26.708 -22.908 -17.187  0.00  0.00    -0.471 OA
ATOM     20  C   UNL     1      26.126 -21.607 -17.265  0.00  0.00    +0.252 C 
ENDBRANCH  18  19
ENDBRANCH  10  13
ENDBRANCH   1  10
BRANCH   8  21
ATOM     21  O   UNL     1      33.813 -21.576 -19.267  0.00  0.00    -0.471 OA
ATOM     22  C   UNL     1      35.175 -21.186 -19.435  0.00  0.00    +0.252 C 
ENDBRANCH   8  21
BRANCH   2  23
ATOM     23  C   UNL     1      36.199 -23.728 -14.672  0.00  0.00    +0.039 C 
BRANCH  23  24
ATOM     24  C   UNL     1      36.604 -24.987 -13.877  0.00  0.00    +0.114 C 
BRANCH  24  26
ATOM     25  O   UNL     1      35.990 -26.581 -15.618  0.00  0.00    -0.250 OA
ATOM     26  C   UNL     1      36.767 -26.216 -14.746  0.00  0.00    +0.314 C 
BRANCH  26  27
ATOM     27  O   UNL     1      37.889 -26.911 -14.421  0.00  0.00    -0.480 OA
ATOM     28  H   UNL     1      38.364 -27.371 -15.086  0.00  0.00    +0.295 HD
ENDBRANCH  26  27
ENDBRANCH  24  26
ENDBRANCH  23  24
ENDBRANCH   2  23
TORSDOF 8
ENDMDL
MODEL 5
REMARK VINA RESULT:      -9.5      6.259     10.004
REMARK  Name = 11395145
REMARK  8 active torsions:
REMARK  status: ('A' for Active; 'I' for Inactive)
REMARK    1  A    between atoms: N_1  and  S_10
REMARK    2  A    between atoms: C_2  and  C_23
REMARK    3  A    between atoms: C_8  and  O_21
REMARK    4  A    between atoms: S_10  and  C_13
REMARK    5  A    between atoms: C_18  and  O_19
REMARK    6  A    between atoms: C_23  and  C_24
REMARK    7  A    between atoms: C_24  and  C_26
REMARK    8  A    between atoms: C_26  and  O_27
REMARK                            x       y       z     vdW  Elec       q    Type
REMARK                         _______ _______ _______ _____ _____    ______ ____
ROOT
ATOM      1  N   UNL     1      33.114 -23.237 -14.865  0.00  0.00    -0.168 N 
ATOM      2  C   UNL     1      32.996 -22.630 -16.996  0.00  0.00    -0.004 C 
ATOM      3  C   UNL     1      31.693 -22.527 -16.433  0.00  0.00    +0.016 C 
ATOM      4  C   UNL     1      31.795 -22.914 -15.094  0.00  0.00    +0.074 C 
ATOM      5  C   UNL     1      33.847 -23.069 -16.009  0.00  0.00    +0.085 C 
ATOM      6  C   UNL     1      30.434 -22.140 -16.933  0.00  0.00    +0.038 C 
ATOM      7  C   UNL     1      30.697 -22.934 -14.228  0.00  0.00    +0.020 C 
ATOM      8  C   UNL     1      29.326 -22.156 -16.078  0.00  0.00    +0.139 C 
ATOM      9  C   UNL     1      29.457 -22.548 -14.747  0.00  0.00    +0.038 C 
ENDROOT
BRANCH   1  10
ATOM     10  S   UNL     1      33.753 -23.760 -13.418  0.00  0.00    +0.080 S 
ATOM     11  O   UNL     1      32.832 -24.788 -12.934  0.00  0.00    -0.149 OA
ATOM     12  O   UNL     1      34.062 -22.587 -12.597  0.00  0.00    -0.149 OA
BRANCH  10  13
ATOM     13  C   UNL     1      35.308 -24.531 -13.783  0.00  0.00    +0.126 C 
ATOM     14  C   UNL     1      35.329 -25.635 -14.612  0.00  0.00    +0.023 C 
ATOM     15  C   UNL     1      36.460 -24.009 -13.229  0.00  0.00    +0.023 C 
ATOM     16  C   UNL     1      36.553 -26.242 -14.899  0.00  0.00    +0.038 C 
ATOM     17  C   UNL     1      37.683 -24.615 -13.516  0.00  0.00    +0.038 C 
ATOM     18  C   UNL     1      37.730 -25.732 -14.351  0.00  0.00    +0.139 C 
BRANCH  18  19
ATOM     19  O   UNL     1      38.923 -26.323 -14.632  0.00  0.00    -0.471 OA
ATOM     20  C   UNL     1      40.101 -25.565 -14.362  0.00  0.00    +0.252 C 
ENDBRANCH  18  19
ENDBRANCH  10  13
ENDBRANCH   1  10
BRANCH   8  21
ATOM     21  O   UNL     1      28.105 -21.785 -16.555  0.00  0.00    -0.471 OA
ATOM     22  C   UNL     1      26.973 -22.088 -15.742  0.00  0.00    +0.252 C 
ENDBRANCH   8  21
BRANCH   2  23
ATOM     23  C   UNL     1      33.376 -22.323 -18.391  0.00  0.00    +0.039 C 
BRANCH  23  24
ATOM     24  C   UNL     1      34.742 -21.624 -18.542  0.00  0.00    +0.114 C 
BRANCH  24  26
ATOM     25  O   UNL     1      35.735 -19.928 -19.985  0.00  0.00    -0.250 OA
ATOM     26  C   UNL     1      34.753 -20.556 -19.615  0.00  0.00    +0.314 C 
BRANCH  26  27
ATOM     27  O   UNL     1      33.508 -20.343 -20.118  0.00  0.00    -0.480 OA
ATOM     28  H   UNL     1      33.354 -19.620 -20.695  0.00  0.00    +0.295 HD
ENDBRANCH  26  27
ENDBRANCH  24  26
ENDBRANCH  23  24
ENDBRANCH   2  23
TORSDOF 8
ENDMDL
MODEL 6
REMARK VINA RESULT:      -9.1      2.256      7.995
REMARK  Name = 11395145
REMARK  8 active torsions:
REMARK  status: ('A' for Active; 'I' for Inactive)
REMARK    1  A    between atoms: N_1  and  S_10
REMARK    2  A    between atoms: C_2  and  C_23
REMARK    3  A    between atoms: C_8  and  O_21
REMARK    4  A    between atoms: S_10  and  C_13
REMARK    5  A    between atoms: C_18  and  O_19
REMARK    6  A    between atoms: C_23  and  C_24
REMARK    7  A    between atoms: C_24  and  C_26
REMARK    8  A    between atoms: C_26  and  O_27
REMARK                            x       y       z     vdW  Elec       q    Type
REMARK                         _______ _______ _______ _____ _____    ______ ____
ROOT
ATOM      1  N   UNL     1      35.317 -19.516 -20.832  0.00  0.00    -0.168 N 
ATOM      2  C   UNL     1      35.841 -20.602 -18.969  0.00  0.00    -0.004 C 
ATOM      3  C   UNL     1      34.429 -20.661 -19.134  0.00  0.00    +0.016 C 
ATOM      4  C   UNL     1      34.126 -19.972 -20.311  0.00  0.00    +0.074 C 
ATOM      5  C   UNL     1      36.359 -19.892 -20.028  0.00  0.00    +0.085 C 
ATOM      6  C   UNL     1      33.376 -21.236 -18.395  0.00  0.00    +0.038 C 
ATOM      7  C   UNL     1      32.818 -19.828 -20.787  0.00  0.00    +0.020 C 
ATOM      8  C   UNL     1      32.063 -21.099 -18.859  0.00  0.00    +0.139 C 
ATOM      9  C   UNL     1      31.790 -20.405 -20.036  0.00  0.00    +0.038 C 
ENDROOT
BRANCH   1  10
ATOM     10  S   UNL     1      35.494 -18.634 -22.233  0.00  0.00    +0.080 S 
ATOM     11  O   UNL     1      34.648 -19.299 -23.223  0.00  0.00    -0.149 OA
ATOM     12  O   UNL     1      36.925 -18.442 -22.482  0.00  0.00    -0.149 OA
BRANCH  10  13
ATOM     13  C   UNL     1      34.827 -17.020 -21.922  0.00  0.00    +0.126 C 
ATOM     14  C   UNL     1      34.549 -16.194 -22.994  0.00  0.00    +0.023 C 
ATOM     15  C   UNL     1      34.603 -16.628 -20.617  0.00  0.00    +0.023 C 
ATOM     16  C   UNL     1      34.024 -14.924 -22.749  0.00  0.00    +0.038 C 
ATOM     17  C   UNL     1      34.077 -15.359 -20.374  0.00  0.00    +0.038 C 
ATOM     18  C   UNL     1      33.788 -14.507 -21.440  0.00  0.00    +0.139 C 
BRANCH  18  19
ATOM     19  O   UNL     1      33.275 -13.269 -21.202  0.00  0.00    -0.471 OA
ATOM     20  C   UNL     1      32.811 -12.531 -22.331  0.00  0.00    +0.252 C 
ENDBRANCH  18  19
ENDBRANCH  10  13
ENDBRANCH   1  10
BRANCH   8  21
ATOM     21  O   UNL     1      31.040 -21.651 -18.149  0.00  0.00    -0.471 OA
ATOM     22  C   UNL     1      31.378 -22.310 -16.930  0.00  0.00    +0.252 C 
ENDBRANCH   8  21
BRANCH   2  23
ATOM     23  C   UNL     1      36.621 -21.194 -17.862  0.00  0.00    +0.039 C 
BRANCH  23  24
ATOM     24  C   UNL     1      35.767 -21.843 -16.754  0.00  0.00    +0.114 C 
BRANCH  24  26
ATOM     25  O   UNL     1      37.528 -22.056 -15.080  0.00  0.00    -0.250 OA
ATOM     26  C   UNL     1      36.591 -22.546 -15.696  0.00  0.00    +0.314 C 
BRANCH  26  27
ATOM     27  O   UNL     1      36.185 -23.831 -15.522  0.00  0.00    -0.480 OA
ATOM     28  H   UNL     1      36.428 -24.297 -14.745  0.00  0.00    +0.295 HD
ENDBRANCH  26  27
ENDBRANCH  24  26
ENDBRANCH  23  24
ENDBRANCH   2  23
TORSDOF 8
ENDMDL
MODEL 7
REMARK VINA RESULT:      -8.9      4.941      8.798
REMARK  Name = 11395145
REMARK  8 active torsions:
REMARK  status: ('A' for Active; 'I' for Inactive)
REMARK    1  A    between atoms: N_1  and  S_10
REMARK    2  A    between atoms: C_2  and  C_23
REMARK    3  A    between atoms: C_8  and  O_21
REMARK    4  A    between atoms: S_10  and  C_13
REMARK    5  A    between atoms: C_18  and  O_19
REMARK    6  A    between atoms: C_23  and  C_24
REMARK    7  A    between atoms: C_24  and  C_26
REMARK    8  A    between atoms: C_26  and  O_27
REMARK                            x       y       z     vdW  Elec       q    Type
REMARK                         _______ _______ _______ _____ _____    ______ ____
ROOT
ATOM      1  N   UNL     1      35.401 -22.218 -16.455  0.00  0.00    -0.168 N 
ATOM      2  C   UNL     1      33.246 -22.484 -16.912  0.00  0.00    -0.004 C 
ATOM      3  C   UNL     1      33.840 -21.760 -17.983  0.00  0.00    +0.016 C 
ATOM      4  C   UNL     1      35.194 -21.607 -17.671  0.00  0.00    +0.074 C 
ATOM      5  C   UNL     1      34.230 -22.752 -15.989  0.00  0.00    +0.085 C 
ATOM      6  C   UNL     1      33.357 -21.219 -19.191  0.00  0.00    +0.038 C 
ATOM      7  C   UNL     1      36.090 -20.936 -18.510  0.00  0.00    +0.020 C 
ATOM      8  C   UNL     1      34.243 -20.545 -20.040  0.00  0.00    +0.139 C 
ATOM      9  C   UNL     1      35.588 -20.407 -19.702  0.00  0.00    +0.038 C 
ENDROOT
BRANCH   1  10
ATOM     10  S   UNL     1      36.854 -22.312 -15.646  0.00  0.00    +0.080 S 
ATOM     11  O   UNL     1      37.232 -20.927 -15.363  0.00  0.00    -0.149 OA
ATOM     12  O   UNL     1      37.749 -23.192 -16.401  0.00  0.00    -0.149 OA
BRANCH  10  13
ATOM     13  C   UNL     1      36.541 -23.131 -14.104  0.00  0.00    +0.126 C 
ATOM     14  C   UNL     1      36.178 -22.375 -13.006  0.00  0.00    +0.023 C 
ATOM     15  C   UNL     1      36.669 -24.505 -14.038  0.00  0.00    +0.023 C 
ATOM     16  C   UNL     1      35.932 -23.020 -11.794  0.00  0.00    +0.038 C 
ATOM     17  C   UNL     1      36.422 -25.148 -12.825  0.00  0.00    +0.038 C 
ATOM     18  C   UNL     1      36.054 -24.406 -11.703  0.00  0.00    +0.139 C 
BRANCH  18  19
ATOM     19  O   UNL     1      35.813 -25.034 -10.520  0.00  0.00    -0.471 OA
ATOM     20  C   UNL     1      35.171 -24.272  -9.499  0.00  0.00    +0.252 C 
ENDBRANCH  18  19
ENDBRANCH  10  13
ENDBRANCH   1  10
BRANCH   8  21
ATOM     21  O   UNL     1      33.782 -20.019 -21.208  0.00  0.00    -0.471 OA
ATOM     22  C   UNL     1      34.521 -18.932 -21.764  0.00  0.00    +0.252 C 
ENDBRANCH   8  21
BRANCH   2  23
ATOM     23  C   UNL     1      31.827 -22.883 -16.802  0.00  0.00    +0.039 C 
BRANCH  23  24
ATOM     24  C   UNL     1      31.343 -23.132 -15.358  0.00  0.00    +0.114 C 
BRANCH  24  26
ATOM     25  O   UNL     1      29.186 -24.218 -15.699  0.00  0.00    -0.250 OA
ATOM     26  C   UNL     1      29.841 -23.287 -15.249  0.00  0.00    +0.314 C 
BRANCH  26  27
ATOM     27  O   UNL     1      29.278 -22.233 -14.603  0.00  0.00    -0.480 OA
ATOM     28  H   UNL     1      28.427 -21.930 -14.854  0.00  0.00    +0.295 HD
ENDBRANCH  26  27
ENDBRANCH  24  26
ENDBRANCH  23  24
ENDBRANCH   2  23
TORSDOF 8
ENDMDL
MODEL 8
REMARK VINA RESULT:      -8.5      4.168      9.635
REMARK  Name = 11395145
REMARK  8 active torsions:
REMARK  status: ('A' for Active; 'I' for Inactive)
REMARK    1  A    between atoms: N_1  and  S_10
REMARK    2  A    between atoms: C_2  and  C_23
REMARK    3  A    between atoms: C_8  and  O_21
REMARK    4  A    between atoms: S_10  and  C_13
REMARK    5  A    between atoms: C_18  and  O_19
REMARK    6  A    between atoms: C_23  and  C_24
REMARK    7  A    between atoms: C_24  and  C_26
REMARK    8  A    between atoms: C_26  and  O_27
REMARK                            x       y       z     vdW  Elec       q    Type
REMARK                         _______ _______ _______ _____ _____    ______ ____
ROOT
ATOM      1  N   UNL     1      31.890 -11.344 -21.877  0.00  0.00    -0.168 N 
ATOM      2  C   UNL     1      32.989 -12.312 -23.545  0.00  0.00    -0.004 C 
ATOM      3  C   UNL     1      33.149 -13.117 -22.382  0.00  0.00    +0.016 C 
ATOM      4  C   UNL     1      32.449 -12.487 -21.350  0.00  0.00    +0.074 C 
ATOM      5  C   UNL     1      32.210 -11.231 -23.203  0.00  0.00    +0.085 C 
ATOM      6  C   UNL     1      33.822 -14.323 -22.107  0.00  0.00    +0.038 C 
ATOM      7  C   UNL     1      32.391 -13.005 -20.052  0.00  0.00    +0.020 C 
ATOM      8  C   UNL     1      33.773 -14.853 -20.813  0.00  0.00    +0.139 C 
ATOM      9  C   UNL     1      33.068 -14.202 -19.802  0.00  0.00    +0.038 C 
ENDROOT
BRANCH   1  10
ATOM     10  S   UNL     1      30.956 -10.243 -21.047  0.00  0.00    +0.080 S 
ATOM     11  O   UNL     1      31.423 -10.301 -19.663  0.00  0.00    -0.149 OA
ATOM     12  O   UNL     1      29.549 -10.491 -21.372  0.00  0.00    -0.149 OA
BRANCH  10  13
ATOM     13  C   UNL     1      31.337  -8.638 -21.700  0.00  0.00    +0.126 C 
ATOM     14  C   UNL     1      32.213  -7.826 -21.006  0.00  0.00    +0.023 C 
ATOM     15  C   UNL     1      30.750  -8.240 -22.884  0.00  0.00    +0.023 C 
ATOM     16  C   UNL     1      32.513  -6.563 -21.519  0.00  0.00    +0.038 C 
ATOM     17  C   UNL     1      31.051  -6.978 -23.397  0.00  0.00    +0.038 C 
ATOM     18  C   UNL     1      31.932  -6.139 -22.714  0.00  0.00    +0.139 C 
BRANCH  18  19
ATOM     19  O   UNL     1      32.226  -4.908 -23.214  0.00  0.00    -0.471 OA
ATOM     20  C   UNL     1      33.426  -4.787 -23.976  0.00  0.00    +0.252 C 
ENDBRANCH  18  19
ENDBRANCH  10  13
ENDBRANCH   1  10
BRANCH   8  21
ATOM     21  O   UNL     1      34.423 -16.018 -20.539  0.00  0.00    -0.471 OA
ATOM     22  C   UNL     1      34.858 -16.794 -21.654  0.00  0.00    +0.252 C 
ENDBRANCH   8  21
BRANCH   2  23
ATOM     23  C   UNL     1      33.553 -12.582 -24.884  0.00  0.00    +0.039 C 
BRANCH  23  24
ATOM     24  C   UNL     1      32.873 -13.740 -25.643  0.00  0.00    +0.114 C 
BRANCH  24  26
ATOM     25  O   UNL     1      34.612 -15.395 -25.215  0.00  0.00    -0.250 OA
ATOM     26  C   UNL     1      33.426 -15.101 -25.278  0.00  0.00    +0.314 C 
BRANCH  26  27
ATOM     27  O   UNL     1      32.431 -15.999 -25.050  0.00  0.00    -0.480 OA
ATOM     28  H   UNL     1      32.614 -16.793 -24.586  0.00  0.00    +0.295 HD
ENDBRANCH  26  27
ENDBRANCH  24  26
ENDBRANCH  23  24
ENDBRANCH   2  23
TORSDOF 8
ENDMDL
MODEL 9
REMARK VINA RESULT:      -8.4      4.993      9.129
REMARK  Name = 11395145
REMARK  8 active torsions:
REMARK  status: ('A' for Active; 'I' for Inactive)
REMARK    1  A    between atoms: N_1  and  S_10
REMARK    2  A    between atoms: C_2  and  C_23
REMARK    3  A    between atoms: C_8  and  O_21
REMARK    4  A    between atoms: S_10  and  C_13
REMARK    5  A    between atoms: C_18  and  O_19
REMARK    6  A    between atoms: C_23  and  C_24
REMARK    7  A    between atoms: C_24  and  C_26
REMARK    8  A    between atoms: C_26  and  O_27
REMARK                            x       y       z     vdW  Elec       q    Type
REMARK                         _______ _______ _______ _____ _____    ______ ____
ROOT
ATOM      1  N   UNL     1      35.599 -22.114 -16.603  0.00  0.00    -0.168 N 
ATOM      2  C   UNL     1      34.256 -21.896 -18.356  0.00  0.00    -0.004 C 
ATOM      3  C   UNL     1      33.477 -22.349 -17.254  0.00  0.00    +0.016 C 
ATOM      4  C   UNL     1      34.344 -22.477 -16.166  0.00  0.00    +0.074 C 
ATOM      5  C   UNL     1      35.555 -21.761 -17.925  0.00  0.00    +0.085 C 
ATOM      6  C   UNL     1      32.115 -22.662 -17.076  0.00  0.00    +0.038 C 
ATOM      7  C   UNL     1      33.916 -22.905 -14.905  0.00  0.00    +0.020 C 
ATOM      8  C   UNL     1      31.672 -23.092 -15.820  0.00  0.00    +0.139 C 
ATOM      9  C   UNL     1      32.560 -23.212 -14.753  0.00  0.00    +0.038 C 
ENDROOT
BRANCH   1  10
ATOM     10  S   UNL     1      36.986 -22.096 -15.680  0.00  0.00    +0.080 S 
ATOM     11  O   UNL     1      37.206 -20.693 -15.334  0.00  0.00    -0.149 OA
ATOM     12  O   UNL     1      38.018 -22.864 -16.380  0.00  0.00    -0.149 OA
BRANCH  10  13
ATOM     13  C   UNL     1      36.632 -22.990 -14.189  0.00  0.00    +0.126 C 
ATOM     14  C   UNL     1      36.363 -22.283 -13.033  0.00  0.00    +0.023 C 
ATOM     15  C   UNL     1      36.635 -24.371 -14.220  0.00  0.00    +0.023 C 
ATOM     16  C   UNL     1      36.085 -22.986 -11.861  0.00  0.00    +0.038 C 
ATOM     17  C   UNL     1      36.356 -25.073 -13.047  0.00  0.00    +0.038 C 
ATOM     18  C   UNL     1      36.081 -24.381 -11.867  0.00  0.00    +0.139 C 
BRANCH  18  19
ATOM     19  O   UNL     1      35.809 -25.066 -10.724  0.00  0.00    -0.471 OA
ATOM     20  C   UNL     1      35.179 -24.343  -9.668  0.00  0.00    +0.252 C 
ENDBRANCH  18  19
ENDBRANCH  10  13
ENDBRANCH   1  10
BRANCH   8  21
ATOM     21  O   UNL     1      30.357 -23.398 -15.641  0.00  0.00    -0.471 OA
ATOM     22  C   UNL     1      29.401 -22.456 -16.125  0.00  0.00    +0.252 C 
ENDBRANCH   8  21
BRANCH   2  23
ATOM     23  C   UNL     1      33.766 -21.619 -19.722  0.00  0.00    +0.039 C 
BRANCH  23  24
ATOM     24  C   UNL     1      33.356 -20.152 -19.968  0.00  0.00    +0.114 C 
BRANCH  24  26
ATOM     25  O   UNL     1      34.025 -19.183 -22.104  0.00  0.00    -0.250 OA
ATOM     26  C   UNL     1      34.273 -19.428 -20.931  0.00  0.00    +0.314 C 
BRANCH  26  27
ATOM     27  O   UNL     1      35.452 -19.096 -20.341  0.00  0.00    -0.480 OA
ATOM     28  H   UNL     1      36.023 -19.770 -20.024  0.00  0.00    +0.295 HD
ENDBRANCH  26  27
ENDBRANCH  24  26
ENDBRANCH  23  24
ENDBRANCH   2  23
TORSDOF 8
ENDMDL
