MODEL 1
REMARK VINA RESULT:     -12.0      0.000      0.000
REMARK  Name = 24892821
REMARK  3 active torsions:
REMARK  status: ('A' for Active; 'I' for Inactive)
REMARK    1  A    between atoms: C_1  and  C_3
REMARK    2  A    between atoms: C_1  and  C_14
REMARK    3  A    between atoms: C_19  and  O_20
REMARK                            x       y       z     vdW  Elec       q    Type
REMARK                         _______ _______ _______ _____ _____    ______ ____
ROOT
ATOM      1  C   UNL     1      34.553 -17.177 -23.088  0.00  0.00    +0.028 C 
ENDROOT
BRANCH   1   3
ATOM      2  N   UNL     1      36.427 -19.130 -20.447  0.00  0.00    -0.244 NA
ATOM      3  C   UNL     1      34.841 -18.157 -21.985  0.00  0.00    -0.003 C 
ATOM      4  C   UNL     1      33.848 -18.982 -21.479  0.00  0.00    -0.001 C 
ATOM      5  C   UNL     1      36.104 -18.270 -21.438  0.00  0.00    +0.095 C 
ATOM      6  C   UNL     1      34.140 -19.887 -20.450  0.00  0.00    +0.017 C 
ATOM      7  C   UNL     1      35.461 -19.930 -19.957  0.00  0.00    +0.081 C 
ATOM      8  C   UNL     1      33.156 -20.737 -19.916  0.00  0.00    +0.001 C 
ATOM      9  C   UNL     1      35.751 -20.830 -18.935  0.00  0.00    +0.019 C 
ATOM     10  C   UNL     1      33.473 -21.628 -18.894  0.00  0.00    +0.000 C 
ATOM     11  C   UNL     1      34.772 -21.675 -18.404  0.00  0.00    +0.002 C 
ENDBRANCH   1   3
BRANCH   1  14
ATOM     12  O   UNL     1      31.578 -11.841 -22.289  0.00  0.00    -0.226 OA
ATOM     13  N   UNL     1      33.256 -13.333 -21.679  0.00  0.00    -0.246 N 
ATOM     14  C   UNL     1      34.601 -15.734 -22.588  0.00  0.00    +0.008 C 
ATOM     15  C   UNL     1      33.871 -14.794 -23.559  0.00  0.00    +0.022 C 
ATOM     16  C   UNL     1      33.997 -15.625 -21.179  0.00  0.00    +0.022 C 
ATOM     17  C   UNL     1      33.834 -13.364 -23.024  0.00  0.00    +0.097 C 
ATOM     18  C   UNL     1      33.965 -14.172 -20.705  0.00  0.00    +0.097 C 
ATOM     19  C   UNL     1      32.131 -12.535 -21.437  0.00  0.00    +0.402 C 
BRANCH  19  20
ATOM     20  O   UNL     1      31.635 -12.557 -20.167  0.00  0.00    -0.466 OA
ATOM     21  H   UNL     1      31.461 -13.376 -19.746  0.00  0.00    +0.297 HD
ENDBRANCH  19  20
ENDBRANCH   1  14
TORSDOF 3
ENDMDL
MODEL 2
REMARK VINA RESULT:     -11.8      3.669      7.289
REMARK  Name = 24892821
REMARK  3 active torsions:
REMARK  status: ('A' for Active; 'I' for Inactive)
REMARK    1  A    between atoms: C_1  and  C_3
REMARK    2  A    between atoms: C_1  and  C_14
REMARK    3  A    between atoms: C_19  and  O_20
REMARK                            x       y       z     vdW  Elec       q    Type
REMARK                         _______ _______ _______ _____ _____    ______ ____
ROOT
ATOM      1  C   UNL     1      35.630 -18.442 -20.769  0.00  0.00    +0.028 C 
ENDROOT
BRANCH   1   3
ATOM      2  N   UNL     1      34.173 -17.074 -23.980  0.00  0.00    -0.244 NA
ATOM      3  C   UNL     1      35.013 -17.489 -21.755  0.00  0.00    -0.003 C 
ATOM      4  C   UNL     1      34.710 -16.182 -21.401  0.00  0.00    -0.001 C 
ATOM      5  C   UNL     1      34.727 -17.882 -23.048  0.00  0.00    +0.095 C 
ATOM      6  C   UNL     1      34.135 -15.313 -22.337  0.00  0.00    +0.017 C 
ATOM      7  C   UNL     1      33.880 -15.806 -23.634  0.00  0.00    +0.081 C 
ATOM      8  C   UNL     1      33.817 -13.984 -22.009  0.00  0.00    +0.001 C 
ATOM      9  C   UNL     1      33.309 -14.942 -24.563  0.00  0.00    +0.019 C 
ATOM     10  C   UNL     1      33.246 -13.141 -22.958  0.00  0.00    +0.000 C 
ATOM     11  C   UNL     1      32.993 -13.621 -24.237  0.00  0.00    +0.002 C 
ENDBRANCH   1   3
BRANCH   1  14
ATOM     12  O   UNL     1      33.371 -22.933 -17.207  0.00  0.00    -0.226 OA
ATOM     13  N   UNL     1      33.295 -21.666 -19.158  0.00  0.00    -0.246 N 
ATOM     14  C   UNL     1      34.846 -19.750 -20.682  0.00  0.00    +0.008 C 
ATOM     15  C   UNL     1      35.502 -20.715 -19.683  0.00  0.00    +0.022 C 
ATOM     16  C   UNL     1      33.383 -19.485 -20.292  0.00  0.00    +0.022 C 
ATOM     17  C   UNL     1      34.677 -21.990 -19.521  0.00  0.00    +0.097 C 
ATOM     18  C   UNL     1      32.613 -20.795 -20.122  0.00  0.00    +0.097 C 
ATOM     19  C   UNL     1      32.757 -22.197 -17.979  0.00  0.00    +0.402 C 
BRANCH  19  20
ATOM     20  O   UNL     1      31.470 -21.850 -17.692  0.00  0.00    -0.466 OA
ATOM     21  H   UNL     1      30.768 -22.178 -18.218  0.00  0.00    +0.297 HD
ENDBRANCH  19  20
ENDBRANCH   1  14
TORSDOF 3
ENDMDL
MODEL 3
REMARK VINA RESULT:     -11.5      1.339      2.018
REMARK  Name = 24892821
REMARK  3 active torsions:
REMARK  status: ('A' for Active; 'I' for Inactive)
REMARK    1  A    between atoms: C_1  and  C_3
REMARK    2  A    between atoms: C_1  and  C_14
REMARK    3  A    between atoms: C_19  and  O_20
REMARK                            x       y       z     vdW  Elec       q    Type
REMARK                         _______ _______ _______ _____ _____    ______ ____
ROOT
ATOM      1  C   UNL     1      35.596 -17.155 -22.523  0.00  0.00    +0.028 C 
ENDROOT
BRANCH   1   3
ATOM      2  N   UNL     1      36.258 -19.819 -19.922  0.00  0.00    -0.244 NA
ATOM      3  C   UNL     1      35.361 -18.265 -21.537  0.00  0.00    -0.003 C 
ATOM      4  C   UNL     1      34.088 -18.770 -21.311  0.00  0.00    -0.001 C 
ATOM      5  C   UNL     1      36.403 -18.820 -20.822  0.00  0.00    +0.095 C 
ATOM      6  C   UNL     1      33.894 -19.804 -20.387  0.00  0.00    +0.017 C 
ATOM      7  C   UNL     1      35.022 -20.307 -19.705  0.00  0.00    +0.081 C 
ATOM      8  C   UNL     1      32.618 -20.337 -20.136  0.00  0.00    +0.001 C 
ATOM      9  C   UNL     1      34.828 -21.335 -18.787  0.00  0.00    +0.019 C 
ATOM     10  C   UNL     1      32.453 -21.365 -19.212  0.00  0.00    +0.000 C 
ATOM     11  C   UNL     1      33.559 -21.865 -18.537  0.00  0.00    +0.002 C 
ENDBRANCH   1   3
BRANCH   1  14
ATOM     12  O   UNL     1      33.079 -11.569 -23.168  0.00  0.00    -0.226 OA
ATOM     13  N   UNL     1      33.046 -13.860 -23.566  0.00  0.00    -0.246 N 
ATOM     14  C   UNL     1      34.333 -16.326 -22.751  0.00  0.00    +0.008 C 
ATOM     15  C   UNL     1      34.331 -15.076 -21.857  0.00  0.00    +0.022 C 
ATOM     16  C   UNL     1      34.200 -15.929 -24.230  0.00  0.00    +0.022 C 
ATOM     17  C   UNL     1      33.117 -14.194 -22.142  0.00  0.00    +0.097 C 
ATOM     18  C   UNL     1      32.983 -15.031 -24.451  0.00  0.00    +0.097 C 
ATOM     19  C   UNL     1      33.033 -12.515 -23.953  0.00  0.00    +0.402 C 
BRANCH  19  20
ATOM     20  O   UNL     1      32.976 -12.270 -25.293  0.00  0.00    -0.466 OA
ATOM     21  H   UNL     1      32.581 -12.896 -25.867  0.00  0.00    +0.297 HD
ENDBRANCH  19  20
ENDBRANCH   1  14
TORSDOF 3
ENDMDL
MODEL 4
REMARK VINA RESULT:     -11.1      6.712     10.371
REMARK  Name = 24892821
REMARK  3 active torsions:
REMARK  status: ('A' for Active; 'I' for Inactive)
REMARK    1  A    between atoms: C_1  and  C_3
REMARK    2  A    between atoms: C_1  and  C_14
REMARK    3  A    between atoms: C_19  and  O_20
REMARK                            x       y       z     vdW  Elec       q    Type
REMARK                         _______ _______ _______ _____ _____    ______ ____
ROOT
ATOM      1  C   UNL     1      33.474 -23.594 -15.644  0.00  0.00    +0.028 C 
ENDROOT
BRANCH   1   3
ATOM      2  N   UNL     1      31.895 -21.588 -18.435  0.00  0.00    -0.244 NA
ATOM      3  C   UNL     1      33.332 -22.709 -16.851  0.00  0.00    -0.003 C 
ATOM      4  C   UNL     1      34.445 -22.194 -17.501  0.00  0.00    -0.001 C 
ATOM      5  C   UNL     1      32.090 -22.378 -17.355  0.00  0.00    +0.095 C 
ATOM      6  C   UNL     1      34.287 -21.371 -18.624  0.00  0.00    +0.017 C 
ATOM      7  C   UNL     1      32.977 -21.090 -19.064  0.00  0.00    +0.081 C 
ATOM      8  C   UNL     1      35.394 -20.835 -19.304  0.00  0.00    +0.001 C 
ATOM      9  C   UNL     1      32.821 -20.273 -20.180  0.00  0.00    +0.019 C 
ATOM     10  C   UNL     1      35.209 -20.019 -20.417  0.00  0.00    +0.000 C 
ATOM     11  C   UNL     1      33.921 -19.739 -20.856  0.00  0.00    +0.002 C 
ENDBRANCH   1   3
BRANCH   1  14
ATOM     12  O   UNL     1      37.282 -24.068 -10.824  0.00  0.00    -0.226 OA
ATOM     13  N   UNL     1      36.855 -24.321 -13.097  0.00  0.00    -0.246 N 
ATOM     14  C   UNL     1      34.914 -23.625 -15.134  0.00  0.00    +0.008 C 
ATOM     15  C   UNL     1      35.050 -22.820 -13.832  0.00  0.00    +0.022 C 
ATOM     16  C   UNL     1      35.387 -25.072 -14.923  0.00  0.00    +0.022 C 
ATOM     17  C   UNL     1      36.465 -22.919 -13.265  0.00  0.00    +0.097 C 
ATOM     18  C   UNL     1      36.797 -25.109 -14.335  0.00  0.00    +0.097 C 
ATOM     19  C   UNL     1      37.242 -24.775 -11.831  0.00  0.00    +0.402 C 
BRANCH  19  20
ATOM     20  O   UNL     1      37.584 -26.091 -11.737  0.00  0.00    -0.466 OA
ATOM     21  H   UNL     1      36.921 -26.752 -11.782  0.00  0.00    +0.297 HD
ENDBRANCH  19  20
ENDBRANCH   1  14
TORSDOF 3
ENDMDL
MODEL 5
REMARK VINA RESULT:     -11.1      5.488      8.699
REMARK  Name = 24892821
REMARK  3 active torsions:
REMARK  status: ('A' for Active; 'I' for Inactive)
REMARK    1  A    between atoms: C_1  and  C_3
REMARK    2  A    between atoms: C_1  and  C_14
REMARK    3  A    between atoms: C_19  and  O_20
REMARK                            x       y       z     vdW  Elec       q    Type
REMARK                         _______ _______ _______ _____ _____    ______ ____
ROOT
ATOM      1  C   UNL     1      33.076 -22.671 -18.408  0.00  0.00    +0.028 C 
ENDROOT
BRANCH   1   3
ATOM      2  N   UNL     1      36.056 -20.463 -19.145  0.00  0.00    -0.244 NA
ATOM      3  C   UNL     1      33.936 -21.613 -19.040  0.00  0.00    -0.003 C 
ATOM      4  C   UNL     1      33.456 -20.814 -20.068  0.00  0.00    -0.001 C 
ATOM      5  C   UNL     1      35.233 -21.398 -18.618  0.00  0.00    +0.095 C 
ATOM      6  C   UNL     1      34.276 -19.834 -20.641  0.00  0.00    +0.017 C 
ATOM      7  C   UNL     1      35.587 -19.689 -20.142  0.00  0.00    +0.081 C 
ATOM      8  C   UNL     1      33.819 -19.010 -21.684  0.00  0.00    +0.001 C 
ATOM      9  C   UNL     1      36.402 -18.715 -20.712  0.00  0.00    +0.019 C 
ATOM     10  C   UNL     1      34.655 -18.043 -22.236  0.00  0.00    +0.000 C 
ATOM     11  C   UNL     1      35.948 -17.895 -21.749  0.00  0.00    +0.002 C 
ENDBRANCH   1   3
BRANCH   1  14
ATOM     12  O   UNL     1      30.143 -24.268 -13.231  0.00  0.00    -0.226 OA
ATOM     13  N   UNL     1      31.898 -23.188 -14.310  0.00  0.00    -0.246 N 
ATOM     14  C   UNL     1      32.775 -22.355 -16.944  0.00  0.00    +0.008 C 
ATOM     15  C   UNL     1      31.294 -22.609 -16.623  0.00  0.00    +0.022 C 
ATOM     16  C   UNL     1      33.676 -23.178 -16.010  0.00  0.00    +0.022 C 
ATOM     17  C   UNL     1      31.001 -22.382 -15.141  0.00  0.00    +0.097 C 
ATOM     18  C   UNL     1      33.324 -22.928 -14.544  0.00  0.00    +0.097 C 
ATOM     19  C   UNL     1      31.350 -24.094 -13.395  0.00  0.00    +0.402 C 
BRANCH  19  20
ATOM     20  O   UNL     1      32.236 -24.822 -12.658  0.00  0.00    -0.466 OA
ATOM     21  H   UNL     1      31.966 -25.211 -11.850  0.00  0.00    +0.297 HD
ENDBRANCH  19  20
ENDBRANCH   1  14
TORSDOF 3
ENDMDL
MODEL 6
REMARK VINA RESULT:     -11.0      2.756      4.490
REMARK  Name = 24892821
REMARK  3 active torsions:
REMARK  status: ('A' for Active; 'I' for Inactive)
REMARK    1  A    between atoms: C_1  and  C_3
REMARK    2  A    between atoms: C_1  and  C_14
REMARK    3  A    between atoms: C_19  and  O_20
REMARK                            x       y       z     vdW  Elec       q    Type
REMARK                         _______ _______ _______ _____ _____    ______ ____
ROOT
ATOM      1  C   UNL     1      33.784 -12.818 -23.452  0.00  0.00    +0.028 C 
ENDROOT
BRANCH   1   3
ATOM      2  N   UNL     1      33.394 -16.397 -24.610  0.00  0.00    -0.244 NA
ATOM      3  C   UNL     1      33.847 -14.320 -23.466  0.00  0.00    -0.003 C 
ATOM      4  C   UNL     1      34.391 -15.028 -22.403  0.00  0.00    -0.001 C 
ATOM      5  C   UNL     1      33.367 -15.047 -24.537  0.00  0.00    +0.095 C 
ATOM      6  C   UNL     1      34.439 -16.427 -22.440  0.00  0.00    +0.017 C 
ATOM      7  C   UNL     1      33.922 -17.081 -23.578  0.00  0.00    +0.081 C 
ATOM      8  C   UNL     1      34.983 -17.173 -21.380  0.00  0.00    +0.001 C 
ATOM      9  C   UNL     1      33.970 -18.472 -23.613  0.00  0.00    +0.019 C 
ATOM     10  C   UNL     1      35.019 -18.563 -21.441  0.00  0.00    +0.000 C 
ATOM     11  C   UNL     1      34.511 -19.213 -22.559  0.00  0.00    +0.002 C 
ENDBRANCH   1   3
BRANCH   1  14
ATOM     12  O   UNL     1      31.351  -9.931 -18.583  0.00  0.00    -0.226 OA
ATOM     13  N   UNL     1      31.244 -10.570 -20.817  0.00  0.00    -0.246 N 
ATOM     14  C   UNL     1      32.527 -12.313 -22.745  0.00  0.00    +0.008 C 
ATOM     15  C   UNL     1      32.608 -12.574 -21.233  0.00  0.00    +0.022 C 
ATOM     16  C   UNL     1      32.309 -10.817 -23.020  0.00  0.00    +0.022 C 
ATOM     17  C   UNL     1      31.398 -11.992 -20.505  0.00  0.00    +0.097 C 
ATOM     18  C   UNL     1      31.101 -10.285 -22.251  0.00  0.00    +0.097 C 
ATOM     19  C   UNL     1      31.236  -9.639 -19.772  0.00  0.00    +0.402 C 
BRANCH  19  20
ATOM     20  O   UNL     1      31.100  -8.329 -20.129  0.00  0.00    -0.466 OA
ATOM     21  H   UNL     1      30.278  -8.014 -20.449  0.00  0.00    +0.297 HD
ENDBRANCH  19  20
ENDBRANCH   1  14
TORSDOF 3
ENDMDL
MODEL 7
REMARK VINA RESULT:     -10.6      4.507      7.356
REMARK  Name = 24892821
REMARK  3 active torsions:
REMARK  status: ('A' for Active; 'I' for Inactive)
REMARK    1  A    between atoms: C_1  and  C_3
REMARK    2  A    between atoms: C_1  and  C_14
REMARK    3  A    between atoms: C_19  and  O_20
REMARK                            x       y       z     vdW  Elec       q    Type
REMARK                         _______ _______ _______ _____ _____    ______ ____
ROOT
ATOM      1  C   UNL     1      30.894 -10.458 -20.995  0.00  0.00    +0.028 C 
ENDROOT
BRANCH   1   3
ATOM      2  N   UNL     1      32.934 -12.580 -23.370  0.00  0.00    -0.244 NA
ATOM      3  C   UNL     1      31.758 -11.572 -21.519  0.00  0.00    -0.003 C 
ATOM      4  C   UNL     1      32.182 -12.603 -20.692  0.00  0.00    -0.001 C 
ATOM      5  C   UNL     1      32.159 -11.607 -22.839  0.00  0.00    +0.095 C 
ATOM      6  C   UNL     1      32.987 -13.629 -21.203  0.00  0.00    +0.017 C 
ATOM      7  C   UNL     1      33.344 -13.579 -22.566  0.00  0.00    +0.081 C 
ATOM      8  C   UNL     1      33.432 -14.687 -20.392  0.00  0.00    +0.001 C 
ATOM      9  C   UNL     1      34.143 -14.600 -23.073  0.00  0.00    +0.019 C 
ATOM     10  C   UNL     1      34.231 -15.695 -20.924  0.00  0.00    +0.000 C 
ATOM     11  C   UNL     1      34.586 -15.652 -22.266  0.00  0.00    +0.002 C 
ENDBRANCH   1   3
BRANCH   1  14
ATOM     12  O   UNL     1      29.722  -4.587 -22.451  0.00  0.00    -0.226 OA
ATOM     13  N   UNL     1      31.147  -6.212 -21.589  0.00  0.00    -0.246 N 
ATOM     14  C   UNL     1      31.449  -9.087 -21.377  0.00  0.00    +0.008 C 
ATOM     15  C   UNL     1      30.593  -8.438 -22.476  0.00  0.00    +0.022 C 
ATOM     16  C   UNL     1      31.530  -8.168 -20.148  0.00  0.00    +0.022 C 
ATOM     17  C   UNL     1      31.085  -7.029 -22.802  0.00  0.00    +0.097 C 
ATOM     18  C   UNL     1      32.006  -6.769 -20.536  0.00  0.00    +0.097 C 
ATOM     19  C   UNL     1      30.423  -5.015 -21.534  0.00  0.00    +0.402 C 
BRANCH  19  20
ATOM     20  O   UNL     1      30.513  -4.305 -20.373  0.00  0.00    -0.466 OA
ATOM     21  H   UNL     1      31.076  -4.601 -19.686  0.00  0.00    +0.297 HD
ENDBRANCH  19  20
ENDBRANCH   1  14
TORSDOF 3
ENDMDL
MODEL 8
REMARK VINA RESULT:     -10.5      7.506     10.912
REMARK  Name = 24892821
REMARK  3 active torsions:
REMARK  status: ('A' for Active; 'I' for Inactive)
REMARK    1  A    between atoms: C_1  and  C_3
REMARK    2  A    between atoms: C_1  and  C_14
REMARK    3  A    between atoms: C_19  and  O_20
REMARK                            x       y       z     vdW  Elec       q    Type
REMARK                         _______ _______ _______ _____ _____    ______ ____
ROOT
ATOM      1  C   UNL     1      34.455 -23.513 -13.448  0.00  0.00    +0.028 C 
ENDROOT
BRANCH   1   3
ATOM      2  N   UNL     1      32.939 -22.947 -16.866  0.00  0.00    -0.244 NA
ATOM      3  C   UNL     1      34.301 -23.073 -14.877  0.00  0.00    -0.003 C 
ATOM      4  C   UNL     1      35.323 -22.406 -15.538  0.00  0.00    -0.001 C 
ATOM      5  C   UNL     1      33.139 -23.317 -15.581  0.00  0.00    +0.095 C 
ATOM      6  C   UNL     1      35.157 -22.005 -16.870  0.00  0.00    +0.017 C 
ATOM      7  C   UNL     1      33.933 -22.300 -17.506  0.00  0.00    +0.081 C 
ATOM      8  C   UNL     1      36.172 -21.328 -17.567  0.00  0.00    +0.001 C 
ATOM      9  C   UNL     1      33.768 -21.902 -18.829  0.00  0.00    +0.019 C 
ATOM     10  C   UNL     1      35.981 -20.941 -18.890  0.00  0.00    +0.000 C 
ATOM     11  C   UNL     1      34.778 -21.229 -19.522  0.00  0.00    +0.002 C 
ENDBRANCH   1   3
BRANCH   1  14
ATOM     12  O   UNL     1      39.819 -25.510 -15.727  0.00  0.00    -0.226 OA
ATOM     13  N   UNL     1      38.440 -25.045 -13.912  0.00  0.00    -0.246 N 
ATOM     14  C   UNL     1      35.695 -24.383 -13.256  0.00  0.00    +0.008 C 
ATOM     15  C   UNL     1      36.069 -25.100 -14.563  0.00  0.00    +0.022 C 
ATOM     16  C   UNL     1      36.878 -23.543 -12.747  0.00  0.00    +0.022 C 
ATOM     17  C   UNL     1      37.360 -25.901 -14.406  0.00  0.00    +0.097 C 
ATOM     18  C   UNL     1      38.145 -24.390 -12.631  0.00  0.00    +0.097 C 
ATOM     19  C   UNL     1      39.618 -24.931 -14.660  0.00  0.00    +0.402 C 
BRANCH  19  20
ATOM     20  O   UNL     1      40.581 -24.111 -14.152  0.00  0.00    -0.466 OA
ATOM     21  H   UNL     1      40.887 -23.381 -14.653  0.00  0.00    +0.297 HD
ENDBRANCH  19  20
ENDBRANCH   1  14
TORSDOF 3
ENDMDL
MODEL 9
REMARK VINA RESULT:     -10.5      3.673      7.404
REMARK  Name = 24892821
REMARK  3 active torsions:
REMARK  status: ('A' for Active; 'I' for Inactive)
REMARK    1  A    between atoms: C_1  and  C_3
REMARK    2  A    between atoms: C_1  and  C_14
REMARK    3  A    between atoms: C_19  and  O_20
REMARK                            x       y       z     vdW  Elec       q    Type
REMARK                         _______ _______ _______ _____ _____    ______ ____
ROOT
ATOM      1  C   UNL     1      34.840 -18.052 -23.372  0.00  0.00    +0.028 C 
ENDROOT
BRANCH   1   3
ATOM      2  N   UNL     1      33.191 -15.237 -25.283  0.00  0.00    -0.244 NA
ATOM      3  C   UNL     1      34.285 -16.694 -23.701  0.00  0.00    -0.003 C 
ATOM      4  C   UNL     1      34.335 -15.655 -22.783  0.00  0.00    -0.001 C 
ATOM      5  C   UNL     1      33.707 -16.434 -24.927  0.00  0.00    +0.095 C 
ATOM      6  C   UNL     1      33.811 -14.399 -23.111  0.00  0.00    +0.017 C 
ATOM      7  C   UNL     1      33.241 -14.229 -24.391  0.00  0.00    +0.081 C 
ATOM      8  C   UNL     1      33.847 -13.326 -22.204  0.00  0.00    +0.001 C 
ATOM      9  C   UNL     1      32.720 -12.980 -24.717  0.00  0.00    +0.019 C 
ATOM     10  C   UNL     1      33.319 -12.087 -22.556  0.00  0.00    +0.000 C 
ATOM     11  C   UNL     1      32.756 -11.914 -23.814  0.00  0.00    +0.002 C 
ENDBRANCH   1   3
BRANCH   1  14
ATOM     12  O   UNL     1      34.105 -22.373 -19.042  0.00  0.00    -0.226 OA
ATOM     13  N   UNL     1      34.843 -20.264 -19.691  0.00  0.00    -0.246 N 
ATOM     14  C   UNL     1      34.688 -18.380 -21.888  0.00  0.00    +0.008 C 
ATOM     15  C   UNL     1      33.626 -19.470 -21.675  0.00  0.00    +0.022 C 
ATOM     16  C   UNL     1      36.032 -18.815 -21.283  0.00  0.00    +0.022 C 
ATOM     17  C   UNL     1      33.529 -19.870 -20.204  0.00  0.00    +0.097 C 
ATOM     18  C   UNL     1      35.871 -19.223 -19.819  0.00  0.00    +0.097 C 
ATOM     19  C   UNL     1      35.005 -21.538 -19.134  0.00  0.00    +0.402 C 
BRANCH  19  20
ATOM     20  O   UNL     1      36.254 -21.848 -18.683  0.00  0.00    -0.466 OA
ATOM     21  H   UNL     1      36.546 -22.738 -18.688  0.00  0.00    +0.297 HD
ENDBRANCH  19  20
ENDBRANCH   1  14
TORSDOF 3
ENDMDL
