MODEL 1
REMARK VINA RESULT:     -10.8      0.000      0.000
REMARK  Name = 5289373
REMARK  7 active torsions:
REMARK  status: ('A' for Active; 'I' for Inactive)
REMARK    1  A    between atoms: C_8  and  O_24
REMARK    2  A    between atoms: C_9  and  C_22
REMARK    3  A    between atoms: O_24  and  C_26
REMARK    4  A    between atoms: C_26  and  C_27
REMARK    5  A    between atoms: C_27  and  C_28
REMARK    6  A    between atoms: C_28  and  C_30
REMARK    7  A    between atoms: C_30  and  O_31
REMARK                            x       y       z     vdW  Elec       q    Type
REMARK                         _______ _______ _______ _____ _____    ______ ____
ROOT
ATOM      1  O   UNL     1      32.849 -18.936 -21.443  0.00  0.00    -0.291 OA
ATOM      2  C   UNL     1      34.932 -23.287 -14.452  0.00  0.00    +0.010 C 
ATOM      3  C   UNL     1      35.797 -22.267 -15.217  0.00  0.00    +0.001 C 
ATOM      4  C   UNL     1      35.529 -22.275 -16.724  0.00  0.00    +0.004 C 
ATOM      5  C   UNL     1      34.027 -21.915 -16.991  0.00  0.00    +0.044 C 
ATOM      6  C   UNL     1      33.694 -21.877 -18.548  0.00  0.00    +0.019 C 
ATOM      7  C   UNL     1      33.471 -22.874 -14.635  0.00  0.00    +0.044 C 
ATOM      8  C   UNL     1      33.067 -22.794 -16.122  0.00  0.00    +0.169 C 
ATOM      9  C   UNL     1      35.489 -23.072 -13.026  0.00  0.00    +0.058 C 
ATOM     10  C   UNL     1      37.210 -22.557 -14.716  0.00  0.00    +0.000 C 
ATOM     11  C   UNL     1      36.451 -21.291 -17.454  0.00  0.00    +0.004 C 
ATOM     12  C   UNL     1      37.010 -22.914 -13.233  0.00  0.00    +0.007 C 
ATOM     13  C   UNL     1      34.751 -21.033 -19.280  0.00  0.00    -0.042 C 
ATOM     14  C   UNL     1      35.127 -24.754 -14.912  0.00  0.00    +0.001 C 
ATOM     15  C   UNL     1      36.197 -21.316 -18.952  0.00  0.00    +0.022 C 
ATOM     16  C   UNL     1      32.285 -21.250 -18.767  0.00  0.00    +0.012 C 
ATOM     17  C   UNL     1      33.700 -23.296 -19.163  0.00  0.00    +0.004 C 
ATOM     18  C   UNL     1      32.018 -20.802 -20.196  0.00  0.00    +0.069 C 
ATOM     19  C   UNL     1      34.470 -20.087 -20.193  0.00  0.00    +0.029 C 
ATOM     20  C   UNL     1      33.085 -19.847 -20.652  0.00  0.00    +0.173 C 
ENDROOT
BRANCH   9  22
ATOM     21  O   UNL     1      34.010 -24.335 -11.646  0.00  0.00    -0.296 OA
ATOM     22  C   UNL     1      35.156 -24.166 -12.060  0.00  0.00    +0.151 C 
ATOM     23  C   UNL     1      36.291 -25.052 -11.624  0.00  0.00    +0.072 C 
ENDBRANCH   9  22
BRANCH   8  24
ATOM     24  O   UNL     1      31.745 -22.260 -16.150  0.00  0.00    -0.452 OA
BRANCH  24  26
ATOM     25  O   UNL     1      30.799 -24.324 -15.745  0.00  0.00    -0.250 OA
ATOM     26  C   UNL     1      30.756 -23.102 -15.720  0.00  0.00    +0.317 C 
BRANCH  26  27
ATOM     27  C   UNL     1      29.595 -22.276 -15.208  0.00  0.00    +0.121 C 
BRANCH  27  28
ATOM     28  C   UNL     1      28.253 -22.988 -15.331  0.00  0.00    +0.121 C 
BRANCH  28  30
ATOM     29  O   UNL     1      27.216 -21.331 -16.751  0.00  0.00    -0.250 OA
ATOM     30  C   UNL     1      27.486 -22.506 -16.537  0.00  0.00    +0.314 C 
BRANCH  30  31
ATOM     31  O   UNL     1      27.145 -23.515 -17.376  0.00  0.00    -0.480 OA
ATOM     32  H   UNL     1      26.911 -23.327 -18.264  0.00  0.00    +0.295 HD
ENDBRANCH  30  31
ENDBRANCH  28  30
ENDBRANCH  27  28
ENDBRANCH  26  27
ENDBRANCH  24  26
ENDBRANCH   8  24
TORSDOF 7
ENDMDL
MODEL 2
REMARK VINA RESULT:      -8.8      2.135      5.666
REMARK  Name = 5289373
REMARK  7 active torsions:
REMARK  status: ('A' for Active; 'I' for Inactive)
REMARK    1  A    between atoms: C_8  and  O_24
REMARK    2  A    between atoms: C_9  and  C_22
REMARK    3  A    between atoms: O_24  and  C_26
REMARK    4  A    between atoms: C_26  and  C_27
REMARK    5  A    between atoms: C_27  and  C_28
REMARK    6  A    between atoms: C_28  and  C_30
REMARK    7  A    between atoms: C_30  and  O_31
REMARK                            x       y       z     vdW  Elec       q    Type
REMARK                         _______ _______ _______ _____ _____    ______ ____
ROOT
ATOM      1  O   UNL     1      27.643 -23.767 -15.904  0.00  0.00    -0.291 OA
ATOM      2  C   UNL     1      36.019 -23.734 -14.494  0.00  0.00    +0.010 C 
ATOM      3  C   UNL     1      34.953 -24.605 -13.802  0.00  0.00    +0.001 C 
ATOM      4  C   UNL     1      33.605 -23.890 -13.662  0.00  0.00    +0.004 C 
ATOM      5  C   UNL     1      33.060 -23.516 -15.082  0.00  0.00    +0.044 C 
ATOM      6  C   UNL     1      31.642 -22.796 -15.002  0.00  0.00    +0.019 C 
ATOM      7  C   UNL     1      35.526 -23.453 -15.914  0.00  0.00    +0.044 C 
ATOM      8  C   UNL     1      34.143 -22.769 -15.930  0.00  0.00    +0.169 C 
ATOM      9  C   UNL     1      37.225 -24.696 -14.409  0.00  0.00    +0.058 C 
ATOM     10  C   UNL     1      35.662 -25.097 -12.544  0.00  0.00    +0.000 C 
ATOM     11  C   UNL     1      32.592 -24.766 -12.915  0.00  0.00    +0.004 C 
ATOM     12  C   UNL     1      37.114 -25.320 -13.002  0.00  0.00    +0.007 C 
ATOM     13  C   UNL     1      30.704 -23.605 -14.090  0.00  0.00    -0.042 C 
ATOM     14  C   UNL     1      36.318 -22.399 -13.766  0.00  0.00    +0.001 C 
ATOM     15  C   UNL     1      31.262 -24.047 -12.758  0.00  0.00    +0.022 C 
ATOM     16  C   UNL     1      31.022 -22.699 -16.428  0.00  0.00    +0.012 C 
ATOM     17  C   UNL     1      31.763 -21.367 -14.422  0.00  0.00    +0.004 C 
ATOM     18  C   UNL     1      29.532 -22.397 -16.441  0.00  0.00    +0.069 C 
ATOM     19  C   UNL     1      29.434 -23.921 -14.393  0.00  0.00    +0.029 C 
ATOM     20  C   UNL     1      28.786 -23.414 -15.622  0.00  0.00    +0.173 C 
ENDROOT
BRANCH   9  22
ATOM     21  O   UNL     1      38.676 -23.076 -15.388  0.00  0.00    -0.296 OA
ATOM     22  C   UNL     1      38.554 -24.046 -14.642  0.00  0.00    +0.151 C 
ATOM     23  C   UNL     1      39.731 -24.635 -13.914  0.00  0.00    +0.072 C 
ENDBRANCH   9  22
BRANCH   8  24
ATOM     24  O   UNL     1      33.744 -22.704 -17.297  0.00  0.00    -0.452 OA
BRANCH  24  26
ATOM     25  O   UNL     1      35.452 -21.220 -17.743  0.00  0.00    -0.250 OA
ATOM     26  C   UNL     1      34.442 -21.824 -18.079  0.00  0.00    +0.317 C 
BRANCH  26  27
ATOM     27  C   UNL     1      33.763 -21.715 -19.426  0.00  0.00    +0.121 C 
BRANCH  27  28
ATOM     28  C   UNL     1      33.291 -20.302 -19.747  0.00  0.00    +0.121 C 
BRANCH  28  30
ATOM     29  O   UNL     1      33.875 -19.292 -21.863  0.00  0.00    -0.250 OA
ATOM     30  C   UNL     1      34.210 -19.629 -20.735  0.00  0.00    +0.314 C 
BRANCH  30  31
ATOM     31  O   UNL     1      35.450 -19.412 -20.230  0.00  0.00    -0.480 OA
ATOM     32  H   UNL     1      36.208 -19.638 -20.733  0.00  0.00    +0.295 HD
ENDBRANCH  30  31
ENDBRANCH  28  30
ENDBRANCH  27  28
ENDBRANCH  26  27
ENDBRANCH  24  26
ENDBRANCH   8  24
TORSDOF 7
ENDMDL
