MODEL 1
REMARK VINA RESULT:     -10.7      0.000      0.000
REMARK  Name = 122553
REMARK  9 active torsions:
REMARK  status: ('A' for Active; 'I' for Inactive)
REMARK    1  A    between atoms: N_1  and  C_9
REMARK    2  A    between atoms: N_2  and  C_20
REMARK    3  A    between atoms: C_9  and  C_10
REMARK    4  A    between atoms: C_10  and  C_11
REMARK    5  A    between atoms: C_11  and  C_12
REMARK    6  A    between atoms: C_11  and  O_18
REMARK    7  A    between atoms: C_20  and  C_21
REMARK    8  A    between atoms: C_21  and  C_22
REMARK    9  A    between atoms: C_21  and  O_28
REMARK                            x       y       z     vdW  Elec       q    Type
REMARK                         _______ _______ _______ _____ _____    ______ ____
ROOT
ATOM      1  N   UNL     1      34.979 -20.068 -20.671  0.00  0.00    +0.384 N 
ATOM      2  N   UNL     1      33.672 -21.429 -18.480  0.00  0.00    +0.386 N 
ATOM      3  C   UNL     1      35.729 -20.498 -19.484  0.00  0.00    -0.101 C 
ATOM      4  C   UNL     1      33.583 -19.781 -20.318  0.00  0.00    -0.101 C 
ATOM      5  C   UNL     1      35.068 -21.717 -18.832  0.00  0.00    -0.101 C 
ATOM      6  C   UNL     1      32.923 -21.001 -19.666  0.00  0.00    -0.101 C 
ATOM      7  H   UNL     1      34.989 -20.829 -21.350  0.00  0.00    -0.080 HD
ATOM      8  H   UNL     1      33.664 -20.667 -17.801  0.00  0.00    -0.080 HD
ENDROOT
BRANCH   1   9
ATOM      9  C   UNL     1      35.608 -18.903 -21.289  0.00  0.00    -0.075 C 
BRANCH   9  10
ATOM     10  C   UNL     1      34.541 -17.959 -21.843  0.00  0.00    +0.011 C 
BRANCH  10  11
ATOM     11  C   UNL     1      34.895 -16.475 -21.656  0.00  0.00    +0.131 C 
BRANCH  11  12
ATOM     12  C   UNL     1      34.220 -15.553 -22.645  0.00  0.00    +0.004 C 
ATOM     13  C   UNL     1      33.819 -14.292 -22.232  0.00  0.00    -0.002 C 
ATOM     14  C   UNL     1      34.014 -15.987 -23.945  0.00  0.00    -0.002 C 
ATOM     15  C   UNL     1      33.197 -13.442 -23.145  0.00  0.00    -0.000 C 
ATOM     16  C   UNL     1      33.392 -15.135 -24.857  0.00  0.00    -0.000 C 
ATOM     17  C   UNL     1      32.982 -13.863 -24.457  0.00  0.00    -0.000 C 
ENDBRANCH  11  12
BRANCH  11  18
ATOM     18  O   UNL     1      34.510 -16.070 -20.341  0.00  0.00    -0.380 OA
ATOM     19  H   UNL     1      34.499 -16.842 -19.755  0.00  0.00    +0.211 HD
ENDBRANCH  11  18
ENDBRANCH  10  11
ENDBRANCH   9  10
ENDBRANCH   1   9
BRANCH   2  20
ATOM     20  C   UNL     1      33.042 -22.593 -17.859  0.00  0.00    -0.043 C 
BRANCH  20  21
ATOM     21  C   UNL     1      33.266 -22.591 -16.342  0.00  0.00    +0.117 C 
BRANCH  21  22
ATOM     22  C   UNL     1      31.961 -22.724 -15.590  0.00  0.00    +0.002 C 
ATOM     23  C   UNL     1      31.987 -23.007 -14.235  0.00  0.00    -0.002 C 
ATOM     24  C   UNL     1      30.767 -22.561 -16.273  0.00  0.00    -0.002 C 
ATOM     25  C   UNL     1      30.783 -23.130 -13.542  0.00  0.00    -0.000 C 
ATOM     26  C   UNL     1      29.564 -22.683 -15.579  0.00  0.00    -0.000 C 
ATOM     27  C   UNL     1      29.571 -22.969 -14.213  0.00  0.00    -0.000 C 
ENDBRANCH  21  22
BRANCH  21  28
ATOM     28  O   UNL     1      34.112 -23.676 -15.965  0.00  0.00    -0.351 OA
ATOM     29  C   UNL     1      35.337 -23.210 -15.419  0.00  0.00    +0.174 C 
ENDBRANCH  21  28
ENDBRANCH  20  21
ENDBRANCH   2  20
TORSDOF 9
ENDMDL
MODEL 2
REMARK VINA RESULT:     -10.6      3.530      6.597
REMARK  Name = 122553
REMARK  9 active torsions:
REMARK  status: ('A' for Active; 'I' for Inactive)
REMARK    1  A    between atoms: N_1  and  C_9
REMARK    2  A    between atoms: N_2  and  C_20
REMARK    3  A    between atoms: C_9  and  C_10
REMARK    4  A    between atoms: C_10  and  C_11
REMARK    5  A    between atoms: C_11  and  C_12
REMARK    6  A    between atoms: C_11  and  O_18
REMARK    7  A    between atoms: C_20  and  C_21
REMARK    8  A    between atoms: C_21  and  C_22
REMARK    9  A    between atoms: C_21  and  O_28
REMARK                            x       y       z     vdW  Elec       q    Type
REMARK                         _______ _______ _______ _____ _____    ______ ____
ROOT
ATOM      1  N   UNL     1      33.179 -14.680 -23.616  0.00  0.00    +0.384 N 
ATOM      2  N   UNL     1      34.742 -17.047 -23.061  0.00  0.00    +0.386 N 
ATOM      3  C   UNL     1      33.544 -15.620 -24.684  0.00  0.00    -0.101 C 
ATOM      4  C   UNL     1      34.190 -14.694 -22.553  0.00  0.00    -0.101 C 
ATOM      5  C   UNL     1      33.730 -17.034 -24.125  0.00  0.00    -0.101 C 
ATOM      6  C   UNL     1      34.375 -16.109 -21.994  0.00  0.00    -0.101 C 
ATOM      7  H   UNL     1      32.289 -14.977 -23.218  0.00  0.00    -0.080 HD
ATOM      8  H   UNL     1      35.632 -16.749 -23.461  0.00  0.00    -0.080 HD
ENDROOT
BRANCH   1   9
ATOM      9  C   UNL     1      33.005 -13.330 -24.150  0.00  0.00    -0.075 C 
BRANCH   9  10
ATOM     10  C   UNL     1      32.186 -12.480 -23.179  0.00  0.00    +0.011 C 
BRANCH  10  11
ATOM     11  C   UNL     1      32.418 -10.971 -23.358  0.00  0.00    +0.131 C 
BRANCH  11  12
ATOM     12  C   UNL     1      31.954 -10.136 -22.187  0.00  0.00    +0.004 C 
ATOM     13  C   UNL     1      32.049  -8.755 -22.259  0.00  0.00    -0.002 C 
ATOM     14  C   UNL     1      31.444 -10.767 -21.064  0.00  0.00    -0.002 C 
ATOM     15  C   UNL     1      31.620  -7.985 -21.179  0.00  0.00    -0.000 C 
ATOM     16  C   UNL     1      31.016  -9.996 -19.984  0.00  0.00    -0.000 C 
ATOM     17  C   UNL     1      31.105  -8.604 -20.040  0.00  0.00    -0.000 C 
ENDBRANCH  11  12
BRANCH  11  18
ATOM     18  O   UNL     1      33.815 -10.736 -23.541  0.00  0.00    -0.380 OA
ATOM     19  H   UNL     1      34.208 -10.453 -22.702  0.00  0.00    +0.211 HD
ENDBRANCH  11  18
ENDBRANCH  10  11
ENDBRANCH   9  10
ENDBRANCH   1   9
BRANCH   2  20
ATOM     20  C   UNL     1      34.918 -18.397 -22.528  0.00  0.00    -0.043 C 
BRANCH  20  21
ATOM     21  C   UNL     1      35.068 -18.365 -21.002  0.00  0.00    +0.117 C 
BRANCH  21  22
ATOM     22  C   UNL     1      34.469 -19.597 -20.361  0.00  0.00    +0.002 C 
ATOM     23  C   UNL     1      33.096 -19.766 -20.372  0.00  0.00    -0.002 C 
ATOM     24  C   UNL     1      35.309 -20.531 -19.776  0.00  0.00    -0.002 C 
ATOM     25  C   UNL     1      32.544 -20.902 -19.781  0.00  0.00    -0.000 C 
ATOM     26  C   UNL     1      34.756 -21.667 -19.186  0.00  0.00    -0.000 C 
ATOM     27  C   UNL     1      33.373 -21.853 -19.187  0.00  0.00    -0.000 C 
ENDBRANCH  21  22
BRANCH  21  28
ATOM     28  O   UNL     1      36.447 -18.300 -20.642  0.00  0.00    -0.351 OA
ATOM     29  C   UNL     1      37.281 -18.301 -21.790  0.00  0.00    +0.174 C 
ENDBRANCH  21  28
ENDBRANCH  20  21
ENDBRANCH   2  20
TORSDOF 9
ENDMDL
MODEL 3
REMARK VINA RESULT:     -10.5      3.961      7.271
REMARK  Name = 122553
REMARK  9 active torsions:
REMARK  status: ('A' for Active; 'I' for Inactive)
REMARK    1  A    between atoms: N_1  and  C_9
REMARK    2  A    between atoms: N_2  and  C_20
REMARK    3  A    between atoms: C_9  and  C_10
REMARK    4  A    between atoms: C_10  and  C_11
REMARK    5  A    between atoms: C_11  and  C_12
REMARK    6  A    between atoms: C_11  and  O_18
REMARK    7  A    between atoms: C_20  and  C_21
REMARK    8  A    between atoms: C_21  and  C_22
REMARK    9  A    between atoms: C_21  and  O_28
REMARK                            x       y       z     vdW  Elec       q    Type
REMARK                         _______ _______ _______ _____ _____    ______ ____
ROOT
ATOM      1  N   UNL     1      33.421 -13.348 -21.894  0.00  0.00    +0.384 N 
ATOM      2  N   UNL     1      34.269 -16.110 -21.784  0.00  0.00    +0.386 N 
ATOM      3  C   UNL     1      33.108 -14.197 -20.737  0.00  0.00    -0.101 C 
ATOM      4  C   UNL     1      33.531 -14.162 -23.111  0.00  0.00    -0.101 C 
ATOM      5  C   UNL     1      34.161 -15.297 -20.566  0.00  0.00    -0.101 C 
ATOM      6  C   UNL     1      34.584 -15.262 -22.939  0.00  0.00    -0.101 C 
ATOM      7  H   UNL     1      34.320 -12.897 -21.727  0.00  0.00    -0.080 HD
ATOM      8  H   UNL     1      33.370 -16.560 -21.951  0.00  0.00    -0.080 HD
ENDROOT
BRANCH   1   9
ATOM      9  C   UNL     1      32.414 -12.301 -22.058  0.00  0.00    -0.075 C 
BRANCH   9  10
ATOM     10  C   UNL     1      31.940 -11.806 -20.691  0.00  0.00    +0.011 C 
BRANCH  10  11
ATOM     11  C   UNL     1      30.766 -10.819 -20.784  0.00  0.00    +0.131 C 
BRANCH  11  12
ATOM     12  C   UNL     1      31.188  -9.370 -20.869  0.00  0.00    +0.004 C 
ATOM     13  C   UNL     1      31.454  -8.672 -19.701  0.00  0.00    -0.002 C 
ATOM     14  C   UNL     1      31.301  -8.769 -22.112  0.00  0.00    -0.002 C 
ATOM     15  C   UNL     1      31.843  -7.335 -19.781  0.00  0.00    -0.000 C 
ATOM     16  C   UNL     1      31.691  -7.432 -22.190  0.00  0.00    -0.000 C 
ATOM     17  C   UNL     1      31.961  -6.714 -21.024  0.00  0.00    -0.000 C 
ENDBRANCH  11  12
BRANCH  11  18
ATOM     18  O   UNL     1      29.996 -11.123 -21.948  0.00  0.00    -0.380 OA
ATOM     19  H   UNL     1      30.304 -11.959 -22.330  0.00  0.00    +0.211 HD
ENDBRANCH  11  18
ENDBRANCH  10  11
ENDBRANCH   9  10
ENDBRANCH   1   9
BRANCH   2  20
ATOM     20  C   UNL     1      35.275 -17.158 -21.620  0.00  0.00    -0.043 C 
BRANCH  20  21
ATOM     21  C   UNL     1      34.752 -18.502 -22.142  0.00  0.00    +0.117 C 
BRANCH  21  22
ATOM     22  C   UNL     1      34.517 -19.481 -21.013  0.00  0.00    +0.002 C 
ATOM     23  C   UNL     1      33.219 -19.804 -20.657  0.00  0.00    -0.002 C 
ATOM     24  C   UNL     1      35.606 -20.032 -20.359  0.00  0.00    -0.002 C 
ATOM     25  C   UNL     1      33.003 -20.707 -19.616  0.00  0.00    -0.000 C 
ATOM     26  C   UNL     1      35.389 -20.935 -19.319  0.00  0.00    -0.000 C 
ATOM     27  C   UNL     1      34.087 -21.272 -18.946  0.00  0.00    -0.000 C 
ENDBRANCH  21  22
BRANCH  21  28
ATOM     28  O   UNL     1      33.519 -18.318 -22.837  0.00  0.00    -0.351 OA
ATOM     29  C   UNL     1      33.646 -18.651 -24.210  0.00  0.00    +0.174 C 
ENDBRANCH  21  28
ENDBRANCH  20  21
ENDBRANCH   2  20
TORSDOF 9
ENDMDL
MODEL 4
REMARK VINA RESULT:     -10.3      4.528     11.240
REMARK  Name = 122553
REMARK  9 active torsions:
REMARK  status: ('A' for Active; 'I' for Inactive)
REMARK    1  A    between atoms: N_1  and  C_9
REMARK    2  A    between atoms: N_2  and  C_20
REMARK    3  A    between atoms: C_9  and  C_10
REMARK    4  A    between atoms: C_10  and  C_11
REMARK    5  A    between atoms: C_11  and  C_12
REMARK    6  A    between atoms: C_11  and  O_18
REMARK    7  A    between atoms: C_20  and  C_21
REMARK    8  A    between atoms: C_21  and  C_22
REMARK    9  A    between atoms: C_21  and  O_28
REMARK                            x       y       z     vdW  Elec       q    Type
REMARK                         _______ _______ _______ _____ _____    ______ ____
ROOT
ATOM      1  N   UNL     1      33.410 -14.507 -22.288  0.00  0.00    +0.384 N 
ATOM      2  N   UNL     1      32.204 -11.922 -21.815  0.00  0.00    +0.386 N 
ATOM      3  C   UNL     1      33.439 -13.883 -20.958  0.00  0.00    -0.101 C 
ATOM      4  C   UNL     1      33.375 -13.478 -23.335  0.00  0.00    -0.101 C 
ATOM      5  C   UNL     1      32.239 -12.950 -20.767  0.00  0.00    -0.101 C 
ATOM      6  C   UNL     1      32.174 -12.546 -23.143  0.00  0.00    -0.101 C 
ATOM      7  H   UNL     1      32.563 -15.069 -22.360  0.00  0.00    -0.080 HD
ATOM      8  H   UNL     1      33.053 -11.361 -21.742  0.00  0.00    -0.080 HD
ENDROOT
BRANCH   1   9
ATOM      9  C   UNL     1      34.558 -15.394 -22.470  0.00  0.00    -0.075 C 
BRANCH   9  10
ATOM     10  C   UNL     1      34.537 -16.506 -21.422  0.00  0.00    +0.011 C 
BRANCH  10  11
ATOM     11  C   UNL     1      34.922 -17.879 -21.995  0.00  0.00    +0.131 C 
BRANCH  11  12
ATOM     12  C   UNL     1      34.736 -19.023 -21.024  0.00  0.00    +0.004 C 
ATOM     13  C   UNL     1      33.455 -19.470 -20.740  0.00  0.00    -0.002 C 
ATOM     14  C   UNL     1      35.850 -19.602 -20.439  0.00  0.00    -0.002 C 
ATOM     15  C   UNL     1      33.285 -20.525 -19.845  0.00  0.00    -0.000 C 
ATOM     16  C   UNL     1      35.678 -20.658 -19.544  0.00  0.00    -0.000 C 
ATOM     17  C   UNL     1      34.395 -21.120 -19.246  0.00  0.00    -0.000 C 
ENDBRANCH  11  12
BRANCH  11  18
ATOM     18  O   UNL     1      34.117 -18.143 -23.146  0.00  0.00    -0.380 OA
ATOM     19  H   UNL     1      33.868 -19.079 -23.159  0.00  0.00    +0.211 HD
ENDBRANCH  11  18
ENDBRANCH  10  11
ENDBRANCH   9  10
ENDBRANCH   1   9
BRANCH   2  20
ATOM     20  C   UNL     1      31.058 -11.033 -21.632  0.00  0.00    -0.043 C 
BRANCH  20  21
ATOM     21  C   UNL     1      31.448  -9.803 -20.803  0.00  0.00    +0.117 C 
BRANCH  21  22
ATOM     22  C   UNL     1      31.222  -8.522 -21.573  0.00  0.00    +0.002 C 
ATOM     23  C   UNL     1      30.741  -8.587 -22.869  0.00  0.00    -0.002 C 
ATOM     24  C   UNL     1      31.501  -7.309 -20.965  0.00  0.00    -0.002 C 
ATOM     25  C   UNL     1      30.532  -7.406 -23.579  0.00  0.00    -0.000 C 
ATOM     26  C   UNL     1      31.292  -6.128 -21.676  0.00  0.00    -0.000 C 
ATOM     27  C   UNL     1      30.808  -6.175 -22.984  0.00  0.00    -0.000 C 
ENDBRANCH  21  22
BRANCH  21  28
ATOM     28  O   UNL     1      30.674  -9.748 -19.606  0.00  0.00    -0.351 OA
ATOM     29  C   UNL     1      31.501  -9.802 -18.453  0.00  0.00    +0.174 C 
ENDBRANCH  21  28
ENDBRANCH  20  21
ENDBRANCH   2  20
TORSDOF 9
ENDMDL
MODEL 5
REMARK VINA RESULT:     -10.3      2.143      4.272
REMARK  Name = 122553
REMARK  9 active torsions:
REMARK  status: ('A' for Active; 'I' for Inactive)
REMARK    1  A    between atoms: N_1  and  C_9
REMARK    2  A    between atoms: N_2  and  C_20
REMARK    3  A    between atoms: C_9  and  C_10
REMARK    4  A    between atoms: C_10  and  C_11
REMARK    5  A    between atoms: C_11  and  C_12
REMARK    6  A    between atoms: C_11  and  O_18
REMARK    7  A    between atoms: C_20  and  C_21
REMARK    8  A    between atoms: C_21  and  C_22
REMARK    9  A    between atoms: C_21  and  O_28
REMARK                            x       y       z     vdW  Elec       q    Type
REMARK                         _______ _______ _______ _____ _____    ______ ____
ROOT
ATOM      1  N   UNL     1      34.811 -20.974 -18.748  0.00  0.00    +0.384 N 
ATOM      2  N   UNL     1      34.877 -22.513 -16.302  0.00  0.00    +0.386 N 
ATOM      3  C   UNL     1      33.879 -22.086 -18.521  0.00  0.00    -0.101 C 
ATOM      4  C   UNL     1      36.068 -21.204 -18.025  0.00  0.00    -0.101 C 
ATOM      5  C   UNL     1      33.619 -22.284 -17.024  0.00  0.00    -0.101 C 
ATOM      6  C   UNL     1      35.808 -21.401 -16.528  0.00  0.00    -0.101 C 
ATOM      7  H   UNL     1      34.386 -20.120 -18.390  0.00  0.00    -0.080 HD
ATOM      8  H   UNL     1      35.302 -23.368 -16.662  0.00  0.00    -0.080 HD
ENDROOT
BRANCH   1   9
ATOM      9  C   UNL     1      35.061 -20.789 -20.177  0.00  0.00    -0.075 C 
BRANCH   9  10
ATOM     10  C   UNL     1      34.458 -19.467 -20.651  0.00  0.00    +0.011 C 
BRANCH  10  11
ATOM     11  C   UNL     1      35.477 -18.563 -21.362  0.00  0.00    +0.131 C 
BRANCH  11  12
ATOM     12  C   UNL     1      34.909 -17.239 -21.820  0.00  0.00    +0.004 C 
ATOM     13  C   UNL     1      34.575 -16.281 -20.876  0.00  0.00    -0.002 C 
ATOM     14  C   UNL     1      34.733 -17.010 -23.176  0.00  0.00    -0.002 C 
ATOM     15  C   UNL     1      34.051 -15.061 -21.300  0.00  0.00    -0.000 C 
ATOM     16  C   UNL     1      34.209 -15.789 -23.598  0.00  0.00    -0.000 C 
ATOM     17  C   UNL     1      33.867 -14.814 -22.660  0.00  0.00    -0.000 C 
ENDBRANCH  11  12
BRANCH  11  18
ATOM     18  O   UNL     1      36.559 -18.292 -20.469  0.00  0.00    -0.380 OA
ATOM     19  H   UNL     1      36.243 -18.341 -19.553  0.00  0.00    +0.211 HD
ENDBRANCH  11  18
ENDBRANCH  10  11
ENDBRANCH   9  10
ENDBRANCH   1   9
BRANCH   2  20
ATOM     20  C   UNL     1      34.629 -22.700 -14.873  0.00  0.00    -0.043 C 
BRANCH  20  21
ATOM     21  C   UNL     1      34.699 -24.186 -14.497  0.00  0.00    +0.117 C 
BRANCH  21  22
ATOM     22  C   UNL     1      36.086 -24.575 -14.039  0.00  0.00    +0.002 C 
ATOM     23  C   UNL     1      36.716 -25.656 -14.631  0.00  0.00    -0.002 C 
ATOM     24  C   UNL     1      36.697 -23.843 -13.035  0.00  0.00    -0.002 C 
ATOM     25  C   UNL     1      37.995 -26.015 -14.209  0.00  0.00    -0.000 C 
ATOM     26  C   UNL     1      37.977 -24.202 -12.613  0.00  0.00    -0.000 C 
ATOM     27  C   UNL     1      38.627 -25.289 -13.199  0.00  0.00    -0.000 C 
ENDBRANCH  21  22
BRANCH  21  28
ATOM     28  O   UNL     1      33.783 -24.473 -13.442  0.00  0.00    -0.351 OA
ATOM     29  C   UNL     1      32.558 -23.777 -13.618  0.00  0.00    +0.174 C 
ENDBRANCH  21  28
ENDBRANCH  20  21
ENDBRANCH   2  20
TORSDOF 9
ENDMDL
MODEL 6
REMARK VINA RESULT:     -10.1      6.378     13.182
REMARK  Name = 122553
REMARK  9 active torsions:
REMARK  status: ('A' for Active; 'I' for Inactive)
REMARK    1  A    between atoms: N_1  and  C_9
REMARK    2  A    between atoms: N_2  and  C_20
REMARK    3  A    between atoms: C_9  and  C_10
REMARK    4  A    between atoms: C_10  and  C_11
REMARK    5  A    between atoms: C_11  and  C_12
REMARK    6  A    between atoms: C_11  and  O_18
REMARK    7  A    between atoms: C_20  and  C_21
REMARK    8  A    between atoms: C_21  and  C_22
REMARK    9  A    between atoms: C_21  and  O_28
REMARK                            x       y       z     vdW  Elec       q    Type
REMARK                         _______ _______ _______ _____ _____    ______ ____
ROOT
ATOM      1  N   UNL     1      32.380 -11.865 -22.089  0.00  0.00    +0.384 N 
ATOM      2  N   UNL     1      31.209  -9.227 -22.266  0.00  0.00    +0.386 N 
ATOM      3  C   UNL     1      32.489 -11.062 -23.315  0.00  0.00    -0.101 C 
ATOM      4  C   UNL     1      31.150 -11.526 -21.363  0.00  0.00    -0.101 C 
ATOM      5  C   UNL     1      32.439  -9.565 -22.993  0.00  0.00    -0.101 C 
ATOM      6  C   UNL     1      31.102 -10.028 -21.041  0.00  0.00    -0.101 C 
ATOM      7  H   UNL     1      33.177 -11.647 -21.492  0.00  0.00    -0.080 HD
ATOM      8  H   UNL     1      30.412  -9.446 -22.864  0.00  0.00    -0.080 HD
ENDROOT
BRANCH   1   9
ATOM      9  C   UNL     1      32.424 -13.293 -22.398  0.00  0.00    -0.075 C 
BRANCH   9  10
ATOM     10  C   UNL     1      33.874 -13.767 -22.497  0.00  0.00    +0.011 C 
BRANCH  10  11
ATOM     11  C   UNL     1      34.082 -14.845 -23.572  0.00  0.00    +0.131 C 
BRANCH  11  12
ATOM     12  C   UNL     1      34.272 -16.238 -23.016  0.00  0.00    +0.004 C 
ATOM     13  C   UNL     1      33.954 -17.332 -23.805  0.00  0.00    -0.002 C 
ATOM     14  C   UNL     1      34.760 -16.393 -21.728  0.00  0.00    -0.002 C 
ATOM     15  C   UNL     1      34.130 -18.617 -23.291  0.00  0.00    -0.000 C 
ATOM     16  C   UNL     1      34.936 -17.678 -21.216  0.00  0.00    -0.000 C 
ATOM     17  C   UNL     1      34.620 -18.791 -21.997  0.00  0.00    -0.000 C 
ENDBRANCH  11  12
BRANCH  11  18
ATOM     18  O   UNL     1      32.942 -14.866 -24.433  0.00  0.00    -0.380 OA
ATOM     19  H   UNL     1      33.208 -15.169 -25.315  0.00  0.00    +0.211 HD
ENDBRANCH  11  18
ENDBRANCH  10  11
ENDBRANCH   9  10
ENDBRANCH   1   9
BRANCH   2  20
ATOM     20  C   UNL     1      31.163  -7.799 -21.958  0.00  0.00    -0.043 C 
BRANCH  20  21
ATOM     21  C   UNL     1      32.559  -7.172 -22.067  0.00  0.00    +0.117 C 
BRANCH  21  22
ATOM     22  C   UNL     1      32.589  -6.065 -23.097  0.00  0.00    +0.002 C 
ATOM     23  C   UNL     1      31.396  -5.561 -23.584  0.00  0.00    -0.002 C 
ATOM     24  C   UNL     1      33.811  -5.579 -23.531  0.00  0.00    -0.002 C 
ATOM     25  C   UNL     1      31.423  -4.540 -24.533  0.00  0.00    -0.000 C 
ATOM     26  C   UNL     1      33.838  -4.557 -24.480  0.00  0.00    -0.000 C 
ATOM     27  C   UNL     1      32.645  -4.038 -24.982  0.00  0.00    -0.000 C 
ENDBRANCH  21  22
BRANCH  21  28
ATOM     28  O   UNL     1      32.956  -6.625 -20.811  0.00  0.00    -0.351 OA
ATOM     29  C   UNL     1      31.833  -6.369 -19.982  0.00  0.00    +0.174 C 
ENDBRANCH  21  28
ENDBRANCH  20  21
ENDBRANCH   2  20
TORSDOF 9
ENDMDL
MODEL 7
REMARK VINA RESULT:     -10.1      6.362     12.910
REMARK  Name = 122553
REMARK  9 active torsions:
REMARK  status: ('A' for Active; 'I' for Inactive)
REMARK    1  A    between atoms: N_1  and  C_9
REMARK    2  A    between atoms: N_2  and  C_20
REMARK    3  A    between atoms: C_9  and  C_10
REMARK    4  A    between atoms: C_10  and  C_11
REMARK    5  A    between atoms: C_11  and  C_12
REMARK    6  A    between atoms: C_11  and  O_18
REMARK    7  A    between atoms: C_20  and  C_21
REMARK    8  A    between atoms: C_21  and  C_22
REMARK    9  A    between atoms: C_21  and  O_28
REMARK                            x       y       z     vdW  Elec       q    Type
REMARK                         _______ _______ _______ _____ _____    ______ ____
ROOT
ATOM      1  N   UNL     1      32.067 -12.533 -22.293  0.00  0.00    +0.384 N 
ATOM      2  N   UNL     1      31.710  -9.670 -22.110  0.00  0.00    +0.386 N 
ATOM      3  C   UNL     1      31.458 -11.915 -21.108  0.00  0.00    -0.101 C 
ATOM      4  C   UNL     1      33.010 -11.604 -22.928  0.00  0.00    -0.101 C 
ATOM      5  C   UNL     1      30.766 -10.598 -21.475  0.00  0.00    -0.101 C 
ATOM      6  C   UNL     1      32.317 -10.288 -23.294  0.00  0.00    -0.101 C 
ATOM      7  H   UNL     1      31.326 -12.745 -22.961  0.00  0.00    -0.080 HD
ATOM      8  H   UNL     1      32.451  -9.459 -21.441  0.00  0.00    -0.080 HD
ENDROOT
BRANCH   1   9
ATOM      9  C   UNL     1      32.731 -13.788 -21.941  0.00  0.00    -0.075 C 
BRANCH   9  10
ATOM     10  C   UNL     1      34.067 -13.902 -22.676  0.00  0.00    +0.011 C 
BRANCH  10  11
ATOM     11  C   UNL     1      34.067 -14.995 -23.756  0.00  0.00    +0.131 C 
BRANCH  11  12
ATOM     12  C   UNL     1      34.244 -16.394 -23.212  0.00  0.00    +0.004 C 
ATOM     13  C   UNL     1      34.865 -16.572 -21.986  0.00  0.00    -0.002 C 
ATOM     14  C   UNL     1      33.781 -17.472 -23.950  0.00  0.00    -0.002 C 
ATOM     15  C   UNL     1      35.027 -17.863 -21.484  0.00  0.00    -0.000 C 
ATOM     16  C   UNL     1      33.944 -18.762 -23.448  0.00  0.00    -0.000 C 
ATOM     17  C   UNL     1      34.568 -18.958 -22.215  0.00  0.00    -0.000 C 
ENDBRANCH  11  12
BRANCH  11  18
ATOM     18  O   UNL     1      32.826 -14.950 -24.461  0.00  0.00    -0.380 OA
ATOM     19  H   UNL     1      32.945 -15.318 -25.350  0.00  0.00    +0.211 HD
ENDBRANCH  11  18
ENDBRANCH  10  11
ENDBRANCH   9  10
ENDBRANCH   1   9
BRANCH   2  20
ATOM     20  C   UNL     1      31.048  -8.415 -22.460  0.00  0.00    -0.043 C 
BRANCH  20  21
ATOM     21  C   UNL     1      31.926  -7.213 -22.089  0.00  0.00    +0.117 C 
BRANCH  21  22
ATOM     22  C   UNL     1      32.371  -6.453 -23.319  0.00  0.00    +0.002 C 
ATOM     23  C   UNL     1      33.478  -5.625 -23.239  0.00  0.00    -0.002 C 
ATOM     24  C   UNL     1      31.663  -6.601 -24.499  0.00  0.00    -0.002 C 
ATOM     25  C   UNL     1      33.888  -4.925 -24.372  0.00  0.00    -0.000 C 
ATOM     26  C   UNL     1      32.074  -5.901 -25.633  0.00  0.00    -0.000 C 
ATOM     27  C   UNL     1      33.187  -5.062 -25.570  0.00  0.00    -0.000 C 
ENDBRANCH  21  22
BRANCH  21  28
ATOM     28  O   UNL     1      31.206  -6.315 -21.246  0.00  0.00    -0.351 OA
ATOM     29  C   UNL     1      31.783  -6.248 -19.952  0.00  0.00    +0.174 C 
ENDBRANCH  21  28
ENDBRANCH  20  21
ENDBRANCH   2  20
TORSDOF 9
ENDMDL
MODEL 8
REMARK VINA RESULT:     -10.0      3.254      6.346
REMARK  Name = 122553
REMARK  9 active torsions:
REMARK  status: ('A' for Active; 'I' for Inactive)
REMARK    1  A    between atoms: N_1  and  C_9
REMARK    2  A    between atoms: N_2  and  C_20
REMARK    3  A    between atoms: C_9  and  C_10
REMARK    4  A    between atoms: C_10  and  C_11
REMARK    5  A    between atoms: C_11  and  C_12
REMARK    6  A    between atoms: C_11  and  O_18
REMARK    7  A    between atoms: C_20  and  C_21
REMARK    8  A    between atoms: C_21  and  C_22
REMARK    9  A    between atoms: C_21  and  O_28
REMARK                            x       y       z     vdW  Elec       q    Type
REMARK                         _______ _______ _______ _____ _____    ______ ____
ROOT
ATOM      1  N   UNL     1      33.626 -23.168 -16.195  0.00  0.00    +0.384 N 
ATOM      2  N   UNL     1      34.747 -22.633 -13.584  0.00  0.00    +0.386 N 
ATOM      3  C   UNL     1      34.771 -22.264 -16.027  0.00  0.00    -0.101 C 
ATOM      4  C   UNL     1      32.786 -23.159 -14.991  0.00  0.00    -0.101 C 
ATOM      5  C   UNL     1      35.588 -22.642 -14.788  0.00  0.00    -0.101 C 
ATOM      6  C   UNL     1      33.604 -23.537 -13.751  0.00  0.00    -0.101 C 
ATOM      7  H   UNL     1      33.981 -24.114 -16.331  0.00  0.00    -0.080 HD
ATOM      8  H   UNL     1      34.392 -21.686 -13.449  0.00  0.00    -0.080 HD
ENDROOT
BRANCH   1   9
ATOM      9  C   UNL     1      32.845 -22.804 -17.376  0.00  0.00    -0.075 C 
BRANCH   9  10
ATOM     10  C   UNL     1      33.745 -22.146 -18.421  0.00  0.00    +0.011 C 
BRANCH  10  11
ATOM     11  C   UNL     1      33.064 -20.978 -19.151  0.00  0.00    +0.131 C 
BRANCH  11  12
ATOM     12  C   UNL     1      33.997 -20.172 -20.025  0.00  0.00    +0.004 C 
ATOM     13  C   UNL     1      35.356 -20.177 -19.751  0.00  0.00    -0.002 C 
ATOM     14  C   UNL     1      33.476 -19.444 -21.082  0.00  0.00    -0.002 C 
ATOM     15  C   UNL     1      36.216 -19.433 -20.557  0.00  0.00    -0.000 C 
ATOM     16  C   UNL     1      34.338 -18.702 -21.889  0.00  0.00    -0.000 C 
ATOM     17  C   UNL     1      35.709 -18.695 -21.626  0.00  0.00    -0.000 C 
ENDBRANCH  11  12
BRANCH  11  18
ATOM     18  O   UNL     1      32.021 -21.495 -19.979  0.00  0.00    -0.380 OA
ATOM     19  H   UNL     1      32.403 -21.856 -20.793  0.00  0.00    +0.211 HD
ENDBRANCH  11  18
ENDBRANCH  10  11
ENDBRANCH   9  10
ENDBRANCH   1   9
BRANCH   2  20
ATOM     20  C   UNL     1      35.528 -22.995 -12.402  0.00  0.00    -0.043 C 
BRANCH  20  21
ATOM     21  C   UNL     1      35.734 -24.513 -12.329  0.00  0.00    +0.117 C 
BRANCH  21  22
ATOM     22  C   UNL     1      37.009 -24.933 -13.025  0.00  0.00    +0.002 C 
ATOM     23  C   UNL     1      36.974 -25.985 -13.924  0.00  0.00    -0.002 C 
ATOM     24  C   UNL     1      38.185 -24.255 -12.749  0.00  0.00    -0.002 C 
ATOM     25  C   UNL     1      38.149 -26.372 -14.566  0.00  0.00    -0.000 C 
ATOM     26  C   UNL     1      39.360 -24.642 -13.392  0.00  0.00    -0.000 C 
ATOM     27  C   UNL     1      39.343 -25.701 -14.300  0.00  0.00    -0.000 C 
ENDBRANCH  21  22
BRANCH  21  28
ATOM     28  O   UNL     1      35.808 -24.937 -10.969  0.00  0.00    -0.351 OA
ATOM     29  C   UNL     1      35.460 -23.886 -10.081  0.00  0.00    +0.174 C 
ENDBRANCH  21  28
ENDBRANCH  20  21
ENDBRANCH   2  20
TORSDOF 9
ENDMDL
MODEL 9
REMARK VINA RESULT:      -9.8      6.521     10.223
REMARK  Name = 122553
REMARK  9 active torsions:
REMARK  status: ('A' for Active; 'I' for Inactive)
REMARK    1  A    between atoms: N_1  and  C_9
REMARK    2  A    between atoms: N_2  and  C_20
REMARK    3  A    between atoms: C_9  and  C_10
REMARK    4  A    between atoms: C_10  and  C_11
REMARK    5  A    between atoms: C_11  and  C_12
REMARK    6  A    between atoms: C_11  and  O_18
REMARK    7  A    between atoms: C_20  and  C_21
REMARK    8  A    between atoms: C_21  and  C_22
REMARK    9  A    between atoms: C_21  and  O_28
REMARK                            x       y       z     vdW  Elec       q    Type
REMARK                         _______ _______ _______ _____ _____    ______ ____
ROOT
ATOM      1  N   UNL     1      31.919 -10.234 -21.838  0.00  0.00    +0.384 N 
ATOM      2  N   UNL     1      32.793 -12.947 -22.320  0.00  0.00    +0.386 N 
ATOM      3  C   UNL     1      31.221 -11.378 -21.239  0.00  0.00    -0.101 C 
ATOM      4  C   UNL     1      32.537 -10.621 -23.112  0.00  0.00    -0.101 C 
ATOM      5  C   UNL     1      32.176 -12.561 -21.045  0.00  0.00    -0.101 C 
ATOM      6  C   UNL     1      33.493 -11.804 -22.918  0.00  0.00    -0.101 C 
ATOM      7  H   UNL     1      32.657  -9.938 -21.199  0.00  0.00    -0.080 HD
ATOM      8  H   UNL     1      32.054 -13.242 -22.959  0.00  0.00    -0.080 HD
ENDROOT
BRANCH   1   9
ATOM      9  C   UNL     1      31.006  -9.108 -22.025  0.00  0.00    -0.075 C 
BRANCH   9  10
ATOM     10  C   UNL     1      31.156  -8.111 -20.876  0.00  0.00    +0.011 C 
BRANCH  10  11
ATOM     11  C   UNL     1      32.525  -7.415 -20.859  0.00  0.00    +0.131 C 
BRANCH  11  12
ATOM     12  C   UNL     1      32.699  -6.375 -21.941  0.00  0.00    +0.004 C 
ATOM     13  C   UNL     1      31.764  -5.359 -22.062  0.00  0.00    -0.002 C 
ATOM     14  C   UNL     1      33.789  -6.458 -22.792  0.00  0.00    -0.002 C 
ATOM     15  C   UNL     1      31.925  -4.400 -23.061  0.00  0.00    -0.000 C 
ATOM     16  C   UNL     1      33.949  -5.497 -23.791  0.00  0.00    -0.000 C 
ATOM     17  C   UNL     1      33.016  -4.468 -23.926  0.00  0.00    -0.000 C 
ENDBRANCH  11  12
BRANCH  11  18
ATOM     18  O   UNL     1      32.702  -6.770 -19.596  0.00  0.00    -0.380 OA
ATOM     19  H   UNL     1      32.980  -5.853 -19.737  0.00  0.00    +0.211 HD
ENDBRANCH  11  18
ENDBRANCH  10  11
ENDBRANCH   9  10
ENDBRANCH   1   9
BRANCH   2  20
ATOM     20  C   UNL     1      33.705 -14.074 -22.135  0.00  0.00    -0.043 C 
BRANCH  20  21
ATOM     21  C   UNL     1      33.934 -14.814 -23.459  0.00  0.00    +0.117 C 
BRANCH  21  22
ATOM     22  C   UNL     1      34.160 -16.293 -23.234  0.00  0.00    +0.002 C 
ATOM     23  C   UNL     1      34.891 -16.706 -22.134  0.00  0.00    -0.002 C 
ATOM     24  C   UNL     1      33.631 -17.202 -24.135  0.00  0.00    -0.002 C 
ATOM     25  C   UNL     1      35.100 -18.069 -21.927  0.00  0.00    -0.000 C 
ATOM     26  C   UNL     1      33.839 -18.566 -23.927  0.00  0.00    -0.000 C 
ATOM     27  C   UNL     1      34.575 -19.000 -22.823  0.00  0.00    -0.000 C 
ENDBRANCH  21  22
BRANCH  21  28
ATOM     28  O   UNL     1      32.803 -14.661 -24.314  0.00  0.00    -0.351 OA
ATOM     29  C   UNL     1      33.159 -14.027 -25.533  0.00  0.00    +0.174 C 
ENDBRANCH  21  28
ENDBRANCH  20  21
ENDBRANCH   2  20
TORSDOF 9
ENDMDL
