MODEL 1
REMARK VINA RESULT:     -11.4      0.000      0.000
REMARK  Name = 3689
REMARK  7 active torsions:
REMARK  status: ('A' for Active; 'I' for Inactive)
REMARK    1  A    between atoms: N_1  and  C_8
REMARK    2  A    between atoms: C_2  and  C_21
REMARK    3  A    between atoms: C_8  and  C_10
REMARK    4  A    between atoms: C_10  and  C_11
REMARK    5  A    between atoms: C_10  and  O_19
REMARK    6  A    between atoms: C_16  and  O_17
REMARK    7  A    between atoms: C_21  and  C_22
REMARK                            x       y       z     vdW  Elec       q    Type
REMARK                         _______ _______ _______ _____ _____    ______ ____
ROOT
ATOM      1  N   UNL     1      34.816 -19.947 -20.856  0.00  0.00    +0.390 N 
ATOM      2  C   UNL     1      33.601 -21.521 -18.703  0.00  0.00    +0.000 C 
ATOM      3  C   UNL     1      32.794 -20.999 -19.896  0.00  0.00    -0.023 C 
ATOM      4  C   UNL     1      35.074 -21.668 -19.099  0.00  0.00    -0.023 C 
ATOM      5  C   UNL     1      33.415 -19.726 -20.475  0.00  0.00    -0.077 C 
ATOM      6  C   UNL     1      35.620 -20.373 -19.703  0.00  0.00    -0.077 C 
ATOM      7  H   UNL     1      34.839 -20.695 -21.549  0.00  0.00    -0.079 HD
ENDROOT
BRANCH   1   8
ATOM      8  C   UNL     1      35.381 -18.737 -21.455  0.00  0.00    -0.026 C 
ATOM      9  C   UNL     1      36.761 -18.504 -20.836  0.00  0.00    -0.020 C 
BRANCH   8  10
ATOM     10  C   UNL     1      34.420 -17.548 -21.226  0.00  0.00    +0.114 C 
BRANCH  10  11
ATOM     11  C   UNL     1      34.122 -16.756 -22.481  0.00  0.00    +0.002 C 
ATOM     12  C   UNL     1      34.194 -15.375 -22.441  0.00  0.00    +0.001 C 
ATOM     13  C   UNL     1      33.784 -17.432 -23.640  0.00  0.00    +0.001 C 
ATOM     14  C   UNL     1      33.919 -14.645 -23.597  0.00  0.00    +0.036 C 
ATOM     15  C   UNL     1      33.508 -16.703 -24.797  0.00  0.00    +0.036 C 
ATOM     16  C   UNL     1      33.576 -15.310 -24.775  0.00  0.00    +0.134 C 
BRANCH  16  17
ATOM     17  O   UNL     1      33.307 -14.597 -25.903  0.00  0.00    -0.506 OA
ATOM     18  H   UNL     1      33.840 -13.861 -26.131  0.00  0.00    +0.292 HD
ENDBRANCH  16  17
ENDBRANCH  10  11
BRANCH  10  19
ATOM     19  O   UNL     1      34.992 -16.634 -20.286  0.00  0.00    -0.382 OA
ATOM     20  H   UNL     1      35.413 -17.131 -19.566  0.00  0.00    +0.211 HD
ENDBRANCH  10  19
ENDBRANCH   8  10
ENDBRANCH   1   8
BRANCH   2  21
ATOM     21  C   UNL     1      33.035 -22.844 -18.194  0.00  0.00    +0.026 C 
BRANCH  21  22
ATOM     22  C   UNL     1      32.541 -22.728 -16.778  0.00  0.00    -0.022 C 
ATOM     23  C   UNL     1      33.437 -22.860 -15.726  0.00  0.00    -0.004 C 
ATOM     24  C   UNL     1      31.193 -22.489 -16.541  0.00  0.00    -0.004 C 
ATOM     25  C   UNL     1      32.979 -22.752 -14.414  0.00  0.00    -0.000 C 
ATOM     26  C   UNL     1      30.735 -22.381 -15.227  0.00  0.00    -0.000 C 
ATOM     27  C   UNL     1      31.627 -22.513 -14.164  0.00  0.00    -0.000 C 
ENDBRANCH  21  22
ENDBRANCH   2  21
TORSDOF 7
ENDMDL
MODEL 2
REMARK VINA RESULT:     -11.4      3.004      8.819
REMARK  Name = 3689
REMARK  7 active torsions:
REMARK  status: ('A' for Active; 'I' for Inactive)
REMARK    1  A    between atoms: N_1  and  C_8
REMARK    2  A    between atoms: C_2  and  C_21
REMARK    3  A    between atoms: C_8  and  C_10
REMARK    4  A    between atoms: C_10  and  C_11
REMARK    5  A    between atoms: C_10  and  O_19
REMARK    6  A    between atoms: C_16  and  O_17
REMARK    7  A    between atoms: C_21  and  C_22
REMARK                            x       y       z     vdW  Elec       q    Type
REMARK                         _______ _______ _______ _____ _____    ______ ____
ROOT
ATOM      1  N   UNL     1      35.050 -16.416 -22.035  0.00  0.00    +0.390 N 
ATOM      2  C   UNL     1      33.269 -14.354 -23.117  0.00  0.00    +0.000 C 
ATOM      3  C   UNL     1      34.014 -14.183 -21.789  0.00  0.00    -0.023 C 
ATOM      4  C   UNL     1      34.029 -15.339 -24.013  0.00  0.00    -0.023 C 
ATOM      5  C   UNL     1      34.298 -15.535 -21.131  0.00  0.00    -0.077 C 
ATOM      6  C   UNL     1      34.311 -16.653 -23.282  0.00  0.00    -0.077 C 
ATOM      7  H   UNL     1      35.926 -15.950 -22.271  0.00  0.00    -0.079 HD
ENDROOT
BRANCH   1   8
ATOM      8  C   UNL     1      35.358 -17.685 -21.373  0.00  0.00    -0.026 C 
ATOM      9  C   UNL     1      36.733 -18.149 -21.860  0.00  0.00    -0.020 C 
BRANCH   8  10
ATOM     10  C   UNL     1      34.244 -18.712 -21.676  0.00  0.00    +0.114 C 
BRANCH  10  11
ATOM     11  C   UNL     1      34.083 -19.769 -20.605  0.00  0.00    +0.002 C 
ATOM     12  C   UNL     1      32.811 -20.117 -20.186  0.00  0.00    +0.001 C 
ATOM     13  C   UNL     1      35.211 -20.363 -20.069  0.00  0.00    +0.001 C 
ATOM     14  C   UNL     1      32.663 -21.091 -19.199  0.00  0.00    +0.036 C 
ATOM     15  C   UNL     1      35.064 -21.337 -19.082  0.00  0.00    +0.036 C 
ATOM     16  C   UNL     1      33.789 -21.701 -18.646  0.00  0.00    +0.134 C 
BRANCH  16  17
ATOM     17  O   UNL     1      33.644 -22.651 -17.683  0.00  0.00    -0.506 OA
ATOM     18  H   UNL     1      33.579 -23.555 -17.922  0.00  0.00    +0.292 HD
ENDBRANCH  16  17
ENDBRANCH  10  11
BRANCH  10  19
ATOM     19  O   UNL     1      34.534 -19.399 -22.896  0.00  0.00    -0.382 OA
ATOM     20  H   UNL     1      35.018 -20.217 -22.699  0.00  0.00    +0.211 HD
ENDBRANCH  10  19
ENDBRANCH   8  10
ENDBRANCH   1   8
BRANCH   2  21
ATOM     21  C   UNL     1      33.078 -13.011 -23.816  0.00  0.00    +0.026 C 
BRANCH  21  22
ATOM     22  C   UNL     1      32.402 -12.010 -22.919  0.00  0.00    -0.022 C 
ATOM     23  C   UNL     1      31.740 -12.447 -21.780  0.00  0.00    -0.004 C 
ATOM     24  C   UNL     1      32.450 -10.660 -23.242  0.00  0.00    -0.004 C 
ATOM     25  C   UNL     1      31.114 -11.519 -20.949  0.00  0.00    -0.000 C 
ATOM     26  C   UNL     1      31.824  -9.731 -22.411  0.00  0.00    -0.000 C 
ATOM     27  C   UNL     1      31.156 -10.161 -21.265  0.00  0.00    -0.000 C 
ENDBRANCH  21  22
ENDBRANCH   2  21
TORSDOF 7
ENDMDL
MODEL 3
REMARK VINA RESULT:     -10.9      1.463      2.202
REMARK  Name = 3689
REMARK  7 active torsions:
REMARK  status: ('A' for Active; 'I' for Inactive)
REMARK    1  A    between atoms: N_1  and  C_8
REMARK    2  A    between atoms: C_2  and  C_21
REMARK    3  A    between atoms: C_8  and  C_10
REMARK    4  A    between atoms: C_10  and  C_11
REMARK    5  A    between atoms: C_10  and  O_19
REMARK    6  A    between atoms: C_16  and  O_17
REMARK    7  A    between atoms: C_21  and  C_22
REMARK                            x       y       z     vdW  Elec       q    Type
REMARK                         _______ _______ _______ _____ _____    ______ ____
ROOT
ATOM      1  N   UNL     1      34.061 -19.876 -21.190  0.00  0.00    +0.390 N 
ATOM      2  C   UNL     1      33.972 -21.303 -18.631  0.00  0.00    +0.000 C 
ATOM      3  C   UNL     1      32.782 -21.268 -19.595  0.00  0.00    -0.023 C 
ATOM      4  C   UNL     1      35.275 -21.091 -19.410  0.00  0.00    -0.023 C 
ATOM      5  C   UNL     1      32.797 -20.001 -20.453  0.00  0.00    -0.077 C 
ATOM      6  C   UNL     1      35.208 -19.829 -20.273  0.00  0.00    -0.077 C 
ATOM      7  H   UNL     1      34.164 -20.701 -21.781  0.00  0.00    -0.079 HD
ENDROOT
BRANCH   1   8
ATOM      8  C   UNL     1      34.040 -18.688 -22.045  0.00  0.00    -0.026 C 
ATOM      9  C   UNL     1      34.403 -19.123 -23.467  0.00  0.00    -0.020 C 
BRANCH   8  10
ATOM     10  C   UNL     1      35.013 -17.627 -21.483  0.00  0.00    +0.114 C 
BRANCH  10  11
ATOM     11  C   UNL     1      34.542 -16.203 -21.682  0.00  0.00    +0.002 C 
ATOM     12  C   UNL     1      34.537 -15.666 -22.956  0.00  0.00    +0.001 C 
ATOM     13  C   UNL     1      34.126 -15.471 -20.584  0.00  0.00    +0.001 C 
ATOM     14  C   UNL     1      34.103 -14.352 -23.140  0.00  0.00    +0.036 C 
ATOM     15  C   UNL     1      33.692 -14.157 -20.767  0.00  0.00    +0.036 C 
ATOM     16  C   UNL     1      33.681 -13.599 -22.045  0.00  0.00    +0.134 C 
BRANCH  16  17
ATOM     17  O   UNL     1      33.258 -12.317 -22.224  0.00  0.00    -0.506 OA
ATOM     18  H   UNL     1      33.492 -11.851 -23.003  0.00  0.00    +0.292 HD
ENDBRANCH  16  17
ENDBRANCH  10  11
BRANCH  10  19
ATOM     19  O   UNL     1      36.282 -17.738 -22.132  0.00  0.00    -0.382 OA
ATOM     20  H   UNL     1      36.663 -16.854 -22.252  0.00  0.00    +0.211 HD
ENDBRANCH  10  19
ENDBRANCH   8  10
ENDBRANCH   1   8
BRANCH   2  21
ATOM     21  C   UNL     1      34.007 -22.613 -17.850  0.00  0.00    +0.026 C 
BRANCH  21  22
ATOM     22  C   UNL     1      33.014 -22.612 -16.720  0.00  0.00    -0.022 C 
ATOM     23  C   UNL     1      31.660 -22.488 -16.997  0.00  0.00    -0.004 C 
ATOM     24  C   UNL     1      33.466 -22.737 -15.412  0.00  0.00    -0.004 C 
ATOM     25  C   UNL     1      30.740 -22.487 -15.949  0.00  0.00    -0.000 C 
ATOM     26  C   UNL     1      32.545 -22.736 -14.363  0.00  0.00    -0.000 C 
ATOM     27  C   UNL     1      31.183 -22.611 -14.632  0.00  0.00    -0.000 C 
ENDBRANCH  21  22
ENDBRANCH   2  21
TORSDOF 7
ENDMDL
MODEL 4
REMARK VINA RESULT:     -10.8      1.951      2.798
REMARK  Name = 3689
REMARK  7 active torsions:
REMARK  status: ('A' for Active; 'I' for Inactive)
REMARK    1  A    between atoms: N_1  and  C_8
REMARK    2  A    between atoms: C_2  and  C_21
REMARK    3  A    between atoms: C_8  and  C_10
REMARK    4  A    between atoms: C_10  and  C_11
REMARK    5  A    between atoms: C_10  and  O_19
REMARK    6  A    between atoms: C_16  and  O_17
REMARK    7  A    between atoms: C_21  and  C_22
REMARK                            x       y       z     vdW  Elec       q    Type
REMARK                         _______ _______ _______ _____ _____    ______ ____
ROOT
ATOM      1  N   UNL     1      33.974 -19.827 -21.299  0.00  0.00    +0.390 N 
ATOM      2  C   UNL     1      33.936 -21.114 -18.665  0.00  0.00    +0.000 C 
ATOM      3  C   UNL     1      32.669 -20.922 -19.505  0.00  0.00    -0.023 C 
ATOM      4  C   UNL     1      35.164 -21.152 -19.581  0.00  0.00    -0.023 C 
ATOM      5  C   UNL     1      32.794 -19.711 -20.433  0.00  0.00    -0.077 C 
ATOM      6  C   UNL     1      35.206 -19.933 -20.506  0.00  0.00    -0.077 C 
ATOM      7  H   UNL     1      33.879 -20.681 -21.848  0.00  0.00    -0.079 HD
ENDROOT
BRANCH   1   8
ATOM      8  C   UNL     1      34.051 -18.688 -22.214  0.00  0.00    -0.026 C 
ATOM      9  C   UNL     1      34.482 -19.213 -23.586  0.00  0.00    -0.020 C 
BRANCH   8  10
ATOM     10  C   UNL     1      35.029 -17.633 -21.650  0.00  0.00    +0.114 C 
BRANCH  10  11
ATOM     11  C   UNL     1      34.547 -16.208 -21.811  0.00  0.00    +0.002 C 
ATOM     12  C   UNL     1      34.521 -15.643 -23.073  0.00  0.00    +0.001 C 
ATOM     13  C   UNL     1      34.142 -15.502 -20.692  0.00  0.00    +0.001 C 
ATOM     14  C   UNL     1      34.076 -14.329 -23.222  0.00  0.00    +0.036 C 
ATOM     15  C   UNL     1      33.698 -14.188 -20.839  0.00  0.00    +0.036 C 
ATOM     16  C   UNL     1      33.665 -13.602 -22.104  0.00  0.00    +0.134 C 
BRANCH  16  17
ATOM     17  O   UNL     1      33.232 -12.320 -22.250  0.00  0.00    -0.506 OA
ATOM     18  H   UNL     1      33.711 -11.721 -22.789  0.00  0.00    +0.292 HD
ENDBRANCH  16  17
ENDBRANCH  10  11
BRANCH  10  19
ATOM     19  O   UNL     1      36.286 -17.724 -22.325  0.00  0.00    -0.382 OA
ATOM     20  H   UNL     1      36.986 -17.365 -21.756  0.00  0.00    +0.211 HD
ENDBRANCH  10  19
ENDBRANCH   8  10
ENDBRANCH   1   8
BRANCH   2  21
ATOM     21  C   UNL     1      33.845 -22.379 -17.816  0.00  0.00    +0.026 C 
BRANCH  21  22
ATOM     22  C   UNL     1      34.843 -22.366 -16.692  0.00  0.00    -0.022 C 
ATOM     23  C   UNL     1      36.083 -21.771 -16.882  0.00  0.00    -0.004 C 
ATOM     24  C   UNL     1      34.511 -22.948 -15.475  0.00  0.00    -0.004 C 
ATOM     25  C   UNL     1      37.008 -21.759 -15.839  0.00  0.00    -0.000 C 
ATOM     26  C   UNL     1      35.437 -22.935 -14.431  0.00  0.00    -0.000 C 
ATOM     27  C   UNL     1      36.685 -22.341 -14.614  0.00  0.00    -0.000 C 
ENDBRANCH  21  22
ENDBRANCH   2  21
TORSDOF 7
ENDMDL
MODEL 5
REMARK VINA RESULT:     -10.6      2.107      3.737
REMARK  Name = 3689
REMARK  7 active torsions:
REMARK  status: ('A' for Active; 'I' for Inactive)
REMARK    1  A    between atoms: N_1  and  C_8
REMARK    2  A    between atoms: C_2  and  C_21
REMARK    3  A    between atoms: C_8  and  C_10
REMARK    4  A    between atoms: C_10  and  C_11
REMARK    5  A    between atoms: C_10  and  O_19
REMARK    6  A    between atoms: C_16  and  O_17
REMARK    7  A    between atoms: C_21  and  C_22
REMARK                            x       y       z     vdW  Elec       q    Type
REMARK                         _______ _______ _______ _____ _____    ______ ____
ROOT
ATOM      1  N   UNL     1      34.494 -18.082 -22.551  0.00  0.00    +0.390 N 
ATOM      2  C   UNL     1      35.342 -19.663 -20.233  0.00  0.00    +0.000 C 
ATOM      3  C   UNL     1      34.320 -20.179 -21.251  0.00  0.00    -0.023 C 
ATOM      4  C   UNL     1      36.250 -18.620 -20.894  0.00  0.00    -0.023 C 
ATOM      5  C   UNL     1      33.565 -19.026 -21.917  0.00  0.00    -0.077 C 
ATOM      6  C   UNL     1      35.431 -17.518 -21.570  0.00  0.00    -0.077 C 
ATOM      7  H   UNL     1      35.037 -18.594 -23.247  0.00  0.00    -0.079 HD
ENDROOT
BRANCH   1   8
ATOM      8  C   UNL     1      33.756 -17.013 -23.226  0.00  0.00    -0.026 C 
ATOM      9  C   UNL     1      33.534 -17.439 -24.680  0.00  0.00    -0.020 C 
BRANCH   8  10
ATOM     10  C   UNL     1      34.540 -15.687 -23.110  0.00  0.00    +0.114 C 
BRANCH  10  11
ATOM     11  C   UNL     1      33.739 -14.557 -22.500  0.00  0.00    +0.002 C 
ATOM     12  C   UNL     1      33.731 -14.400 -21.126  0.00  0.00    +0.001 C 
ATOM     13  C   UNL     1      33.033 -13.706 -23.332  0.00  0.00    +0.001 C 
ATOM     14  C   UNL     1      32.993 -13.358 -20.564  0.00  0.00    +0.036 C 
ATOM     15  C   UNL     1      32.294 -12.665 -22.771  0.00  0.00    +0.036 C 
ATOM     16  C   UNL     1      32.274 -12.491 -21.387  0.00  0.00    +0.134 C 
BRANCH  16  17
ATOM     17  O   UNL     1      31.553 -11.475 -20.839  0.00  0.00    -0.506 OA
ATOM     18  H   UNL     1      30.744 -11.210 -21.230  0.00  0.00    +0.292 HD
ENDBRANCH  16  17
ENDBRANCH  10  11
BRANCH  10  19
ATOM     19  O   UNL     1      34.952 -15.249 -24.408  0.00  0.00    -0.382 OA
ATOM     20  H   UNL     1      35.617 -15.861 -24.761  0.00  0.00    +0.211 HD
ENDBRANCH  10  19
ENDBRANCH   8  10
ENDBRANCH   1   8
BRANCH   2  21
ATOM     21  C   UNL     1      36.160 -20.810 -19.647  0.00  0.00    +0.026 C 
BRANCH  21  22
ATOM     22  C   UNL     1      35.498 -21.400 -18.431  0.00  0.00    -0.022 C 
ATOM     23  C   UNL     1      34.181 -21.832 -18.510  0.00  0.00    -0.004 C 
ATOM     24  C   UNL     1      36.214 -21.504 -17.246  0.00  0.00    -0.004 C 
ATOM     25  C   UNL     1      33.568 -22.378 -17.383  0.00  0.00    -0.000 C 
ATOM     26  C   UNL     1      35.600 -22.051 -16.118  0.00  0.00    -0.000 C 
ATOM     27  C   UNL     1      34.278 -22.488 -16.187  0.00  0.00    -0.000 C 
ENDBRANCH  21  22
ENDBRANCH   2  21
TORSDOF 7
ENDMDL
MODEL 6
REMARK VINA RESULT:     -10.6      3.338      5.938
REMARK  Name = 3689
REMARK  7 active torsions:
REMARK  status: ('A' for Active; 'I' for Inactive)
REMARK    1  A    between atoms: N_1  and  C_8
REMARK    2  A    between atoms: C_2  and  C_21
REMARK    3  A    between atoms: C_8  and  C_10
REMARK    4  A    between atoms: C_10  and  C_11
REMARK    5  A    between atoms: C_10  and  O_19
REMARK    6  A    between atoms: C_16  and  O_17
REMARK    7  A    between atoms: C_21  and  C_22
REMARK                            x       y       z     vdW  Elec       q    Type
REMARK                         _______ _______ _______ _____ _____    ______ ____
ROOT
ATOM      1  N   UNL     1      33.902 -14.996 -23.311  0.00  0.00    +0.390 N 
ATOM      2  C   UNL     1      34.458 -17.604 -22.093  0.00  0.00    +0.000 C 
ATOM      3  C   UNL     1      34.473 -17.384 -23.609  0.00  0.00    -0.023 C 
ATOM      4  C   UNL     1      34.751 -16.281 -21.375  0.00  0.00    -0.023 C 
ATOM      5  C   UNL     1      33.548 -16.236 -24.015  0.00  0.00    -0.077 C 
ATOM      6  C   UNL     1      33.816 -15.170 -21.855  0.00  0.00    -0.077 C 
ATOM      7  H   UNL     1      34.868 -14.767 -23.544  0.00  0.00    -0.079 HD
ENDROOT
BRANCH   1   8
ATOM      8  C   UNL     1      33.042 -13.896 -23.747  0.00  0.00    -0.026 C 
ATOM      9  C   UNL     1      32.919 -13.969 -25.272  0.00  0.00    -0.020 C 
BRANCH   8  10
ATOM     10  C   UNL     1      33.631 -12.552 -23.264  0.00  0.00    +0.114 C 
BRANCH  10  11
ATOM     11  C   UNL     1      32.709 -11.777 -22.348  0.00  0.00    +0.002 C 
ATOM     12  C   UNL     1      32.419 -12.284 -21.094  0.00  0.00    +0.001 C 
ATOM     13  C   UNL     1      32.177 -10.577 -22.786  0.00  0.00    +0.001 C 
ATOM     14  C   UNL     1      31.569 -11.569 -20.250  0.00  0.00    +0.036 C 
ATOM     15  C   UNL     1      31.326  -9.861 -21.943  0.00  0.00    +0.036 C 
ATOM     16  C   UNL     1      31.023 -10.358 -20.675  0.00  0.00    +0.134 C 
BRANCH  16  17
ATOM     17  O   UNL     1      30.193  -9.660 -19.852  0.00  0.00    -0.506 OA
ATOM     18  H   UNL     1      29.316  -9.958 -19.709  0.00  0.00    +0.292 HD
ENDBRANCH  16  17
ENDBRANCH  10  11
BRANCH  10  19
ATOM     19  O   UNL     1      33.906 -11.709 -24.385  0.00  0.00    -0.382 OA
ATOM     20  H   UNL     1      34.739 -11.983 -24.800  0.00  0.00    +0.211 HD
ENDBRANCH  10  19
ENDBRANCH   8  10
ENDBRANCH   1   8
BRANCH   2  21
ATOM     21  C   UNL     1      35.458 -18.683 -21.684  0.00  0.00    +0.026 C 
BRANCH  21  22
ATOM     22  C   UNL     1      34.860 -19.649 -20.699  0.00  0.00    -0.022 C 
ATOM     23  C   UNL     1      35.694 -20.391 -19.874  0.00  0.00    -0.004 C 
ATOM     24  C   UNL     1      33.480 -19.785 -20.626  0.00  0.00    -0.004 C 
ATOM     25  C   UNL     1      35.139 -21.286 -18.960  0.00  0.00    -0.000 C 
ATOM     26  C   UNL     1      32.924 -20.681 -19.711  0.00  0.00    -0.000 C 
ATOM     27  C   UNL     1      33.754 -21.431 -18.879  0.00  0.00    -0.000 C 
ENDBRANCH  21  22
ENDBRANCH   2  21
TORSDOF 7
ENDMDL
MODEL 7
REMARK VINA RESULT:     -10.4      2.746      8.881
REMARK  Name = 3689
REMARK  7 active torsions:
REMARK  status: ('A' for Active; 'I' for Inactive)
REMARK    1  A    between atoms: N_1  and  C_8
REMARK    2  A    between atoms: C_2  and  C_21
REMARK    3  A    between atoms: C_8  and  C_10
REMARK    4  A    between atoms: C_10  and  C_11
REMARK    5  A    between atoms: C_10  and  O_19
REMARK    6  A    between atoms: C_16  and  O_17
REMARK    7  A    between atoms: C_21  and  C_22
REMARK                            x       y       z     vdW  Elec       q    Type
REMARK                         _______ _______ _______ _____ _____    ______ ____
ROOT
ATOM      1  N   UNL     1      34.729 -20.371 -20.093  0.00  0.00    +0.390 N 
ATOM      2  C   UNL     1      34.637 -18.080 -21.919  0.00  0.00    +0.000 C 
ATOM      3  C   UNL     1      35.954 -18.710 -21.455  0.00  0.00    -0.023 C 
ATOM      4  C   UNL     1      33.512 -19.119 -21.845  0.00  0.00    -0.023 C 
ATOM      5  C   UNL     1      35.803 -19.370 -20.083  0.00  0.00    -0.077 C 
ATOM      6  C   UNL     1      33.442 -19.765 -20.460  0.00  0.00    -0.077 C 
ATOM      7  H   UNL     1      34.958 -21.072 -20.796  0.00  0.00    -0.079 HD
ENDROOT
BRANCH   1   8
ATOM      8  C   UNL     1      34.631 -21.029 -18.789  0.00  0.00    -0.026 C 
ATOM      9  C   UNL     1      35.970 -21.713 -18.504  0.00  0.00    -0.020 C 
BRANCH   8  10
ATOM     10  C   UNL     1      33.447 -22.022 -18.797  0.00  0.00    +0.114 C 
BRANCH  10  11
ATOM     11  C   UNL     1      32.924 -22.357 -17.416  0.00  0.00    +0.002 C 
ATOM     12  C   UNL     1      33.816 -22.734 -16.430  0.00  0.00    +0.001 C 
ATOM     13  C   UNL     1      31.564 -22.277 -17.173  0.00  0.00    +0.001 C 
ATOM     14  C   UNL     1      33.334 -23.042 -15.157  0.00  0.00    +0.036 C 
ATOM     15  C   UNL     1      31.081 -22.585 -15.901  0.00  0.00    +0.036 C 
ATOM     16  C   UNL     1      31.966 -22.968 -14.894  0.00  0.00    +0.134 C 
BRANCH  16  17
ATOM     17  O   UNL     1      31.496 -23.269 -13.653  0.00  0.00    -0.506 OA
ATOM     18  H   UNL     1      30.591 -23.134 -13.448  0.00  0.00    +0.292 HD
ENDBRANCH  16  17
ENDBRANCH  10  11
BRANCH  10  19
ATOM     19  O   UNL     1      33.850 -23.256 -19.397  0.00  0.00    -0.382 OA
ATOM     20  H   UNL     1      34.790 -23.209 -19.634  0.00  0.00    +0.211 HD
ENDBRANCH  10  19
ENDBRANCH   8  10
ENDBRANCH   1   8
BRANCH   2  21
ATOM     21  C   UNL     1      34.767 -17.511 -23.330  0.00  0.00    +0.026 C 
BRANCH  21  22
ATOM     22  C   UNL     1      34.224 -16.111 -23.416  0.00  0.00    -0.022 C 
ATOM     23  C   UNL     1      33.626 -15.679 -24.592  0.00  0.00    -0.004 C 
ATOM     24  C   UNL     1      34.327 -15.269 -22.317  0.00  0.00    -0.004 C 
ATOM     25  C   UNL     1      33.123 -14.382 -24.672  0.00  0.00    -0.000 C 
ATOM     26  C   UNL     1      33.823 -13.970 -22.397  0.00  0.00    -0.000 C 
ATOM     27  C   UNL     1      33.221 -13.527 -23.574  0.00  0.00    -0.000 C 
ENDBRANCH  21  22
ENDBRANCH   2  21
TORSDOF 7
ENDMDL
MODEL 8
REMARK VINA RESULT:     -10.3      3.638      9.217
REMARK  Name = 3689
REMARK  7 active torsions:
REMARK  status: ('A' for Active; 'I' for Inactive)
REMARK    1  A    between atoms: N_1  and  C_8
REMARK    2  A    between atoms: C_2  and  C_21
REMARK    3  A    between atoms: C_8  and  C_10
REMARK    4  A    between atoms: C_10  and  C_11
REMARK    5  A    between atoms: C_10  and  O_19
REMARK    6  A    between atoms: C_16  and  O_17
REMARK    7  A    between atoms: C_21  and  C_22
REMARK                            x       y       z     vdW  Elec       q    Type
REMARK                         _______ _______ _______ _____ _____    ______ ____
ROOT
ATOM      1  N   UNL     1      34.109 -22.224 -18.157  0.00  0.00    +0.390 N 
ATOM      2  C   UNL     1      34.639 -20.105 -20.111  0.00  0.00    +0.000 C 
ATOM      3  C   UNL     1      35.760 -20.912 -19.449  0.00  0.00    -0.023 C 
ATOM      4  C   UNL     1      33.345 -20.926 -20.119  0.00  0.00    -0.023 C 
ATOM      5  C   UNL     1      35.338 -21.425 -18.070  0.00  0.00    -0.077 C 
ATOM      6  C   UNL     1      33.002 -21.438 -18.718  0.00  0.00    -0.077 C 
ATOM      7  H   UNL     1      34.287 -23.009 -18.784  0.00  0.00    -0.079 HD
ENDROOT
BRANCH   1   8
ATOM      8  C   UNL     1      33.747 -22.750 -16.840  0.00  0.00    -0.026 C 
ATOM      9  C   UNL     1      32.319 -22.294 -16.526  0.00  0.00    -0.020 C 
BRANCH   8  10
ATOM     10  C   UNL     1      34.769 -22.265 -15.788  0.00  0.00    +0.114 C 
BRANCH  10  11
ATOM     11  C   UNL     1      35.738 -23.337 -15.340  0.00  0.00    +0.002 C 
ATOM     12  C   UNL     1      35.266 -24.613 -15.092  0.00  0.00    +0.001 C 
ATOM     13  C   UNL     1      37.076 -23.017 -15.191  0.00  0.00    +0.001 C 
ATOM     14  C   UNL     1      36.159 -25.602 -14.679  0.00  0.00    +0.036 C 
ATOM     15  C   UNL     1      37.970 -24.005 -14.778  0.00  0.00    +0.036 C 
ATOM     16  C   UNL     1      37.512 -25.297 -14.522  0.00  0.00    +0.134 C 
BRANCH  16  17
ATOM     17  O   UNL     1      38.383 -26.262 -14.119  0.00  0.00    -0.506 OA
ATOM     18  H   UNL     1      38.906 -26.715 -14.752  0.00  0.00    +0.292 HD
ENDBRANCH  16  17
ENDBRANCH  10  11
BRANCH  10  19
ATOM     19  O   UNL     1      34.084 -21.811 -14.617  0.00  0.00    -0.382 OA
ATOM     20  H   UNL     1      34.152 -20.845 -14.556  0.00  0.00    +0.211 HD
ENDBRANCH  10  19
ENDBRANCH   8  10
ENDBRANCH   1   8
BRANCH   2  21
ATOM     21  C   UNL     1      35.029 -19.681 -21.525  0.00  0.00    +0.026 C 
BRANCH  21  22
ATOM     22  C   UNL     1      34.758 -18.221 -21.761  0.00  0.00    -0.022 C 
ATOM     23  C   UNL     1      34.705 -17.350 -20.681  0.00  0.00    -0.004 C 
ATOM     24  C   UNL     1      34.566 -17.762 -23.057  0.00  0.00    -0.004 C 
ATOM     25  C   UNL     1      34.454 -15.996 -20.901  0.00  0.00    -0.000 C 
ATOM     26  C   UNL     1      34.315 -16.407 -23.277  0.00  0.00    -0.000 C 
ATOM     27  C   UNL     1      34.259 -15.524 -22.199  0.00  0.00    -0.000 C 
ENDBRANCH  21  22
ENDBRANCH   2  21
TORSDOF 7
ENDMDL
MODEL 9
REMARK VINA RESULT:     -10.2      3.906      6.349
REMARK  Name = 3689
REMARK  7 active torsions:
REMARK  status: ('A' for Active; 'I' for Inactive)
REMARK    1  A    between atoms: N_1  and  C_8
REMARK    2  A    between atoms: C_2  and  C_21
REMARK    3  A    between atoms: C_8  and  C_10
REMARK    4  A    between atoms: C_10  and  C_11
REMARK    5  A    between atoms: C_10  and  O_19
REMARK    6  A    between atoms: C_16  and  O_17
REMARK    7  A    between atoms: C_21  and  C_22
REMARK                            x       y       z     vdW  Elec       q    Type
REMARK                         _______ _______ _______ _____ _____    ______ ____
ROOT
ATOM      1  N   UNL     1      33.565 -14.639 -22.080  0.00  0.00    +0.390 N 
ATOM      2  C   UNL     1      35.002 -17.168 -22.438  0.00  0.00    +0.000 C 
ATOM      3  C   UNL     1      34.277 -16.811 -21.136  0.00  0.00    -0.023 C 
ATOM      4  C   UNL     1      34.367 -16.411 -23.609  0.00  0.00    -0.023 C 
ATOM      5  C   UNL     1      34.208 -15.296 -20.935  0.00  0.00    -0.077 C 
ATOM      6  C   UNL     1      34.295 -14.909 -23.326  0.00  0.00    -0.077 C 
ATOM      7  H   UNL     1      32.625 -15.023 -22.177  0.00  0.00    -0.079 HD
ENDROOT
BRANCH   1   8
ATOM      8  C   UNL     1      33.460 -13.197 -21.851  0.00  0.00    -0.026 C 
ATOM      9  C   UNL     1      34.164 -12.877 -20.530  0.00  0.00    -0.020 C 
BRANCH   8  10
ATOM     10  C   UNL     1      31.973 -12.779 -21.847  0.00  0.00    +0.114 C 
BRANCH  10  11
ATOM     11  C   UNL     1      31.762 -11.280 -21.840  0.00  0.00    +0.002 C 
ATOM     12  C   UNL     1      31.148 -10.690 -20.750  0.00  0.00    +0.001 C 
ATOM     13  C   UNL     1      32.188 -10.534 -22.924  0.00  0.00    +0.001 C 
ATOM     14  C   UNL     1      30.953  -9.309 -20.743  0.00  0.00    +0.036 C 
ATOM     15  C   UNL     1      31.994  -9.153 -22.919  0.00  0.00    +0.036 C 
ATOM     16  C   UNL     1      31.376  -8.540 -21.828  0.00  0.00    +0.134 C 
BRANCH  16  17
ATOM     17  O   UNL     1      31.186  -7.193 -21.822  0.00  0.00    -0.506 OA
ATOM     18  H   UNL     1      30.754  -6.777 -22.543  0.00  0.00    +0.292 HD
ENDBRANCH  16  17
ENDBRANCH  10  11
BRANCH  10  19
ATOM     19  O   UNL     1      31.325 -13.293 -20.680  0.00  0.00    -0.382 OA
ATOM     20  H   UNL     1      31.450 -12.677 -19.941  0.00  0.00    +0.211 HD
ENDBRANCH  10  19
ENDBRANCH   8  10
ENDBRANCH   1   8
BRANCH   2  21
ATOM     21  C   UNL     1      34.980 -18.675 -22.682  0.00  0.00    +0.026 C 
BRANCH  21  22
ATOM     22  C   UNL     1      34.746 -19.441 -21.409  0.00  0.00    -0.022 C 
ATOM     23  C   UNL     1      33.448 -19.745 -21.020  0.00  0.00    -0.004 C 
ATOM     24  C   UNL     1      35.832 -19.834 -20.638  0.00  0.00    -0.004 C 
ATOM     25  C   UNL     1      33.232 -20.455 -19.840  0.00  0.00    -0.000 C 
ATOM     26  C   UNL     1      35.615 -20.545 -19.457  0.00  0.00    -0.000 C 
ATOM     27  C   UNL     1      34.316 -20.854 -19.058  0.00  0.00    -0.000 C 
ENDBRANCH  21  22
ENDBRANCH   2  21
TORSDOF 7
ENDMDL
