MODEL 1
REMARK VINA RESULT:     -12.4      0.000      0.000
REMARK  Name = 1944
REMARK  8 active torsions:
REMARK  status: ('A' for Active; 'I' for Inactive)
REMARK    1  A    between atoms: C_1  and  S_21
REMARK    2  A    between atoms: C_4  and  N_10
REMARK    3  A    between atoms: C_11  and  C_13
REMARK    4  A    between atoms: C_13  and  C_14
REMARK    5  A    between atoms: S_21  and  N_24
REMARK    6  A    between atoms: N_24  and  C_26
REMARK    7  A    between atoms: C_26  and  C_28
REMARK    8  A    between atoms: C_28  and  O_29
REMARK                            x       y       z     vdW  Elec       q    Type
REMARK                         _______ _______ _______ _____ _____    ______ ____
ROOT
ATOM      1  C   UNL     1      34.764 -22.408 -16.429  0.00  0.00    +0.114 C 
ATOM      2  C   UNL     1      35.981 -21.839 -16.807  0.00  0.00    -0.002 C 
ATOM      3  C   UNL     1      33.676 -22.367 -17.300  0.00  0.00    -0.002 C 
ATOM      4  C   UNL     1      35.019 -21.198 -18.908  0.00  0.00    +0.050 C 
ATOM      5  C   UNL     1      36.109 -21.230 -18.055  0.00  0.00    +0.012 C 
ATOM      6  C   UNL     1      33.803 -21.758 -18.548  0.00  0.00    +0.012 C 
ATOM      7  C   UNL     1      37.169 -21.865 -15.900  0.00  0.00    +0.032 C 
ATOM      8  C   UNL     1      32.357 -22.964 -16.930  0.00  0.00    +0.032 C 
ENDROOT
BRANCH   4  10
ATOM      9  O   UNL     1      33.104 -19.449 -20.418  0.00  0.00    -0.274 OA
ATOM     10  N   UNL     1      35.147 -20.581 -20.174  0.00  0.00    -0.284 N 
ATOM     11  C   UNL     1      34.215 -19.774 -20.824  0.00  0.00    +0.231 C 
ATOM     12  H   UNL     1      35.992 -20.739 -20.652  0.00  0.00    +0.155 HD
BRANCH  11  13
ATOM     13  C   UNL     1      34.748 -19.308 -22.176  0.00  0.00    +0.111 C 
BRANCH  13  14
ATOM     14  C   UNL     1      34.469 -17.872 -22.472  0.00  0.00    -0.017 C 
ATOM     15  C   UNL     1      33.853 -17.490 -23.665  0.00  0.00    -0.025 C 
ATOM     16  C   UNL     1      34.837 -16.905 -21.536  0.00  0.00    -0.004 C 
ATOM     17  C   UNL     1      33.604 -16.141 -23.921  0.00  0.00    -0.005 C 
ATOM     18  C   UNL     1      33.450 -18.509 -24.681  0.00  0.00    +0.031 C 
ATOM     19  C   UNL     1      34.588 -15.556 -21.793  0.00  0.00    -0.000 C 
ATOM     20  C   UNL     1      33.972 -15.175 -22.986  0.00  0.00    -0.000 C 
ENDBRANCH  13  14
ENDBRANCH  11  13
ENDBRANCH   4  10
BRANCH   1  21
ATOM     21  S   UNL     1      34.603 -23.174 -14.858  0.00  0.00    +0.060 S 
ATOM     22  O   UNL     1      35.453 -22.468 -13.913  0.00  0.00    -0.153 OA
ATOM     23  O   UNL     1      33.181 -23.312 -14.585  0.00  0.00    -0.153 OA
BRANCH  21  24
ATOM     24  N   UNL     1      35.262 -24.723 -15.144  0.00  0.00    -0.168 NA
ATOM     25  H   UNL     1      35.791 -24.661 -16.015  0.00  0.00    +0.149 HD
BRANCH  24  26
ATOM     26  C   UNL     1      36.151 -25.339 -14.150  0.00  0.00    +0.200 C 
BRANCH  26  28
ATOM     27  O   UNL     1      37.999 -26.895 -14.428  0.00  0.00    -0.249 OA
ATOM     28  C   UNL     1      36.943 -26.420 -14.820  0.00  0.00    +0.332 C 
BRANCH  28  29
ATOM     29  O   UNL     1      36.316 -26.817 -15.957  0.00  0.00    -0.479 OA
ATOM     30  H   UNL     1      35.509 -27.292 -15.905  0.00  0.00    +0.295 HD
ENDBRANCH  28  29
ENDBRANCH  26  28
ENDBRANCH  24  26
ENDBRANCH  21  24
ENDBRANCH   1  21
TORSDOF 8
ENDMDL
MODEL 2
REMARK VINA RESULT:     -12.3      0.143      1.664
REMARK  Name = 1944
REMARK  8 active torsions:
REMARK  status: ('A' for Active; 'I' for Inactive)
REMARK    1  A    between atoms: C_1  and  S_21
REMARK    2  A    between atoms: C_4  and  N_10
REMARK    3  A    between atoms: C_11  and  C_13
REMARK    4  A    between atoms: C_13  and  C_14
REMARK    5  A    between atoms: S_21  and  N_24
REMARK    6  A    between atoms: N_24  and  C_26
REMARK    7  A    between atoms: C_26  and  C_28
REMARK    8  A    between atoms: C_28  and  O_29
REMARK                            x       y       z     vdW  Elec       q    Type
REMARK                         _______ _______ _______ _____ _____    ______ ____
ROOT
ATOM      1  C   UNL     1      34.785 -22.400 -16.436  0.00  0.00    +0.114 C 
ATOM      2  C   UNL     1      33.686 -22.369 -17.295  0.00  0.00    -0.002 C 
ATOM      3  C   UNL     1      35.987 -21.805 -16.820  0.00  0.00    -0.002 C 
ATOM      4  C   UNL     1      34.990 -21.159 -18.904  0.00  0.00    +0.050 C 
ATOM      5  C   UNL     1      33.790 -21.744 -18.538  0.00  0.00    +0.012 C 
ATOM      6  C   UNL     1      36.091 -21.180 -18.062  0.00  0.00    +0.012 C 
ATOM      7  C   UNL     1      32.382 -22.994 -16.917  0.00  0.00    +0.032 C 
ATOM      8  C   UNL     1      37.185 -21.819 -15.927  0.00  0.00    +0.032 C 
ENDROOT
BRANCH   4  10
ATOM      9  O   UNL     1      32.965 -19.581 -20.459  0.00  0.00    -0.274 OA
ATOM     10  N   UNL     1      35.096 -20.524 -20.164  0.00  0.00    -0.284 N 
ATOM     11  C   UNL     1      34.112 -19.802 -20.836  0.00  0.00    +0.231 C 
ATOM     12  H   UNL     1      35.964 -20.602 -20.620  0.00  0.00    +0.155 HD
BRANCH  11  13
ATOM     13  C   UNL     1      34.636 -19.281 -22.171  0.00  0.00    +0.111 C 
BRANCH  13  14
ATOM     14  C   UNL     1      34.421 -17.818 -22.375  0.00  0.00    -0.017 C 
ATOM     15  C   UNL     1      33.900 -17.328 -23.573  0.00  0.00    -0.025 C 
ATOM     16  C   UNL     1      34.752 -16.936 -21.346  0.00  0.00    -0.004 C 
ATOM     17  C   UNL     1      33.710 -15.956 -23.742  0.00  0.00    -0.005 C 
ATOM     18  C   UNL     1      33.538 -18.254 -24.689  0.00  0.00    +0.031 C 
ATOM     19  C   UNL     1      34.561 -15.564 -21.516  0.00  0.00    -0.000 C 
ATOM     20  C   UNL     1      34.041 -15.075 -22.714  0.00  0.00    -0.000 C 
ENDBRANCH  13  14
ENDBRANCH  11  13
ENDBRANCH   4  10
BRANCH   1  21
ATOM     21  S   UNL     1      34.655 -23.186 -14.873  0.00  0.00    +0.060 S 
ATOM     22  O   UNL     1      35.500 -22.473 -13.928  0.00  0.00    -0.153 OA
ATOM     23  O   UNL     1      33.239 -23.356 -14.587  0.00  0.00    -0.153 OA
BRANCH  21  24
ATOM     24  N   UNL     1      35.343 -24.718 -15.182  0.00  0.00    -0.168 NA
ATOM     25  H   UNL     1      35.985 -24.599 -15.967  0.00  0.00    +0.149 HD
BRANCH  24  26
ATOM     26  C   UNL     1      36.088 -25.416 -14.126  0.00  0.00    +0.200 C 
BRANCH  26  28
ATOM     27  O   UNL     1      38.013 -26.890 -14.319  0.00  0.00    -0.249 OA
ATOM     28  C   UNL     1      36.960 -26.456 -14.761  0.00  0.00    +0.332 C 
BRANCH  28  29
ATOM     29  O   UNL     1      36.410 -26.868 -15.933  0.00  0.00    -0.479 OA
ATOM     30  H   UNL     1      36.169 -27.766 -16.048  0.00  0.00    +0.295 HD
ENDBRANCH  28  29
ENDBRANCH  26  28
ENDBRANCH  24  26
ENDBRANCH  21  24
ENDBRANCH   1  21
TORSDOF 8
ENDMDL
MODEL 3
REMARK VINA RESULT:     -11.8      1.528      2.122
REMARK  Name = 1944
REMARK  8 active torsions:
REMARK  status: ('A' for Active; 'I' for Inactive)
REMARK    1  A    between atoms: C_1  and  S_21
REMARK    2  A    between atoms: C_4  and  N_10
REMARK    3  A    between atoms: C_11  and  C_13
REMARK    4  A    between atoms: C_13  and  C_14
REMARK    5  A    between atoms: S_21  and  N_24
REMARK    6  A    between atoms: N_24  and  C_26
REMARK    7  A    between atoms: C_26  and  C_28
REMARK    8  A    between atoms: C_28  and  O_29
REMARK                            x       y       z     vdW  Elec       q    Type
REMARK                         _______ _______ _______ _____ _____    ______ ____
ROOT
ATOM      1  C   UNL     1      34.758 -22.488 -16.573  0.00  0.00    +0.114 C 
ATOM      2  C   UNL     1      35.997 -21.901 -16.831  0.00  0.00    -0.002 C 
ATOM      3  C   UNL     1      33.706 -22.324 -17.475  0.00  0.00    -0.002 C 
ATOM      4  C   UNL     1      35.130 -20.994 -18.875  0.00  0.00    +0.050 C 
ATOM      5  C   UNL     1      36.183 -21.149 -17.990  0.00  0.00    +0.012 C 
ATOM      6  C   UNL     1      33.893 -21.571 -18.634  0.00  0.00    +0.012 C 
ATOM      7  C   UNL     1      37.146 -22.057 -15.888  0.00  0.00    +0.032 C 
ATOM      8  C   UNL     1      32.366 -22.937 -17.232  0.00  0.00    +0.032 C 
ENDROOT
BRANCH   4  10
ATOM      9  O   UNL     1      33.134 -19.576 -20.610  0.00  0.00    -0.274 OA
ATOM     10  N   UNL     1      35.319 -20.231 -20.052  0.00  0.00    -0.284 N 
ATOM     11  C   UNL     1      34.344 -19.594 -20.816  0.00  0.00    +0.231 C 
ATOM     12  H   UNL     1      36.246 -20.140 -20.368  0.00  0.00    +0.155 HD
BRANCH  11  13
ATOM     13  C   UNL     1      34.969 -18.877 -22.008  0.00  0.00    +0.111 C 
BRANCH  13  14
ATOM     14  C   UNL     1      34.562 -17.446 -22.134  0.00  0.00    -0.017 C 
ATOM     15  C   UNL     1      34.086 -16.938 -23.344  0.00  0.00    -0.025 C 
ATOM     16  C   UNL     1      34.664 -16.612 -21.020  0.00  0.00    -0.004 C 
ATOM     17  C   UNL     1      33.712 -15.597 -23.439  0.00  0.00    -0.005 C 
ATOM     18  C   UNL     1      33.967 -17.812 -24.550  0.00  0.00    +0.031 C 
ATOM     19  C   UNL     1      34.290 -15.272 -21.116  0.00  0.00    -0.000 C 
ATOM     20  C   UNL     1      33.815 -14.764 -22.325  0.00  0.00    -0.000 C 
ENDBRANCH  13  14
ENDBRANCH  11  13
ENDBRANCH   4  10
BRANCH   1  21
ATOM     21  S   UNL     1      34.522 -23.435 -15.114  0.00  0.00    +0.060 S 
ATOM     22  O   UNL     1      33.094 -23.624 -14.914  0.00  0.00    -0.153 OA
ATOM     23  O   UNL     1      35.397 -24.594 -15.200  0.00  0.00    -0.153 OA
BRANCH  21  24
ATOM     24  N   UNL     1      35.114 -22.385 -13.905  0.00  0.00    -0.168 NA
ATOM     25  H   UNL     1      34.321 -21.826 -13.586  0.00  0.00    +0.149 HD
BRANCH  24  26
ATOM     26  C   UNL     1      35.755 -22.936 -12.703  0.00  0.00    +0.200 C 
BRANCH  26  28
ATOM     27  O   UNL     1      34.851 -24.547 -11.121  0.00  0.00    -0.249 OA
ATOM     28  C   UNL     1      34.704 -23.576 -11.849  0.00  0.00    +0.332 C 
BRANCH  28  29
ATOM     29  O   UNL     1      33.525 -22.917 -11.992  0.00  0.00    -0.479 OA
ATOM     30  H   UNL     1      33.426 -22.053 -11.643  0.00  0.00    +0.295 HD
ENDBRANCH  28  29
ENDBRANCH  26  28
ENDBRANCH  24  26
ENDBRANCH  21  24
ENDBRANCH   1  21
TORSDOF 8
ENDMDL
MODEL 4
REMARK VINA RESULT:     -11.5      1.405      2.417
REMARK  Name = 1944
REMARK  8 active torsions:
REMARK  status: ('A' for Active; 'I' for Inactive)
REMARK    1  A    between atoms: C_1  and  S_21
REMARK    2  A    between atoms: C_4  and  N_10
REMARK    3  A    between atoms: C_11  and  C_13
REMARK    4  A    between atoms: C_13  and  C_14
REMARK    5  A    between atoms: S_21  and  N_24
REMARK    6  A    between atoms: N_24  and  C_26
REMARK    7  A    between atoms: C_26  and  C_28
REMARK    8  A    between atoms: C_28  and  O_29
REMARK                            x       y       z     vdW  Elec       q    Type
REMARK                         _______ _______ _______ _____ _____    ______ ____
ROOT
ATOM      1  C   UNL     1      34.805 -22.475 -16.393  0.00  0.00    +0.114 C 
ATOM      2  C   UNL     1      33.726 -22.401 -17.275  0.00  0.00    -0.002 C 
ATOM      3  C   UNL     1      36.023 -21.888 -16.732  0.00  0.00    -0.002 C 
ATOM      4  C   UNL     1      35.083 -21.162 -18.816  0.00  0.00    +0.050 C 
ATOM      5  C   UNL     1      33.866 -21.740 -18.494  0.00  0.00    +0.012 C 
ATOM      6  C   UNL     1      36.164 -21.227 -17.952  0.00  0.00    +0.012 C 
ATOM      7  C   UNL     1      32.405 -23.017 -16.945  0.00  0.00    +0.032 C 
ATOM      8  C   UNL     1      37.201 -21.948 -15.814  0.00  0.00    +0.032 C 
ENDROOT
BRANCH   4  10
ATOM      9  O   UNL     1      33.094 -19.570 -20.402  0.00  0.00    -0.274 OA
ATOM     10  N   UNL     1      35.226 -20.491 -20.054  0.00  0.00    -0.284 N 
ATOM     11  C   UNL     1      34.257 -19.764 -20.742  0.00  0.00    +0.231 C 
ATOM     12  H   UNL     1      36.112 -20.543 -20.478  0.00  0.00    +0.155 HD
BRANCH  11  13
ATOM     13  C   UNL     1      34.823 -19.198 -22.041  0.00  0.00    +0.111 C 
BRANCH  13  14
ATOM     14  C   UNL     1      34.516 -17.753 -22.255  0.00  0.00    -0.017 C 
ATOM     15  C   UNL     1      34.016 -17.297 -23.475  0.00  0.00    -0.025 C 
ATOM     16  C   UNL     1      34.738 -16.853 -21.212  0.00  0.00    -0.004 C 
ATOM     17  C   UNL     1      33.738 -15.941 -23.653  0.00  0.00    -0.005 C 
ATOM     18  C   UNL     1      33.770 -18.243 -24.605  0.00  0.00    +0.031 C 
ATOM     19  C   UNL     1      34.459 -15.497 -21.391  0.00  0.00    -0.000 C 
ATOM     20  C   UNL     1      33.960 -15.042 -22.611  0.00  0.00    -0.000 C 
ENDBRANCH  13  14
ENDBRANCH  11  13
ENDBRANCH   4  10
BRANCH   1  21
ATOM     21  S   UNL     1      34.628 -23.308 -14.858  0.00  0.00    +0.060 S 
ATOM     22  O   UNL     1      33.284 -23.071 -14.358  0.00  0.00    -0.153 OA
ATOM     23  O   UNL     1      35.097 -24.672 -15.046  0.00  0.00    -0.153 OA
BRANCH  21  24
ATOM     24  N   UNL     1      35.741 -22.474 -13.867  0.00  0.00    -0.168 NA
ATOM     25  H   UNL     1      35.464 -21.491 -13.876  0.00  0.00    +0.149 HD
BRANCH  24  26
ATOM     26  C   UNL     1      35.900 -22.856 -12.457  0.00  0.00    +0.200 C 
BRANCH  26  28
ATOM     27  O   UNL     1      38.086 -23.700 -13.107  0.00  0.00    -0.249 OA
ATOM     28  C   UNL     1      37.153 -23.666 -12.319  0.00  0.00    +0.332 C 
BRANCH  28  29
ATOM     29  O   UNL     1      37.117 -24.382 -11.166  0.00  0.00    -0.479 OA
ATOM     30  H   UNL     1      37.697 -24.167 -10.462  0.00  0.00    +0.295 HD
ENDBRANCH  28  29
ENDBRANCH  26  28
ENDBRANCH  24  26
ENDBRANCH  21  24
ENDBRANCH   1  21
TORSDOF 8
ENDMDL
MODEL 5
REMARK VINA RESULT:     -11.4      1.707      2.864
REMARK  Name = 1944
REMARK  8 active torsions:
REMARK  status: ('A' for Active; 'I' for Inactive)
REMARK    1  A    between atoms: C_1  and  S_21
REMARK    2  A    between atoms: C_4  and  N_10
REMARK    3  A    between atoms: C_11  and  C_13
REMARK    4  A    between atoms: C_13  and  C_14
REMARK    5  A    between atoms: S_21  and  N_24
REMARK    6  A    between atoms: N_24  and  C_26
REMARK    7  A    between atoms: C_26  and  C_28
REMARK    8  A    between atoms: C_28  and  O_29
REMARK                            x       y       z     vdW  Elec       q    Type
REMARK                         _______ _______ _______ _____ _____    ______ ____
ROOT
ATOM      1  C   UNL     1      34.889 -22.363 -16.489  0.00  0.00    +0.114 C 
ATOM      2  C   UNL     1      36.071 -21.726 -16.868  0.00  0.00    -0.002 C 
ATOM      3  C   UNL     1      33.787 -22.354 -17.343  0.00  0.00    -0.002 C 
ATOM      4  C   UNL     1      35.046 -21.080 -18.938  0.00  0.00    +0.050 C 
ATOM      5  C   UNL     1      36.149 -21.080 -18.102  0.00  0.00    +0.012 C 
ATOM      6  C   UNL     1      33.865 -21.708 -18.576  0.00  0.00    +0.012 C 
ATOM      7  C   UNL     1      37.272 -21.716 -15.980  0.00  0.00    +0.032 C 
ATOM      8  C   UNL     1      32.504 -23.025 -16.970  0.00  0.00    +0.032 C 
ENDROOT
BRANCH   4  10
ATOM      9  O   UNL     1      32.943 -19.613 -20.497  0.00  0.00    -0.274 OA
ATOM     10  N   UNL     1      35.125 -20.424 -20.190  0.00  0.00    -0.284 N 
ATOM     11  C   UNL     1      34.104 -19.757 -20.864  0.00  0.00    +0.231 C 
ATOM     12  H   UNL     1      36.001 -20.442 -20.637  0.00  0.00    +0.155 HD
BRANCH  11  13
ATOM     13  C   UNL     1      34.608 -19.188 -22.187  0.00  0.00    +0.111 C 
BRANCH  13  14
ATOM     14  C   UNL     1      34.401 -17.716 -22.330  0.00  0.00    -0.017 C 
ATOM     15  C   UNL     1      33.976 -17.164 -23.539  0.00  0.00    -0.025 C 
ATOM     16  C   UNL     1      34.641 -16.890 -21.232  0.00  0.00    -0.004 C 
ATOM     17  C   UNL     1      33.791 -15.786 -23.650  0.00  0.00    -0.005 C 
ATOM     18  C   UNL     1      33.713 -18.030 -24.728  0.00  0.00    +0.031 C 
ATOM     19  C   UNL     1      34.456 -15.511 -21.344  0.00  0.00    -0.000 C 
ATOM     20  C   UNL     1      34.032 -14.960 -22.553  0.00  0.00    -0.000 C 
ENDBRANCH  13  14
ENDBRANCH  11  13
ENDBRANCH   4  10
BRANCH   1  21
ATOM     21  S   UNL     1      34.790 -23.176 -14.937  0.00  0.00    +0.060 S 
ATOM     22  O   UNL     1      34.766 -24.611 -15.170  0.00  0.00    -0.153 OA
ATOM     23  O   UNL     1      35.815 -22.603 -14.078  0.00  0.00    -0.153 OA
BRANCH  21  24
ATOM     24  N   UNL     1      33.257 -22.683 -14.370  0.00  0.00    -0.168 NA
ATOM     25  H   UNL     1      32.646 -22.626 -15.186  0.00  0.00    +0.149 HD
BRANCH  24  26
ATOM     26  C   UNL     1      32.549 -23.491 -13.366  0.00  0.00    +0.200 C 
BRANCH  26  28
ATOM     27  O   UNL     1      30.589 -22.225 -14.050  0.00  0.00    -0.249 OA
ATOM     28  C   UNL     1      31.103 -23.100 -13.370  0.00  0.00    +0.332 C 
BRANCH  28  29
ATOM     29  O   UNL     1      30.413 -23.869 -12.488  0.00  0.00    -0.479 OA
ATOM     30  H   UNL     1      30.869 -24.477 -11.940  0.00  0.00    +0.295 HD
ENDBRANCH  28  29
ENDBRANCH  26  28
ENDBRANCH  24  26
ENDBRANCH  21  24
ENDBRANCH   1  21
TORSDOF 8
ENDMDL
MODEL 6
REMARK VINA RESULT:     -11.0      4.125     10.344
REMARK  Name = 1944
REMARK  8 active torsions:
REMARK  status: ('A' for Active; 'I' for Inactive)
REMARK    1  A    between atoms: C_1  and  S_21
REMARK    2  A    between atoms: C_4  and  N_10
REMARK    3  A    between atoms: C_11  and  C_13
REMARK    4  A    between atoms: C_13  and  C_14
REMARK    5  A    between atoms: S_21  and  N_24
REMARK    6  A    between atoms: N_24  and  C_26
REMARK    7  A    between atoms: C_26  and  C_28
REMARK    8  A    between atoms: C_28  and  O_29
REMARK                            x       y       z     vdW  Elec       q    Type
REMARK                         _______ _______ _______ _____ _____    ______ ____
ROOT
ATOM      1  C   UNL     1      34.100 -17.013 -23.261  0.00  0.00    +0.114 C 
ATOM      2  C   UNL     1      34.165 -18.388 -23.488  0.00  0.00    -0.002 C 
ATOM      3  C   UNL     1      34.506 -16.489 -22.034  0.00  0.00    -0.002 C 
ATOM      4  C   UNL     1      35.034 -18.702 -21.276  0.00  0.00    +0.050 C 
ATOM      5  C   UNL     1      34.635 -19.238 -22.488  0.00  0.00    +0.012 C 
ATOM      6  C   UNL     1      34.976 -17.339 -21.034  0.00  0.00    +0.012 C 
ATOM      7  C   UNL     1      33.740 -18.985 -24.791  0.00  0.00    +0.032 C 
ATOM      8  C   UNL     1      34.450 -15.022 -21.755  0.00  0.00    +0.032 C 
ENDROOT
BRANCH   4  10
ATOM      9  O   UNL     1      33.643 -20.906 -19.786  0.00  0.00    -0.274 OA
ATOM     10  N   UNL     1      35.512 -19.564 -20.260  0.00  0.00    -0.284 N 
ATOM     11  C   UNL     1      34.811 -20.575 -19.605  0.00  0.00    +0.231 C 
ATOM     12  H   UNL     1      36.447 -19.436 -19.984  0.00  0.00    +0.155 HD
BRANCH  11  13
ATOM     13  C   UNL     1      35.695 -21.270 -18.574  0.00  0.00    +0.111 C 
BRANCH  13  14
ATOM     14  C   UNL     1      34.938 -21.871 -17.437  0.00  0.00    -0.017 C 
ATOM     15  C   UNL     1      35.529 -22.026 -16.182  0.00  0.00    -0.025 C 
ATOM     16  C   UNL     1      33.621 -22.283 -17.642  0.00  0.00    -0.004 C 
ATOM     17  C   UNL     1      34.803 -22.592 -15.134  0.00  0.00    -0.005 C 
ATOM     18  C   UNL     1      36.938 -21.592 -15.938  0.00  0.00    +0.031 C 
ATOM     19  C   UNL     1      32.896 -22.849 -16.593  0.00  0.00    -0.000 C 
ATOM     20  C   UNL     1      33.487 -23.004 -15.340  0.00  0.00    -0.000 C 
ENDBRANCH  13  14
ENDBRANCH  11  13
ENDBRANCH   4  10
BRANCH   1  21
ATOM     21  S   UNL     1      33.507 -15.943 -24.520  0.00  0.00    +0.060 S 
ATOM     22  O   UNL     1      34.640 -15.495 -25.314  0.00  0.00    -0.153 OA
ATOM     23  O   UNL     1      32.392 -16.611 -25.171  0.00  0.00    -0.153 OA
BRANCH  21  24
ATOM     24  N   UNL     1      32.909 -14.623 -23.617  0.00  0.00    -0.168 NA
ATOM     25  H   UNL     1      33.571 -14.461 -22.858  0.00  0.00    +0.149 HD
BRANCH  24  26
ATOM     26  C   UNL     1      32.686 -13.326 -24.271  0.00  0.00    +0.200 C 
BRANCH  26  28
ATOM     27  O   UNL     1      31.921 -12.132 -22.295  0.00  0.00    -0.249 OA
ATOM     28  C   UNL     1      32.704 -12.253 -23.225  0.00  0.00    +0.332 C 
BRANCH  28  29
ATOM     29  O   UNL     1      33.739 -11.403 -23.452  0.00  0.00    -0.479 OA
ATOM     30  H   UNL     1      33.579 -10.485 -23.551  0.00  0.00    +0.295 HD
ENDBRANCH  28  29
ENDBRANCH  26  28
ENDBRANCH  24  26
ENDBRANCH  21  24
ENDBRANCH   1  21
TORSDOF 8
ENDMDL
MODEL 7
REMARK VINA RESULT:     -11.0      5.594     10.872
REMARK  Name = 1944
REMARK  8 active torsions:
REMARK  status: ('A' for Active; 'I' for Inactive)
REMARK    1  A    between atoms: C_1  and  S_21
REMARK    2  A    between atoms: C_4  and  N_10
REMARK    3  A    between atoms: C_11  and  C_13
REMARK    4  A    between atoms: C_13  and  C_14
REMARK    5  A    between atoms: S_21  and  N_24
REMARK    6  A    between atoms: N_24  and  C_26
REMARK    7  A    between atoms: C_26  and  C_28
REMARK    8  A    between atoms: C_28  and  O_29
REMARK                            x       y       z     vdW  Elec       q    Type
REMARK                         _______ _______ _______ _____ _____    ______ ____
ROOT
ATOM      1  C   UNL     1      33.484 -14.078 -22.566  0.00  0.00    +0.114 C 
ATOM      2  C   UNL     1      33.847 -15.164 -23.363  0.00  0.00    -0.002 C 
ATOM      3  C   UNL     1      33.620 -14.154 -21.180  0.00  0.00    -0.002 C 
ATOM      4  C   UNL     1      34.475 -16.385 -21.396  0.00  0.00    +0.050 C 
ATOM      5  C   UNL     1      34.346 -16.325 -22.773  0.00  0.00    +0.012 C 
ATOM      6  C   UNL     1      34.119 -15.315 -20.590  0.00  0.00    +0.012 C 
ATOM      7  C   UNL     1      33.717 -15.118 -24.851  0.00  0.00    +0.032 C 
ATOM      8  C   UNL     1      33.240 -13.012 -20.294  0.00  0.00    +0.032 C 
ENDROOT
BRANCH   4  10
ATOM      9  O   UNL     1      36.783 -18.129 -22.192  0.00  0.00    -0.274 OA
ATOM     10  N   UNL     1      34.981 -17.563 -20.798  0.00  0.00    -0.284 N 
ATOM     11  C   UNL     1      36.064 -18.331 -21.219  0.00  0.00    +0.231 C 
ATOM     12  H   UNL     1      34.515 -17.876 -19.990  0.00  0.00    +0.155 HD
BRANCH  11  13
ATOM     13  C   UNL     1      36.279 -19.523 -20.291  0.00  0.00    +0.111 C 
BRANCH  13  14
ATOM     14  C   UNL     1      35.013 -20.178 -19.847  0.00  0.00    -0.017 C 
ATOM     15  C   UNL     1      35.004 -21.070 -18.774  0.00  0.00    -0.025 C 
ATOM     16  C   UNL     1      33.828 -19.887 -20.522  0.00  0.00    -0.004 C 
ATOM     17  C   UNL     1      33.810 -21.672 -18.377  0.00  0.00    -0.005 C 
ATOM     18  C   UNL     1      36.261 -21.396 -18.035  0.00  0.00    +0.031 C 
ATOM     19  C   UNL     1      32.634 -20.489 -20.124  0.00  0.00    -0.000 C 
ATOM     20  C   UNL     1      32.625 -21.382 -19.053  0.00  0.00    -0.000 C 
ENDBRANCH  13  14
ENDBRANCH  11  13
ENDBRANCH   4  10
BRANCH   1  21
ATOM     21  S   UNL     1      32.856 -12.616 -23.307  0.00  0.00    +0.060 S 
ATOM     22  O   UNL     1      33.872 -11.580 -23.215  0.00  0.00    -0.153 OA
ATOM     23  O   UNL     1      32.318 -12.984 -24.608  0.00  0.00    -0.153 OA
BRANCH  21  24
ATOM     24  N   UNL     1      31.562 -12.214 -22.269  0.00  0.00    -0.168 NA
ATOM     25  H   UNL     1      31.945 -12.172 -21.323  0.00  0.00    +0.149 HD
BRANCH  24  26
ATOM     26  C   UNL     1      30.811 -10.968 -22.478  0.00  0.00    +0.200 C 
BRANCH  26  28
ATOM     27  O   UNL     1      31.217  -9.705 -20.440  0.00  0.00    -0.249 OA
ATOM     28  C   UNL     1      31.420  -9.893 -21.630  0.00  0.00    +0.332 C 
BRANCH  28  29
ATOM     29  O   UNL     1      32.255  -9.128 -22.381  0.00  0.00    -0.479 OA
ATOM     30  H   UNL     1      32.361  -8.219 -22.183  0.00  0.00    +0.295 HD
ENDBRANCH  28  29
ENDBRANCH  26  28
ENDBRANCH  24  26
ENDBRANCH  21  24
ENDBRANCH   1  21
TORSDOF 8
ENDMDL
MODEL 8
REMARK VINA RESULT:     -10.9      5.584     11.055
REMARK  Name = 1944
REMARK  8 active torsions:
REMARK  status: ('A' for Active; 'I' for Inactive)
REMARK    1  A    between atoms: C_1  and  S_21
REMARK    2  A    between atoms: C_4  and  N_10
REMARK    3  A    between atoms: C_11  and  C_13
REMARK    4  A    between atoms: C_13  and  C_14
REMARK    5  A    between atoms: S_21  and  N_24
REMARK    6  A    between atoms: N_24  and  C_26
REMARK    7  A    between atoms: C_26  and  C_28
REMARK    8  A    between atoms: C_28  and  O_29
REMARK                            x       y       z     vdW  Elec       q    Type
REMARK                         _______ _______ _______ _____ _____    ______ ____
ROOT
ATOM      1  C   UNL     1      33.412 -14.177 -22.773  0.00  0.00    +0.114 C 
ATOM      2  C   UNL     1      33.520 -14.170 -21.382  0.00  0.00    -0.002 C 
ATOM      3  C   UNL     1      33.832 -15.292 -23.499  0.00  0.00    -0.002 C 
ATOM      4  C   UNL     1      34.459 -16.376 -21.453  0.00  0.00    +0.050 C 
ATOM      5  C   UNL     1      34.048 -15.277 -20.718  0.00  0.00    +0.012 C 
ATOM      6  C   UNL     1      34.359 -16.399 -22.835  0.00  0.00    +0.012 C 
ATOM      7  C   UNL     1      33.080 -12.995 -20.571  0.00  0.00    +0.032 C 
ATOM      8  C   UNL     1      33.733 -15.335 -24.989  0.00  0.00    +0.032 C 
ENDROOT
BRANCH   4  10
ATOM      9  O   UNL     1      36.710 -18.207 -22.219  0.00  0.00    -0.274 OA
ATOM     10  N   UNL     1      34.995 -17.500 -20.780  0.00  0.00    -0.284 N 
ATOM     11  C   UNL     1      36.048 -18.313 -21.192  0.00  0.00    +0.231 C 
ATOM     12  H   UNL     1      34.575 -17.735 -19.922  0.00  0.00    +0.155 HD
BRANCH  11  13
ATOM     13  C   UNL     1      36.312 -19.419 -20.174  0.00  0.00    +0.111 C 
BRANCH  13  14
ATOM     14  C   UNL     1      35.086 -20.169 -19.768  0.00  0.00    -0.017 C 
ATOM     15  C   UNL     1      35.123 -21.093 -18.722  0.00  0.00    -0.025 C 
ATOM     16  C   UNL     1      33.893 -19.937 -20.451  0.00  0.00    -0.004 C 
ATOM     17  C   UNL     1      33.966 -21.784 -18.360  0.00  0.00    -0.005 C 
ATOM     18  C   UNL     1      36.390 -21.357 -17.975  0.00  0.00    +0.031 C 
ATOM     19  C   UNL     1      32.736 -20.629 -20.089  0.00  0.00    -0.000 C 
ATOM     20  C   UNL     1      32.774 -21.553 -19.044  0.00  0.00    -0.000 C 
ENDBRANCH  13  14
ENDBRANCH  11  13
ENDBRANCH   4  10
BRANCH   1  21
ATOM     21  S   UNL     1      32.749 -12.784 -23.609  0.00  0.00    +0.060 S 
ATOM     22  O   UNL     1      33.062 -12.904 -25.024  0.00  0.00    -0.153 OA
ATOM     23  O   UNL     1      31.364 -12.642 -23.188  0.00  0.00    -0.153 OA
BRANCH  21  24
ATOM     24  N   UNL     1      33.660 -11.501 -22.948  0.00  0.00    -0.168 NA
ATOM     25  H   UNL     1      34.640 -11.784 -22.987  0.00  0.00    +0.149 HD
BRANCH  24  26
ATOM     26  C   UNL     1      33.583 -10.160 -23.546  0.00  0.00    +0.200 C 
BRANCH  26  28
ATOM     27  O   UNL     1      31.854  -8.453 -23.464  0.00  0.00    -0.249 OA
ATOM     28  C   UNL     1      32.364  -9.469 -23.016  0.00  0.00    +0.332 C 
BRANCH  28  29
ATOM     29  O   UNL     1      31.883 -10.139 -21.937  0.00  0.00    -0.479 OA
ATOM     30  H   UNL     1      32.433 -10.284 -21.193  0.00  0.00    +0.295 HD
ENDBRANCH  28  29
ENDBRANCH  26  28
ENDBRANCH  24  26
ENDBRANCH  21  24
ENDBRANCH   1  21
TORSDOF 8
ENDMDL
MODEL 9
REMARK VINA RESULT:     -10.7      6.717     11.024
REMARK  Name = 1944
REMARK  8 active torsions:
REMARK  status: ('A' for Active; 'I' for Inactive)
REMARK    1  A    between atoms: C_1  and  S_21
REMARK    2  A    between atoms: C_4  and  N_10
REMARK    3  A    between atoms: C_11  and  C_13
REMARK    4  A    between atoms: C_13  and  C_14
REMARK    5  A    between atoms: S_21  and  N_24
REMARK    6  A    between atoms: N_24  and  C_26
REMARK    7  A    between atoms: C_26  and  C_28
REMARK    8  A    between atoms: C_28  and  O_29
REMARK                            x       y       z     vdW  Elec       q    Type
REMARK                         _______ _______ _______ _____ _____    ______ ____
ROOT
ATOM      1  C   UNL     1      33.458 -14.224 -23.553  0.00  0.00    +0.114 C 
ATOM      2  C   UNL     1      33.022 -13.270 -24.473  0.00  0.00    -0.002 C 
ATOM      3  C   UNL     1      33.545 -13.899 -22.199  0.00  0.00    -0.002 C 
ATOM      4  C   UNL     1      32.766 -11.684 -22.691  0.00  0.00    +0.050 C 
ATOM      5  C   UNL     1      32.674 -11.991 -24.038  0.00  0.00    +0.012 C 
ATOM      6  C   UNL     1      33.197 -12.620 -21.765  0.00  0.00    +0.012 C 
ATOM      7  C   UNL     1      32.915 -13.582 -25.930  0.00  0.00    +0.032 C 
ATOM      8  C   UNL     1      34.009 -14.894 -21.185  0.00  0.00    +0.032 C 
ENDROOT
BRANCH   4  10
ATOM      9  O   UNL     1      30.162 -10.638 -21.629  0.00  0.00    -0.274 OA
ATOM     10  N   UNL     1      32.412 -10.387 -22.250  0.00  0.00    -0.284 N 
ATOM     11  C   UNL     1      31.177  -9.963 -21.764  0.00  0.00    +0.231 C 
ATOM     12  H   UNL     1      33.120  -9.705 -22.291  0.00  0.00    +0.155 HD
BRANCH  11  13
ATOM     13  C   UNL     1      31.217  -8.483 -21.395  0.00  0.00    +0.111 C 
BRANCH  13  14
ATOM     14  C   UNL     1      31.316  -7.570 -22.573  0.00  0.00    -0.017 C 
ATOM     15  C   UNL     1      32.393  -6.694 -22.714  0.00  0.00    -0.025 C 
ATOM     16  C   UNL     1      30.310  -7.600 -23.539  0.00  0.00    -0.004 C 
ATOM     17  C   UNL     1      32.463  -5.848 -23.821  0.00  0.00    -0.005 C 
ATOM     18  C   UNL     1      33.481  -6.644 -21.692  0.00  0.00    +0.031 C 
ATOM     19  C   UNL     1      30.382  -6.755 -24.646  0.00  0.00    -0.000 C 
ATOM     20  C   UNL     1      31.458  -5.878 -24.786  0.00  0.00    -0.000 C 
ENDBRANCH  13  14
ENDBRANCH  11  13
ENDBRANCH   4  10
BRANCH   1  21
ATOM     21  S   UNL     1      33.897 -15.833 -24.098  0.00  0.00    +0.060 S 
ATOM     22  O   UNL     1      32.704 -16.664 -24.086  0.00  0.00    -0.153 OA
ATOM     23  O   UNL     1      34.657 -15.684 -25.330  0.00  0.00    -0.153 OA
BRANCH  21  24
ATOM     24  N   UNL     1      34.949 -16.358 -22.861  0.00  0.00    -0.168 NA
ATOM     25  H   UNL     1      34.593 -15.969 -21.987  0.00  0.00    +0.149 HD
BRANCH  24  26
ATOM     26  C   UNL     1      35.157 -17.795 -22.632  0.00  0.00    +0.200 C 
BRANCH  26  28
ATOM     27  O   UNL     1      36.015 -18.047 -20.371  0.00  0.00    -0.249 OA
ATOM     28  C   UNL     1      36.205 -17.965 -21.575  0.00  0.00    +0.332 C 
BRANCH  28  29
ATOM     29  O   UNL     1      37.436 -18.018 -22.148  0.00  0.00    -0.479 OA
ATOM     30  H   UNL     1      37.520 -18.205 -23.062  0.00  0.00    +0.295 HD
ENDBRANCH  28  29
ENDBRANCH  26  28
ENDBRANCH  24  26
ENDBRANCH  21  24
ENDBRANCH   1  21
TORSDOF 8
ENDMDL
