MODEL 1
REMARK VINA RESULT:     -12.7      0.000      0.000
REMARK  Name = 11406590
REMARK  3 active torsions:
REMARK  status: ('A' for Active; 'I' for Inactive)
REMARK    1  A    between atoms: N_2  and  C_16
REMARK    2  A    between atoms: C_12  and  O_21
REMARK    3  A    between atoms: O_21  and  C_24
REMARK                            x       y       z     vdW  Elec       q    Type
REMARK                         _______ _______ _______ _____ _____    ______ ____
ROOT
ATOM      1  O   UNL     1      34.030 -16.153 -25.371  0.00  0.00    -0.266 OA
ATOM      2  N   UNL     1      31.717 -10.783 -21.373  0.00  0.00    -0.270 N 
ATOM      3  N   UNL     1      32.471 -12.544 -22.730  0.00  0.00    -0.322 NA
ATOM      4  N   UNL     1      33.247 -14.357 -24.114  0.00  0.00    -0.225 N 
ATOM      5  N   UNL     1      32.822 -12.579 -20.348  0.00  0.00    -0.170 NA
ATOM      6  C   UNL     1      32.369 -12.030 -21.488  0.00  0.00    +0.146 C 
ATOM      7  C   UNL     1      33.097 -13.741 -22.835  0.00  0.00    +0.204 C 
ATOM      8  C   UNL     1      33.604 -14.399 -21.723  0.00  0.00    +0.068 C 
ATOM      9  C   UNL     1      33.437 -13.768 -20.500  0.00  0.00    +0.116 C 
ATOM     10  C   UNL     1      34.272 -15.681 -21.853  0.00  0.00    +0.048 C 
ATOM     11  C   UNL     1      33.882 -15.589 -24.286  0.00  0.00    +0.289 C 
ATOM     12  C   UNL     1      34.410 -16.253 -23.055  0.00  0.00    +0.199 C 
ATOM     13  C   UNL     1      32.704 -13.643 -25.266  0.00  0.00    +0.123 C 
ATOM     14  H   UNL     1      31.626 -10.380 -20.480  0.00  0.00    +0.159 HD
ENDROOT
BRANCH   2  16
ATOM     15  O   UNL     1      32.110  -7.333 -22.506  0.00  0.00    -0.354 OA
ATOM     16  C   UNL     1      31.178 -10.071 -22.514  0.00  0.00    +0.084 C 
ATOM     17  C   UNL     1      30.309  -8.902 -22.047  0.00  0.00    +0.052 C 
ATOM     18  C   UNL     1      32.320  -9.580 -23.407  0.00  0.00    +0.052 C 
ATOM     19  C   UNL     1      31.145  -7.732 -21.535  0.00  0.00    +0.144 C 
ATOM     20  C   UNL     1      33.037  -8.377 -22.803  0.00  0.00    +0.144 C 
ENDBRANCH   2  16
BRANCH  12  21
ATOM     21  O   UNL     1      35.037 -17.469 -23.227  0.00  0.00    -0.447 OA
BRANCH  21  24
ATOM     22  F   UNL     1      37.314 -17.837 -21.725  0.00  0.00    -0.201 F 
ATOM     23  F   UNL     1      35.018 -20.899 -18.940  0.00  0.00    -0.204 F 
ATOM     24  C   UNL     1      35.033 -18.323 -22.160  0.00  0.00    +0.173 C 
ATOM     25  C   UNL     1      36.193 -18.499 -21.409  0.00  0.00    +0.177 C 
ATOM     26  C   UNL     1      33.869 -19.011 -21.830  0.00  0.00    +0.042 C 
ATOM     27  C   UNL     1      36.187 -19.370 -20.320  0.00  0.00    +0.062 C 
ATOM     28  C   UNL     1      33.864 -19.883 -20.741  0.00  0.00    +0.033 C 
ATOM     29  C   UNL     1      35.023 -20.062 -19.986  0.00  0.00    +0.143 C 
ENDBRANCH  21  24
ENDBRANCH  12  21
TORSDOF 3
ENDMDL
MODEL 2
REMARK VINA RESULT:     -12.4      3.600      8.728
REMARK  Name = 11406590
REMARK  3 active torsions:
REMARK  status: ('A' for Active; 'I' for Inactive)
REMARK    1  A    between atoms: N_2  and  C_16
REMARK    2  A    between atoms: C_12  and  O_21
REMARK    3  A    between atoms: O_21  and  C_24
REMARK                            x       y       z     vdW  Elec       q    Type
REMARK                         _______ _______ _______ _____ _____    ______ ____
ROOT
ATOM      1  O   UNL     1      32.511 -12.451 -25.743  0.00  0.00    -0.266 OA
ATOM      2  N   UNL     1      34.773 -16.890 -20.709  0.00  0.00    -0.270 N 
ATOM      3  N   UNL     1      34.029 -15.447 -22.403  0.00  0.00    -0.322 NA
ATOM      4  N   UNL     1      33.265 -13.957 -24.137  0.00  0.00    -0.225 N 
ATOM      5  N   UNL     1      34.028 -14.752 -20.099  0.00  0.00    -0.170 NA
ATOM      6  C   UNL     1      34.251 -15.634 -21.087  0.00  0.00    +0.146 C 
ATOM      7  C   UNL     1      33.529 -14.240 -22.762  0.00  0.00    +0.204 C 
ATOM      8  C   UNL     1      33.260 -13.253 -21.824  0.00  0.00    +0.068 C 
ATOM      9  C   UNL     1      33.531 -13.566 -20.501  0.00  0.00    +0.116 C 
ATOM     10  C   UNL     1      32.724 -11.966 -22.225  0.00  0.00    +0.048 C 
ATOM     11  C   UNL     1      32.750 -12.733 -24.567  0.00  0.00    +0.289 C 
ATOM     12  C   UNL     1      32.480 -11.707 -23.514  0.00  0.00    +0.199 C 
ATOM     13  C   UNL     1      33.556 -15.013 -25.102  0.00  0.00    +0.123 C 
ATOM     14  H   UNL     1      34.947 -17.059 -19.755  0.00  0.00    +0.159 HD
ENDROOT
BRANCH   2  16
ATOM     15  O   UNL     1      35.123 -20.506 -20.329  0.00  0.00    -0.354 OA
ATOM     16  C   UNL     1      35.062 -17.941 -21.664  0.00  0.00    +0.084 C 
ATOM     17  C   UNL     1      36.366 -18.650 -21.293  0.00  0.00    +0.052 C 
ATOM     18  C   UNL     1      33.897 -18.932 -21.716  0.00  0.00    +0.052 C 
ATOM     19  C   UNL     1      36.191 -19.589 -20.103  0.00  0.00    +0.144 C 
ATOM     20  C   UNL     1      33.871 -19.842 -20.492  0.00  0.00    +0.144 C 
ENDBRANCH   2  16
BRANCH  12  21
ATOM     21  O   UNL     1      31.970 -10.499 -23.943  0.00  0.00    -0.447 OA
BRANCH  21  24
ATOM     22  F   UNL     1      30.119 -10.111 -21.944  0.00  0.00    -0.201 F 
ATOM     23  F   UNL     1      32.442  -6.248 -20.500  0.00  0.00    -0.204 F 
ATOM     24  C   UNL     1      32.087  -9.441 -23.086  0.00  0.00    +0.173 C 
ATOM     25  C   UNL     1      31.142  -9.257 -22.079  0.00  0.00    +0.177 C 
ATOM     26  C   UNL     1      33.150  -8.553 -23.224  0.00  0.00    +0.042 C 
ATOM     27  C   UNL     1      31.263  -8.177 -21.204  0.00  0.00    +0.062 C 
ATOM     28  C   UNL     1      33.270  -7.472 -22.350  0.00  0.00    +0.033 C 
ATOM     29  C   UNL     1      32.327  -7.286 -21.340  0.00  0.00    +0.143 C 
ENDBRANCH  21  24
ENDBRANCH  12  21
TORSDOF 3
ENDMDL
MODEL 3
REMARK VINA RESULT:     -11.6      6.514     11.318
REMARK  Name = 11406590
REMARK  3 active torsions:
REMARK  status: ('A' for Active; 'I' for Inactive)
REMARK    1  A    between atoms: N_2  and  C_16
REMARK    2  A    between atoms: C_12  and  O_21
REMARK    3  A    between atoms: O_21  and  C_24
REMARK                            x       y       z     vdW  Elec       q    Type
REMARK                         _______ _______ _______ _____ _____    ______ ____
ROOT
ATOM      1  O   UNL     1      32.130 -21.657 -19.888  0.00  0.00    -0.266 OA
ATOM      2  N   UNL     1      36.318 -22.513 -14.241  0.00  0.00    -0.270 N 
ATOM      3  N   UNL     1      34.901 -22.244 -16.092  0.00  0.00    -0.322 NA
ATOM      4  N   UNL     1      33.454 -21.965 -17.998  0.00  0.00    -0.225 N 
ATOM      5  N   UNL     1      37.195 -21.519 -16.175  0.00  0.00    -0.170 NA
ATOM      6  C   UNL     1      36.131 -22.069 -15.568  0.00  0.00    +0.146 C 
ATOM      7  C   UNL     1      34.726 -21.817 -17.366  0.00  0.00    +0.204 C 
ATOM      8  C   UNL     1      35.756 -21.234 -18.088  0.00  0.00    +0.068 C 
ATOM      9  C   UNL     1      36.975 -21.110 -17.440  0.00  0.00    +0.116 C 
ATOM     10  C   UNL     1      35.552 -20.782 -19.452  0.00  0.00    +0.048 C 
ATOM     11  C   UNL     1      33.212 -21.545 -19.308  0.00  0.00    +0.289 C 
ATOM     12  C   UNL     1      34.358 -20.923 -20.039  0.00  0.00    +0.199 C 
ATOM     13  C   UNL     1      32.387 -22.581 -17.215  0.00  0.00    +0.123 C 
ATOM     14  H   UNL     1      37.205 -22.400 -13.828  0.00  0.00    +0.159 HD
ENDROOT
BRANCH   2  16
ATOM     15  O   UNL     1      36.341 -25.251 -11.824  0.00  0.00    -0.354 OA
ATOM     16  C   UNL     1      35.262 -23.124 -13.459  0.00  0.00    +0.084 C 
ATOM     17  C   UNL     1      35.120 -24.602 -13.825  0.00  0.00    +0.052 C 
ATOM     18  C   UNL     1      35.555 -22.956 -11.967  0.00  0.00    +0.052 C 
ATOM     19  C   UNL     1      36.241 -25.452 -13.232  0.00  0.00    +0.144 C 
ATOM     20  C   UNL     1      36.657 -23.899 -11.495  0.00  0.00    +0.144 C 
ENDBRANCH   2  16
BRANCH  12  21
ATOM     21  O   UNL     1      34.115 -20.510 -21.333  0.00  0.00    -0.447 OA
BRANCH  21  24
ATOM     22  F   UNL     1      34.072 -19.595 -23.929  0.00  0.00    -0.201 F 
ATOM     23  F   UNL     1      34.916 -15.188 -22.422  0.00  0.00    -0.204 F 
ATOM     24  C   UNL     1      34.315 -19.185 -21.605  0.00  0.00    +0.173 C 
ATOM     25  C   UNL     1      34.290 -18.737 -22.923  0.00  0.00    +0.177 C 
ATOM     26  C   UNL     1      34.541 -18.292 -20.562  0.00  0.00    +0.042 C 
ATOM     27  C   UNL     1      34.494 -17.385 -23.199  0.00  0.00    +0.062 C 
ATOM     28  C   UNL     1      34.745 -16.940 -20.838  0.00  0.00    +0.033 C 
ATOM     29  C   UNL     1      34.720 -16.487 -22.156  0.00  0.00    +0.143 C 
ENDBRANCH  21  24
ENDBRANCH  12  21
TORSDOF 3
ENDMDL
MODEL 4
REMARK VINA RESULT:     -11.0      1.425      2.525
REMARK  Name = 11406590
REMARK  3 active torsions:
REMARK  status: ('A' for Active; 'I' for Inactive)
REMARK    1  A    between atoms: N_2  and  C_16
REMARK    2  A    between atoms: C_12  and  O_21
REMARK    3  A    between atoms: O_21  and  C_24
REMARK                            x       y       z     vdW  Elec       q    Type
REMARK                         _______ _______ _______ _____ _____    ______ ____
ROOT
ATOM      1  O   UNL     1      34.980 -16.736 -20.469  0.00  0.00    -0.266 OA
ATOM      2  N   UNL     1      32.292 -11.045 -23.717  0.00  0.00    -0.270 N 
ATOM      3  N   UNL     1      33.182 -12.911 -22.607  0.00  0.00    -0.322 NA
ATOM      4  N   UNL     1      34.096 -14.833 -21.476  0.00  0.00    -0.225 N 
ATOM      5  N   UNL     1      32.704 -12.986 -24.966  0.00  0.00    -0.170 NA
ATOM      6  C   UNL     1      32.748 -12.380 -23.768  0.00  0.00    +0.146 C 
ATOM      7  C   UNL     1      33.619 -14.193 -22.660  0.00  0.00    +0.204 C 
ATOM      8  C   UNL     1      33.618 -14.915 -23.845  0.00  0.00    +0.068 C 
ATOM      9  C   UNL     1      33.149 -14.258 -24.971  0.00  0.00    +0.116 C 
ATOM     10  C   UNL     1      34.090 -16.287 -23.884  0.00  0.00    +0.048 C 
ATOM     11  C   UNL     1      34.559 -16.150 -21.468  0.00  0.00    +0.289 C 
ATOM     12  C   UNL     1      34.536 -16.881 -22.772  0.00  0.00    +0.199 C 
ATOM     13  C   UNL     1      34.084 -14.049 -20.244  0.00  0.00    +0.123 C 
ATOM     14  H   UNL     1      31.969 -10.626 -24.548  0.00  0.00    +0.159 HD
ENDROOT
BRANCH   2  16
ATOM     15  O   UNL     1      30.751  -7.840 -22.885  0.00  0.00    -0.354 OA
ATOM     16  C   UNL     1      32.278 -10.265 -22.496  0.00  0.00    +0.084 C 
ATOM     17  C   UNL     1      32.933  -8.903 -22.730  0.00  0.00    +0.052 C 
ATOM     18  C   UNL     1      30.839 -10.101 -22.000  0.00  0.00    +0.052 C 
ATOM     19  C   UNL     1      32.026  -7.955 -23.511  0.00  0.00    +0.144 C 
ATOM     20  C   UNL     1      30.063  -9.089 -22.836  0.00  0.00    +0.144 C 
ENDBRANCH   2  16
BRANCH  12  21
ATOM     21  O   UNL     1      34.994 -18.182 -22.760  0.00  0.00    -0.447 OA
BRANCH  21  24
ATOM     22  F   UNL     1      36.801 -19.236 -20.971  0.00  0.00    -0.201 F 
ATOM     23  F   UNL     1      33.284 -21.374 -18.633  0.00  0.00    -0.204 F 
ATOM     24  C   UNL     1      34.569 -18.977 -21.733  0.00  0.00    +0.173 C 
ATOM     25  C   UNL     1      35.495 -19.503 -20.835  0.00  0.00    +0.177 C 
ATOM     26  C   UNL     1      33.213 -19.256 -21.590  0.00  0.00    +0.042 C 
ATOM     27  C   UNL     1      35.060 -20.314 -19.787  0.00  0.00    +0.062 C 
ATOM     28  C   UNL     1      32.778 -20.067 -20.541  0.00  0.00    +0.033 C 
ATOM     29  C   UNL     1      33.701 -20.595 -19.640  0.00  0.00    +0.143 C 
ENDBRANCH  21  24
ENDBRANCH  12  21
TORSDOF 3
ENDMDL
MODEL 5
REMARK VINA RESULT:     -10.1      3.883      8.866
REMARK  Name = 11406590
REMARK  3 active torsions:
REMARK  status: ('A' for Active; 'I' for Inactive)
REMARK    1  A    between atoms: N_2  and  C_16
REMARK    2  A    between atoms: C_12  and  O_21
REMARK    3  A    between atoms: O_21  and  C_24
REMARK                            x       y       z     vdW  Elec       q    Type
REMARK                         _______ _______ _______ _____ _____    ______ ____
ROOT
ATOM      1  O   UNL     1      32.257 -10.563 -24.248  0.00  0.00    -0.266 OA
ATOM      2  N   UNL     1      34.488 -16.385 -20.890  0.00  0.00    -0.270 N 
ATOM      3  N   UNL     1      33.768 -14.467 -22.034  0.00  0.00    -0.322 NA
ATOM      4  N   UNL     1      33.025 -12.494 -23.201  0.00  0.00    -0.225 N 
ATOM      5  N   UNL     1      33.030 -14.916 -19.787  0.00  0.00    -0.170 NA
ATOM      6  C   UNL     1      33.724 -15.198 -20.903  0.00  0.00    +0.146 C 
ATOM      7  C   UNL     1      33.034 -13.328 -22.042  0.00  0.00    +0.204 C 
ATOM      8  C   UNL     1      32.279 -12.940 -20.945  0.00  0.00    +0.068 C 
ATOM      9  C   UNL     1      32.315 -13.776 -19.840  0.00  0.00    +0.116 C 
ATOM     10  C   UNL     1      31.497 -11.717 -20.970  0.00  0.00    +0.048 C 
ATOM     11  C   UNL     1      32.288 -11.309 -23.269  0.00  0.00    +0.289 C 
ATOM     12  C   UNL     1      31.494 -10.939 -22.058  0.00  0.00    +0.199 C 
ATOM     13  C   UNL     1      33.828 -12.927 -24.341  0.00  0.00    +0.123 C 
ATOM     14  H   UNL     1      34.478 -16.942 -20.078  0.00  0.00    +0.159 HD
ENDROOT
BRANCH   2  16
ATOM     15  O   UNL     1      34.744 -19.599 -22.606  0.00  0.00    -0.354 OA
ATOM     16  C   UNL     1      35.285 -16.819 -22.020  0.00  0.00    +0.084 C 
ATOM     17  C   UNL     1      36.224 -17.951 -21.601  0.00  0.00    +0.052 C 
ATOM     18  C   UNL     1      34.369 -17.263 -23.162  0.00  0.00    +0.052 C 
ATOM     19  C   UNL     1      35.488 -19.278 -21.433  0.00  0.00    +0.144 C 
ATOM     20  C   UNL     1      33.740 -18.625 -22.889  0.00  0.00    +0.144 C 
ENDBRANCH   2  16
BRANCH  12  21
ATOM     21  O   UNL     1      30.767  -9.768 -22.129  0.00  0.00    -0.447 OA
BRANCH  21  24
ATOM     22  F   UNL     1      32.053  -7.701 -23.412  0.00  0.00    -0.201 F 
ATOM     23  F   UNL     1      32.683  -5.486 -19.277  0.00  0.00    -0.204 F 
ATOM     24  C   UNL     1      31.244  -8.702 -21.420  0.00  0.00    +0.173 C 
ATOM     25  C   UNL     1      31.893  -7.663 -22.083  0.00  0.00    +0.177 C 
ATOM     26  C   UNL     1      31.079  -8.661 -20.038  0.00  0.00    +0.042 C 
ATOM     27  C   UNL     1      32.380  -6.576 -21.358  0.00  0.00    +0.062 C 
ATOM     28  C   UNL     1      31.565  -7.573 -19.313  0.00  0.00    +0.033 C 
ATOM     29  C   UNL     1      32.215  -6.531 -19.973  0.00  0.00    +0.143 C 
ENDBRANCH  21  24
ENDBRANCH  12  21
TORSDOF 3
ENDMDL
MODEL 6
REMARK VINA RESULT:      -9.8     10.728     12.591
REMARK  Name = 11406590
REMARK  3 active torsions:
REMARK  status: ('A' for Active; 'I' for Inactive)
REMARK    1  A    between atoms: N_2  and  C_16
REMARK    2  A    between atoms: C_12  and  O_21
REMARK    3  A    between atoms: O_21  and  C_24
REMARK                            x       y       z     vdW  Elec       q    Type
REMARK                         _______ _______ _______ _____ _____    ______ ____
ROOT
ATOM      1  O   UNL     1      35.123 -23.556 -11.906  0.00  0.00    -0.266 OA
ATOM      2  N   UNL     1      30.113 -23.233 -16.901  0.00  0.00    -0.270 N 
ATOM      3  N   UNL     1      31.747 -23.356 -15.222  0.00  0.00    -0.322 NA
ATOM      4  N   UNL     1      33.432 -23.478 -13.504  0.00  0.00    -0.225 N 
ATOM      5  N   UNL     1      32.285 -22.514 -17.412  0.00  0.00    -0.170 NA
ATOM      6  C   UNL     1      31.448 -23.023 -16.493  0.00  0.00    +0.146 C 
ATOM      7  C   UNL     1      33.030 -23.153 -14.834  0.00  0.00    +0.204 C 
ATOM      8  C   UNL     1      33.979 -22.631 -15.701  0.00  0.00    +0.068 C 
ATOM      9  C   UNL     1      33.549 -22.328 -16.983  0.00  0.00    +0.116 C 
ATOM     10  C   UNL     1      35.349 -22.420 -15.270  0.00  0.00    +0.048 C 
ATOM     11  C   UNL     1      34.738 -23.291 -13.046  0.00  0.00    +0.289 C 
ATOM     12  C   UNL     1      35.720 -22.726 -14.021  0.00  0.00    +0.199 C 
ATOM     13  C   UNL     1      32.412 -24.025 -12.613  0.00  0.00    +0.123 C 
ATOM     14  H   UNL     1      29.860 -23.000 -17.824  0.00  0.00    +0.159 HD
ENDROOT
BRANCH   2  16
ATOM     15  O   UNL     1      27.152 -21.740 -15.370  0.00  0.00    -0.354 OA
ATOM     16  C   UNL     1      29.098 -23.778 -16.021  0.00  0.00    +0.084 C 
ATOM     17  C   UNL     1      29.098 -23.030 -14.687  0.00  0.00    +0.052 C 
ATOM     18  C   UNL     1      27.727 -23.694 -16.695  0.00  0.00    +0.052 C 
ATOM     19  C   UNL     1      28.456 -21.650 -14.801  0.00  0.00    +0.144 C 
ATOM     20  C   UNL     1      27.179 -22.271 -16.694  0.00  0.00    +0.144 C 
ENDBRANCH   2  16
BRANCH  12  21
ATOM     21  O   UNL     1      37.009 -22.543 -13.567  0.00  0.00    -0.447 OA
BRANCH  21  24
ATOM     22  F   UNL     1      38.463 -22.619 -15.903  0.00  0.00    -0.201 F 
ATOM     23  F   UNL     1      40.569 -26.618 -14.496  0.00  0.00    -0.204 F 
ATOM     24  C   UNL     1      37.896 -23.557 -13.799  0.00  0.00    +0.173 C 
ATOM     25  C   UNL     1      38.624 -23.582 -14.986  0.00  0.00    +0.177 C 
ATOM     26  C   UNL     1      38.065 -24.558 -12.847  0.00  0.00    +0.042 C 
ATOM     27  C   UNL     1      39.528 -24.618 -15.221  0.00  0.00    +0.062 C 
ATOM     28  C   UNL     1      38.969 -25.594 -13.083  0.00  0.00    +0.033 C 
ATOM     29  C   UNL     1      39.701 -25.623 -14.270  0.00  0.00    +0.143 C 
ENDBRANCH  21  24
ENDBRANCH  12  21
TORSDOF 3
ENDMDL
