MODEL 1
REMARK VINA RESULT:     -12.7      0.000      0.000
REMARK  Name = 11697697
REMARK  7 active torsions:
REMARK  status: ('A' for Active; 'I' for Inactive)
REMARK    1  A    between atoms: N_2  and  C_14
REMARK    2  A    between atoms: C_8  and  C_32
REMARK    3  A    between atoms: C_13  and  O_19
REMARK    4  A    between atoms: O_19  and  C_20
REMARK    5  A    between atoms: C_20  and  C_21
REMARK    6  A    between atoms: C_21  and  C_22
REMARK    7  A    between atoms: C_22  and  N_23
REMARK                            x       y       z     vdW  Elec       q    Type
REMARK                         _______ _______ _______ _____ _____    ______ ____
ROOT
ATOM      1  O   UNL     1      34.125 -15.730 -20.679  0.00  0.00    -0.273 OA
ATOM      2  N   UNL     1      34.264 -17.311 -22.419  0.00  0.00    -0.215 N 
ATOM      3  N   UNL     1      33.764 -16.620 -24.641  0.00  0.00    -0.394 NA
ATOM      4  C   UNL     1      33.586 -14.999 -22.821  0.00  0.00    +0.156 C 
ATOM      5  C   UNL     1      33.996 -16.043 -21.860  0.00  0.00    +0.245 C 
ATOM      6  C   UNL     1      34.099 -17.539 -23.788  0.00  0.00    +0.170 C 
ATOM      7  C   UNL     1      33.510 -15.326 -24.174  0.00  0.00    +0.123 C 
ATOM      8  C   UNL     1      33.302 -13.699 -22.383  0.00  0.00    +0.064 C 
ATOM      9  C   UNL     1      33.147 -14.334 -25.093  0.00  0.00    +0.028 C 
ATOM     10  C   UNL     1      32.940 -12.721 -23.308  0.00  0.00    +0.001 C 
ATOM     11  C   UNL     1      34.255 -18.936 -24.352  0.00  0.00    +0.084 C 
ATOM     12  C   UNL     1      32.863 -13.037 -24.663  0.00  0.00    +0.002 C 
ENDROOT
BRANCH   2  14
ATOM     13  C   UNL     1      35.693 -20.293 -19.806  0.00  0.00    +0.139 C 
ATOM     14  C   UNL     1      34.751 -18.329 -21.530  0.00  0.00    +0.060 C 
ATOM     15  C   UNL     1      36.570 -19.341 -20.324  0.00  0.00    +0.038 C 
ATOM     16  C   UNL     1      34.341 -20.260 -20.154  0.00  0.00    +0.038 C 
ATOM     17  C   UNL     1      36.098 -18.354 -21.189  0.00  0.00    +0.018 C 
ATOM     18  C   UNL     1      33.870 -19.273 -21.019  0.00  0.00    +0.018 C 
BRANCH  13  19
ATOM     19  O   UNL     1      36.154 -21.257 -18.963  0.00  0.00    -0.476 OA
BRANCH  19  20
ATOM     20  C   UNL     1      35.560 -21.324 -17.667  0.00  0.00    +0.203 C 
BRANCH  20  21
ATOM     21  C   UNL     1      36.663 -21.483 -16.628  0.00  0.00    +0.025 C 
BRANCH  21  22
ATOM     22  C   UNL     1      36.153 -22.187 -15.375  0.00  0.00    -0.074 C 
BRANCH  22  23
ATOM     23  N   UNL     1      36.585 -23.577 -15.366  0.00  0.00    +0.387 N 
ATOM     24  C   UNL     1      37.710 -23.806 -14.460  0.00  0.00    -0.077 C 
ATOM     25  C   UNL     1      35.535 -24.485 -14.903  0.00  0.00    -0.077 C 
ATOM     26  C   UNL     1      37.728 -25.320 -14.313  0.00  0.00    -0.025 C 
ATOM     27  C   UNL     1      36.298 -25.767 -14.608  0.00  0.00    -0.025 C 
ATOM     28  H   UNL     1      36.840 -23.764 -16.335  0.00  0.00    -0.080 HD
ENDBRANCH  22  23
ENDBRANCH  21  22
ENDBRANCH  20  21
ENDBRANCH  19  20
ENDBRANCH  13  19
ENDBRANCH   2  14
BRANCH   8  32
ATOM     29  F   UNL     1      32.670 -14.093 -20.110  0.00  0.00    -0.166 F 
ATOM     30  F   UNL     1      34.631 -13.231 -20.451  0.00  0.00    -0.166 F 
ATOM     31  F   UNL     1      32.846 -12.025 -20.756  0.00  0.00    -0.166 F 
ATOM     32  C   UNL     1      33.362 -13.272 -20.953  0.00  0.00    +0.416 C 
ENDBRANCH   8  32
TORSDOF 7
ENDMDL
MODEL 2
REMARK VINA RESULT:     -12.2      1.119      1.545
REMARK  Name = 11697697
REMARK  7 active torsions:
REMARK  status: ('A' for Active; 'I' for Inactive)
REMARK    1  A    between atoms: N_2  and  C_14
REMARK    2  A    between atoms: C_8  and  C_32
REMARK    3  A    between atoms: C_13  and  O_19
REMARK    4  A    between atoms: O_19  and  C_20
REMARK    5  A    between atoms: C_20  and  C_21
REMARK    6  A    between atoms: C_21  and  C_22
REMARK    7  A    between atoms: C_22  and  N_23
REMARK                            x       y       z     vdW  Elec       q    Type
REMARK                         _______ _______ _______ _____ _____    ______ ____
ROOT
ATOM      1  O   UNL     1      34.124 -15.718 -20.679  0.00  0.00    -0.273 OA
ATOM      2  N   UNL     1      34.268 -17.288 -22.429  0.00  0.00    -0.215 N 
ATOM      3  N   UNL     1      33.781 -16.582 -24.649  0.00  0.00    -0.394 NA
ATOM      4  C   UNL     1      33.596 -14.972 -22.819  0.00  0.00    +0.156 C 
ATOM      5  C   UNL     1      34.000 -16.024 -21.862  0.00  0.00    +0.245 C 
ATOM      6  C   UNL     1      34.110 -17.507 -23.800  0.00  0.00    +0.170 C 
ATOM      7  C   UNL     1      33.527 -15.290 -24.175  0.00  0.00    +0.123 C 
ATOM      8  C   UNL     1      33.312 -13.674 -22.374  0.00  0.00    +0.064 C 
ATOM      9  C   UNL     1      33.169 -14.292 -25.088  0.00  0.00    +0.028 C 
ATOM     10  C   UNL     1      32.957 -12.689 -23.294  0.00  0.00    +0.001 C 
ATOM     11  C   UNL     1      34.265 -18.901 -24.372  0.00  0.00    +0.084 C 
ATOM     12  C   UNL     1      32.886 -12.997 -24.651  0.00  0.00    +0.002 C 
ENDROOT
BRANCH   2  14
ATOM     13  C   UNL     1      35.679 -20.290 -19.828  0.00  0.00    +0.139 C 
ATOM     14  C   UNL     1      34.749 -18.312 -21.544  0.00  0.00    +0.060 C 
ATOM     15  C   UNL     1      36.563 -19.343 -20.346  0.00  0.00    +0.038 C 
ATOM     16  C   UNL     1      34.327 -20.243 -20.172  0.00  0.00    +0.038 C 
ATOM     17  C   UNL     1      36.096 -18.351 -21.207  0.00  0.00    +0.018 C 
ATOM     18  C   UNL     1      33.861 -19.250 -21.033  0.00  0.00    +0.018 C 
BRANCH  13  19
ATOM     19  O   UNL     1      36.134 -21.260 -18.989  0.00  0.00    -0.476 OA
BRANCH  19  20
ATOM     20  C   UNL     1      36.207 -20.936 -17.601  0.00  0.00    +0.203 C 
BRANCH  20  21
ATOM     21  C   UNL     1      35.397 -21.958 -16.814  0.00  0.00    +0.025 C 
BRANCH  21  22
ATOM     22  C   UNL     1      35.867 -22.049 -15.366  0.00  0.00    -0.074 C 
BRANCH  22  23
ATOM     23  N   UNL     1      34.739 -22.313 -14.485  0.00  0.00    +0.387 N 
ATOM     24  C   UNL     1      33.553 -22.759 -15.213  0.00  0.00    -0.077 C 
ATOM     25  C   UNL     1      35.020 -23.381 -13.525  0.00  0.00    -0.077 C 
ATOM     26  C   UNL     1      32.673 -23.335 -14.114  0.00  0.00    -0.025 C 
ATOM     27  C   UNL     1      33.636 -23.741 -13.002  0.00  0.00    -0.025 C 
ATOM     28  H   UNL     1      34.578 -21.422 -14.015  0.00  0.00    -0.080 HD
ENDBRANCH  22  23
ENDBRANCH  21  22
ENDBRANCH  20  21
ENDBRANCH  19  20
ENDBRANCH  13  19
ENDBRANCH   2  14
BRANCH   8  32
ATOM     29  F   UNL     1      32.676 -14.088 -20.106  0.00  0.00    -0.166 F 
ATOM     30  F   UNL     1      34.633 -13.213 -20.435  0.00  0.00    -0.166 F 
ATOM     31  F   UNL     1      32.844 -12.014 -20.737  0.00  0.00    -0.166 F 
ATOM     32  C   UNL     1      33.366 -13.257 -20.940  0.00  0.00    +0.416 C 
ENDBRANCH   8  32
TORSDOF 7
ENDMDL
MODEL 3
REMARK VINA RESULT:     -11.5      4.635     10.529
REMARK  Name = 11697697
REMARK  7 active torsions:
REMARK  status: ('A' for Active; 'I' for Inactive)
REMARK    1  A    between atoms: N_2  and  C_14
REMARK    2  A    between atoms: C_8  and  C_32
REMARK    3  A    between atoms: C_13  and  O_19
REMARK    4  A    between atoms: O_19  and  C_20
REMARK    5  A    between atoms: C_20  and  C_21
REMARK    6  A    between atoms: C_21  and  C_22
REMARK    7  A    between atoms: C_22  and  N_23
REMARK                            x       y       z     vdW  Elec       q    Type
REMARK                         _______ _______ _______ _____ _____    ______ ____
ROOT
ATOM      1  O   UNL     1      30.609 -22.115 -17.307  0.00  0.00    -0.273 OA
ATOM      2  N   UNL     1      32.889 -22.356 -16.768  0.00  0.00    -0.215 N 
ATOM      3  N   UNL     1      33.485 -23.591 -14.822  0.00  0.00    -0.394 NA
ATOM      4  C   UNL     1      31.121 -23.300 -15.371  0.00  0.00    +0.156 C 
ATOM      5  C   UNL     1      31.502 -22.516 -16.565  0.00  0.00    +0.245 C 
ATOM      6  C   UNL     1      33.812 -22.881 -15.858  0.00  0.00    +0.170 C 
ATOM      7  C   UNL     1      32.129 -23.824 -14.564  0.00  0.00    +0.123 C 
ATOM      8  C   UNL     1      29.772 -23.531 -15.071  0.00  0.00    +0.064 C 
ATOM      9  C   UNL     1      31.775 -24.589 -13.446  0.00  0.00    +0.028 C 
ATOM     10  C   UNL     1      29.433 -24.294 -13.955  0.00  0.00    +0.001 C 
ATOM     11  C   UNL     1      35.288 -22.583 -16.013  0.00  0.00    +0.084 C 
ATOM     12  C   UNL     1      30.433 -24.824 -13.143  0.00  0.00    +0.002 C 
ENDROOT
BRANCH   2  14
ATOM     13  C   UNL     1      34.096 -20.366 -20.281  0.00  0.00    +0.139 C 
ATOM     14  C   UNL     1      33.301 -21.677 -17.965  0.00  0.00    +0.060 C 
ATOM     15  C   UNL     1      35.043 -21.007 -19.483  0.00  0.00    +0.038 C 
ATOM     16  C   UNL     1      32.749 -20.383 -19.916  0.00  0.00    +0.038 C 
ATOM     17  C   UNL     1      34.644 -21.665 -18.320  0.00  0.00    +0.018 C 
ATOM     18  C   UNL     1      32.351 -21.041 -18.753  0.00  0.00    +0.018 C 
BRANCH  13  19
ATOM     19  O   UNL     1      34.485 -19.723 -21.416  0.00  0.00    -0.476 OA
BRANCH  19  20
ATOM     20  C   UNL     1      35.541 -18.771 -21.293  0.00  0.00    +0.203 C 
BRANCH  20  21
ATOM     21  C   UNL     1      34.954 -17.369 -21.390  0.00  0.00    +0.025 C 
BRANCH  21  22
ATOM     22  C   UNL     1      34.738 -16.952 -22.841  0.00  0.00    -0.074 C 
BRANCH  22  23
ATOM     23  N   UNL     1      34.606 -15.506 -22.936  0.00  0.00    +0.387 N 
ATOM     24  C   UNL     1      33.629 -15.100 -23.945  0.00  0.00    -0.077 C 
ATOM     25  C   UNL     1      34.135 -14.905 -21.688  0.00  0.00    -0.077 C 
ATOM     26  C   UNL     1      33.373 -13.639 -23.605  0.00  0.00    -0.025 C 
ATOM     27  C   UNL     1      33.708 -13.510 -22.122  0.00  0.00    -0.025 C 
ATOM     28  H   UNL     1      35.545 -15.187 -23.173  0.00  0.00    -0.080 HD
ENDBRANCH  22  23
ENDBRANCH  21  22
ENDBRANCH  20  21
ENDBRANCH  19  20
ENDBRANCH  13  19
ENDBRANCH   2  14
BRANCH   8  32
ATOM     29  F   UNL     1      28.726 -21.668 -16.145  0.00  0.00    -0.166 F 
ATOM     30  F   UNL     1      28.527 -23.599 -17.111  0.00  0.00    -0.166 F 
ATOM     31  F   UNL     1      27.429 -23.183 -15.280  0.00  0.00    -0.166 F 
ATOM     32  C   UNL     1      28.637 -23.005 -15.888  0.00  0.00    +0.416 C 
ENDBRANCH   8  32
TORSDOF 7
ENDMDL
MODEL 4
REMARK VINA RESULT:     -11.0      4.746     11.430
REMARK  Name = 11697697
REMARK  7 active torsions:
REMARK  status: ('A' for Active; 'I' for Inactive)
REMARK    1  A    between atoms: N_2  and  C_14
REMARK    2  A    between atoms: C_8  and  C_32
REMARK    3  A    between atoms: C_13  and  O_19
REMARK    4  A    between atoms: O_19  and  C_20
REMARK    5  A    between atoms: C_20  and  C_21
REMARK    6  A    between atoms: C_21  and  C_22
REMARK    7  A    between atoms: C_22  and  N_23
REMARK                            x       y       z     vdW  Elec       q    Type
REMARK                         _______ _______ _______ _____ _____    ______ ____
ROOT
ATOM      1  O   UNL     1      36.962 -23.574 -15.697  0.00  0.00    -0.273 OA
ATOM      2  N   UNL     1      34.723 -22.898 -15.420  0.00  0.00    -0.215 N 
ATOM      3  N   UNL     1      33.676 -23.232 -13.309  0.00  0.00    -0.394 NA
ATOM      4  C   UNL     1      35.986 -23.966 -13.621  0.00  0.00    +0.156 C 
ATOM      5  C   UNL     1      35.943 -23.484 -15.018  0.00  0.00    +0.245 C 
ATOM      6  C   UNL     1      33.636 -22.835 -14.543  0.00  0.00    +0.170 C 
ATOM      7  C   UNL     1      34.858 -23.798 -12.819  0.00  0.00    +0.123 C 
ATOM      8  C   UNL     1      37.147 -24.558 -13.107  0.00  0.00    +0.064 C 
ATOM      9  C   UNL     1      34.902 -24.229 -11.488  0.00  0.00    +0.028 C 
ATOM     10  C   UNL     1      37.177 -24.984 -11.780  0.00  0.00    +0.001 C 
ATOM     11  C   UNL     1      32.293 -22.332 -15.031  0.00  0.00    +0.084 C 
ATOM     12  C   UNL     1      36.056 -24.819 -10.970  0.00  0.00    +0.002 C 
ENDROOT
BRANCH   2  14
ATOM     13  C   UNL     1      34.573 -21.258 -19.299  0.00  0.00    +0.139 C 
ATOM     14  C   UNL     1      34.671 -22.338 -16.741  0.00  0.00    +0.060 C 
ATOM     15  C   UNL     1      35.709 -21.079 -18.509  0.00  0.00    +0.038 C 
ATOM     16  C   UNL     1      33.486 -21.979 -18.804  0.00  0.00    +0.038 C 
ATOM     17  C   UNL     1      35.758 -21.621 -17.226  0.00  0.00    +0.018 C 
ATOM     18  C   UNL     1      33.536 -22.521 -17.520  0.00  0.00    +0.018 C 
BRANCH  13  19
ATOM     19  O   UNL     1      34.525 -20.728 -20.552  0.00  0.00    -0.476 OA
BRANCH  19  20
ATOM     20  C   UNL     1      33.902 -19.452 -20.693  0.00  0.00    +0.203 C 
BRANCH  20  21
ATOM     21  C   UNL     1      34.523 -18.731 -21.882  0.00  0.00    +0.025 C 
BRANCH  21  22
ATOM     22  C   UNL     1      35.185 -17.424 -21.459  0.00  0.00    -0.074 C 
BRANCH  22  23
ATOM     23  N   UNL     1      35.022 -16.415 -22.496  0.00  0.00    +0.387 N 
ATOM     24  C   UNL     1      34.272 -16.914 -23.647  0.00  0.00    -0.077 C 
ATOM     25  C   UNL     1      34.270 -15.251 -22.028  0.00  0.00    -0.077 C 
ATOM     26  C   UNL     1      33.893 -15.640 -24.387  0.00  0.00    -0.025 C 
ATOM     27  C   UNL     1      33.895 -14.545 -23.323  0.00  0.00    -0.025 C 
ATOM     28  H   UNL     1      35.977 -16.165 -22.750  0.00  0.00    -0.080 HD
ENDBRANCH  22  23
ENDBRANCH  21  22
ENDBRANCH  20  21
ENDBRANCH  19  20
ENDBRANCH  13  19
ENDBRANCH   2  14
BRANCH   8  32
ATOM     29  F   UNL     1      38.246 -25.674 -14.915  0.00  0.00    -0.166 F 
ATOM     30  F   UNL     1      38.857 -23.634 -14.501  0.00  0.00    -0.166 F 
ATOM     31  F   UNL     1      39.426 -25.235 -13.143  0.00  0.00    -0.166 F 
ATOM     32  C   UNL     1      38.394 -24.770 -13.903  0.00  0.00    +0.416 C 
ENDBRANCH   8  32
TORSDOF 7
ENDMDL
MODEL 5
REMARK VINA RESULT:     -10.7      5.913      9.675
REMARK  Name = 11697697
REMARK  7 active torsions:
REMARK  status: ('A' for Active; 'I' for Inactive)
REMARK    1  A    between atoms: N_2  and  C_14
REMARK    2  A    between atoms: C_8  and  C_32
REMARK    3  A    between atoms: C_13  and  O_19
REMARK    4  A    between atoms: O_19  and  C_20
REMARK    5  A    between atoms: C_20  and  C_21
REMARK    6  A    between atoms: C_21  and  C_22
REMARK    7  A    between atoms: C_22  and  N_23
REMARK                            x       y       z     vdW  Elec       q    Type
REMARK                         _______ _______ _______ _____ _____    ______ ____
ROOT
ATOM      1  O   UNL     1      31.692  -7.902 -24.046  0.00  0.00    -0.273 OA
ATOM      2  N   UNL     1      31.631  -8.517 -21.773  0.00  0.00    -0.215 N 
ATOM      3  N   UNL     1      31.098  -6.861 -20.149  0.00  0.00    -0.394 NA
ATOM      4  C   UNL     1      31.205  -6.226 -22.507  0.00  0.00    +0.156 C 
ATOM      5  C   UNL     1      31.553  -7.619 -22.859  0.00  0.00    +0.245 C 
ATOM      6  C   UNL     1      31.430  -8.076 -20.463  0.00  0.00    +0.170 C 
ATOM      7  C   UNL     1      30.969  -5.912 -21.169  0.00  0.00    +0.123 C 
ATOM      8  C   UNL     1      31.090  -5.247 -23.502  0.00  0.00    +0.064 C 
ATOM      9  C   UNL     1      30.614  -4.600 -20.833  0.00  0.00    +0.028 C 
ATOM     10  C   UNL     1      30.736  -3.944 -23.153  0.00  0.00    +0.001 C 
ATOM     11  C   UNL     1      31.653  -9.019 -19.299  0.00  0.00    +0.084 C 
ATOM     12  C   UNL     1      30.497  -3.621 -21.820  0.00  0.00    +0.002 C 
ENDROOT
BRANCH   2  14
ATOM     13  C   UNL     1      32.362 -12.567 -22.682  0.00  0.00    +0.139 C 
ATOM     14  C   UNL     1      31.879  -9.898 -22.084  0.00  0.00    +0.060 C 
ATOM     15  C   UNL     1      33.102 -11.566 -23.312  0.00  0.00    +0.038 C 
ATOM     16  C   UNL     1      31.379 -12.227 -21.752  0.00  0.00    +0.038 C 
ATOM     17  C   UNL     1      32.860 -10.226 -23.012  0.00  0.00    +0.018 C 
ATOM     18  C   UNL     1      31.137 -10.887 -21.453  0.00  0.00    +0.018 C 
BRANCH  13  19
ATOM     19  O   UNL     1      32.598 -13.875 -22.976  0.00  0.00    -0.476 OA
BRANCH  19  20
ATOM     20  C   UNL     1      33.053 -14.173 -24.295  0.00  0.00    +0.203 C 
BRANCH  20  21
ATOM     21  C   UNL     1      34.104 -15.272 -24.217  0.00  0.00    +0.025 C 
BRANCH  21  22
ATOM     22  C   UNL     1      34.606 -15.466 -22.790  0.00  0.00    -0.074 C 
BRANCH  22  23
ATOM     23  N   UNL     1      35.031 -16.843 -22.586  0.00  0.00    +0.387 N 
ATOM     24  C   UNL     1      35.019 -17.228 -21.176  0.00  0.00    -0.077 C 
ATOM     25  C   UNL     1      34.149 -17.803 -23.250  0.00  0.00    -0.077 C 
ATOM     26  C   UNL     1      35.103 -18.745 -21.235  0.00  0.00    -0.025 C 
ATOM     27  C   UNL     1      34.535 -19.124 -22.600  0.00  0.00    -0.025 C 
ATOM     28  H   UNL     1      35.973 -16.870 -22.975  0.00  0.00    -0.080 HD
ENDBRANCH  22  23
ENDBRANCH  21  22
ENDBRANCH  20  21
ENDBRANCH  19  20
ENDBRANCH  13  19
ENDBRANCH   2  14
BRANCH   8  32
ATOM     29  F   UNL     1      31.176  -4.398 -25.736  0.00  0.00    -0.166 F 
ATOM     30  F   UNL     1      32.578  -5.973 -25.228  0.00  0.00    -0.166 F 
ATOM     31  F   UNL     1      30.466  -6.435 -25.465  0.00  0.00    -0.166 F 
ATOM     32  C   UNL     1      31.325  -5.506 -24.955  0.00  0.00    +0.416 C 
ENDBRANCH   8  32
TORSDOF 7
ENDMDL
MODEL 6
REMARK VINA RESULT:     -10.3      4.331     10.743
REMARK  Name = 11697697
REMARK  7 active torsions:
REMARK  status: ('A' for Active; 'I' for Inactive)
REMARK    1  A    between atoms: N_2  and  C_14
REMARK    2  A    between atoms: C_8  and  C_32
REMARK    3  A    between atoms: C_13  and  O_19
REMARK    4  A    between atoms: O_19  and  C_20
REMARK    5  A    between atoms: C_20  and  C_21
REMARK    6  A    between atoms: C_21  and  C_22
REMARK    7  A    between atoms: C_22  and  N_23
REMARK                            x       y       z     vdW  Elec       q    Type
REMARK                         _______ _______ _______ _____ _____    ______ ____
ROOT
ATOM      1  O   UNL     1      36.205 -22.448 -16.283  0.00  0.00    -0.273 OA
ATOM      2  N   UNL     1      33.897 -22.312 -16.734  0.00  0.00    -0.215 N 
ATOM      3  N   UNL     1      32.359 -23.117 -15.106  0.00  0.00    -0.394 NA
ATOM      4  C   UNL     1      34.757 -23.289 -14.667  0.00  0.00    +0.156 C 
ATOM      5  C   UNL     1      35.035 -22.663 -15.977  0.00  0.00    +0.245 C 
ATOM      6  C   UNL     1      32.610 -22.592 -16.266  0.00  0.00    +0.170 C 
ATOM      7  C   UNL     1      33.431 -23.468 -14.277  0.00  0.00    +0.123 C 
ATOM      8  C   UNL     1      35.808 -23.674 -13.824  0.00  0.00    +0.064 C 
ATOM      9  C   UNL     1      33.161 -24.037 -13.027  0.00  0.00    +0.028 C 
ATOM     10  C   UNL     1      35.526 -24.240 -12.581  0.00  0.00    +0.001 C 
ATOM     11  C   UNL     1      31.407 -22.336 -17.148  0.00  0.00    +0.084 C 
ATOM     12  C   UNL     1      34.204 -24.421 -12.182  0.00  0.00    +0.002 C 
ENDROOT
BRANCH   2  14
ATOM     13  C   UNL     1      34.565 -20.287 -20.370  0.00  0.00    +0.139 C 
ATOM     14  C   UNL     1      34.125 -21.620 -17.973  0.00  0.00    +0.060 C 
ATOM     15  C   UNL     1      35.647 -20.734 -19.611  0.00  0.00    +0.038 C 
ATOM     16  C   UNL     1      33.261 -20.510 -19.924  0.00  0.00    +0.038 C 
ATOM     17  C   UNL     1      35.426 -21.403 -18.408  0.00  0.00    +0.018 C 
ATOM     18  C   UNL     1      33.041 -21.179 -18.721  0.00  0.00    +0.018 C 
BRANCH  13  19
ATOM     19  O   UNL     1      34.780 -19.633 -21.544  0.00  0.00    -0.476 OA
BRANCH  19  20
ATOM     20  C   UNL     1      35.703 -18.545 -21.521  0.00  0.00    +0.203 C 
BRANCH  20  21
ATOM     21  C   UNL     1      34.924 -17.238 -21.580  0.00  0.00    +0.025 C 
BRANCH  21  22
ATOM     22  C   UNL     1      34.672 -16.801 -23.019  0.00  0.00    -0.074 C 
BRANCH  22  23
ATOM     23  N   UNL     1      34.522 -15.355 -23.090  0.00  0.00    +0.387 N 
ATOM     24  C   UNL     1      33.513 -14.945 -24.065  0.00  0.00    -0.077 C 
ATOM     25  C   UNL     1      34.080 -14.778 -21.820  0.00  0.00    -0.077 C 
ATOM     26  C   UNL     1      33.251 -13.493 -23.696  0.00  0.00    -0.025 C 
ATOM     27  C   UNL     1      33.627 -13.381 -22.221  0.00  0.00    -0.025 C 
ATOM     28  H   UNL     1      35.451 -15.023 -23.349  0.00  0.00    -0.080 HD
ENDBRANCH  22  23
ENDBRANCH  21  22
ENDBRANCH  20  21
ENDBRANCH  19  20
ENDBRANCH  13  19
ENDBRANCH   2  14
BRANCH   8  32
ATOM     29  F   UNL     1      38.097 -23.860 -13.155  0.00  0.00    -0.166 F 
ATOM     30  F   UNL     1      37.643 -24.270 -15.236  0.00  0.00    -0.166 F 
ATOM     31  F   UNL     1      37.573 -22.227 -14.492  0.00  0.00    -0.166 F 
ATOM     32  C   UNL     1      37.253 -23.513 -14.170  0.00  0.00    +0.416 C 
ENDBRANCH   8  32
TORSDOF 7
ENDMDL
