MODEL 1
REMARK VINA RESULT:     -12.5      0.000      0.000
REMARK  Name = 9820008
REMARK  6 active torsions:
REMARK  status: ('A' for Active; 'I' for Inactive)
REMARK    1  A    between atoms: C_2  and  N_17
REMARK    2  A    between atoms: C_3  and  C_8
REMARK    3  A    between atoms: C_11  and  O_14
REMARK    4  A    between atoms: C_18  and  C_23
REMARK    5  A    between atoms: C_24  and  C_26
REMARK    6  A    between atoms: C_26  and  O_27
REMARK                            x       y       z     vdW  Elec       q    Type
REMARK                         _______ _______ _______ _____ _____    ______ ____
ROOT
ATOM      1  F   UNL     1      33.162 -21.364 -19.033  0.00  0.00    -0.203 F 
ATOM      2  C   UNL     1      35.421 -20.648 -19.186  0.00  0.00    +0.078 C 
ATOM      3  C   UNL     1      34.730 -18.982 -21.287  0.00  0.00    +0.002 C 
ATOM      4  C   UNL     1      34.105 -20.610 -19.616  0.00  0.00    +0.153 C 
ATOM      5  C   UNL     1      36.399 -19.871 -19.784  0.00  0.00    +0.017 C 
ATOM      6  C   UNL     1      33.757 -19.771 -20.674  0.00  0.00    +0.031 C 
ATOM      7  C   UNL     1      36.051 -19.032 -20.843  0.00  0.00    +0.001 C 
ENDROOT
BRANCH   3   8
ATOM      8  C   UNL     1      34.369 -18.111 -22.385  0.00  0.00    +0.003 C 
ATOM      9  C   UNL     1      34.646 -16.746 -22.311  0.00  0.00    +0.037 C 
ATOM     10  C   UNL     1      33.744 -18.635 -23.515  0.00  0.00    +0.000 C 
ATOM     11  C   UNL     1      34.298 -15.905 -23.369  0.00  0.00    +0.139 C 
ATOM     12  C   UNL     1      33.397 -17.796 -24.574  0.00  0.00    +0.003 C 
ATOM     13  C   UNL     1      33.673 -16.431 -24.500  0.00  0.00    +0.037 C 
BRANCH  11  14
ATOM     14  O   UNL     1      34.567 -14.573 -23.298  0.00  0.00    -0.471 OA
ATOM     15  C   UNL     1      33.848 -13.815 -22.328  0.00  0.00    +0.252 C 
ENDBRANCH  11  14
ENDBRANCH   3   8
BRANCH   2  17
ATOM     16  O   UNL     1      36.987 -20.082 -16.673  0.00  0.00    -0.270 OA
ATOM     17  N   UNL     1      35.778 -21.500 -18.114  0.00  0.00    -0.279 N 
ATOM     18  C   UNL     1      36.508 -21.181 -16.971  0.00  0.00    +0.245 C 
ATOM     19  H   UNL     1      35.471 -22.433 -18.184  0.00  0.00    +0.155 HD
BRANCH  18  23
ATOM     20  C   UNL     1      37.744 -23.734 -14.524  0.00  0.00    +0.010 C 
ATOM     21  C   UNL     1      38.039 -22.820 -15.714  0.00  0.00    +0.031 C 
ATOM     22  C   UNL     1      36.273 -24.135 -14.653  0.00  0.00    +0.033 C 
ATOM     23  C   UNL     1      36.679 -22.321 -16.081  0.00  0.00    +0.034 C 
ATOM     24  C   UNL     1      35.714 -23.041 -15.500  0.00  0.00    +0.054 C 
BRANCH  24  26
ATOM     25  O   UNL     1      33.616 -23.154 -16.611  0.00  0.00    -0.245 OA
ATOM     26  C   UNL     1      34.276 -22.845 -15.630  0.00  0.00    +0.334 C 
BRANCH  26  27
ATOM     27  O   UNL     1      33.786 -22.274 -14.507  0.00  0.00    -0.477 OA
ATOM     28  H   UNL     1      34.255 -22.349 -13.699  0.00  0.00    +0.295 HD
ENDBRANCH  26  27
ENDBRANCH  24  26
ENDBRANCH  18  23
ENDBRANCH   2  17
TORSDOF 6
ENDMDL
MODEL 2
REMARK VINA RESULT:     -12.1      6.259     12.365
REMARK  Name = 9820008
REMARK  6 active torsions:
REMARK  status: ('A' for Active; 'I' for Inactive)
REMARK    1  A    between atoms: C_2  and  N_17
REMARK    2  A    between atoms: C_3  and  C_8
REMARK    3  A    between atoms: C_11  and  O_14
REMARK    4  A    between atoms: C_18  and  C_23
REMARK    5  A    between atoms: C_24  and  C_26
REMARK    6  A    between atoms: C_26  and  O_27
REMARK                            x       y       z     vdW  Elec       q    Type
REMARK                         _______ _______ _______ _____ _____    ______ ____
ROOT
ATOM      1  F   UNL     1      31.251 -11.199 -20.199  0.00  0.00    -0.203 F 
ATOM      2  C   UNL     1      32.238 -10.577 -22.268  0.00  0.00    +0.078 C 
ATOM      3  C   UNL     1      33.166 -13.167 -22.582  0.00  0.00    +0.002 C 
ATOM      4  C   UNL     1      31.961 -11.519 -21.291  0.00  0.00    +0.153 C 
ATOM      5  C   UNL     1      32.969 -10.903 -23.399  0.00  0.00    +0.017 C 
ATOM      6  C   UNL     1      32.428 -12.824 -21.449  0.00  0.00    +0.031 C 
ATOM      7  C   UNL     1      33.437 -12.207 -23.557  0.00  0.00    +0.001 C 
ENDROOT
BRANCH   3   8
ATOM      8  C   UNL     1      33.651 -14.521 -22.747  0.00  0.00    +0.003 C 
ATOM      9  C   UNL     1      34.223 -15.193 -21.667  0.00  0.00    +0.037 C 
ATOM     10  C   UNL     1      33.548 -15.152 -23.986  0.00  0.00    +0.000 C 
ATOM     11  C   UNL     1      34.691 -16.497 -21.826  0.00  0.00    +0.139 C 
ATOM     12  C   UNL     1      34.015 -16.457 -24.145  0.00  0.00    +0.003 C 
ATOM     13  C   UNL     1      34.587 -17.129 -23.065  0.00  0.00    +0.037 C 
BRANCH  11  14
ATOM     14  O   UNL     1      35.249 -17.154 -20.773  0.00  0.00    -0.471 OA
ATOM     15  C   UNL     1      36.103 -18.256 -21.073  0.00  0.00    +0.252 C 
ENDBRANCH  11  14
ENDBRANCH   3   8
BRANCH   2  17
ATOM     16  O   UNL     1      33.491  -7.947 -23.043  0.00  0.00    -0.270 OA
ATOM     17  N   UNL     1      31.766  -9.253 -22.110  0.00  0.00    -0.279 N 
ATOM     18  C   UNL     1      32.393  -8.068 -22.489  0.00  0.00    +0.245 C 
ATOM     19  H   UNL     1      30.886  -9.156 -21.679  0.00  0.00    +0.155 HD
BRANCH  18  23
ATOM     20  C   UNL     1      29.944  -5.233 -22.421  0.00  0.00    +0.010 C 
ATOM     21  C   UNL     1      30.905  -6.105 -23.229  0.00  0.00    +0.031 C 
ATOM     22  C   UNL     1      30.532  -5.151 -21.011  0.00  0.00    +0.033 C 
ATOM     23  C   UNL     1      31.603  -6.888 -22.165  0.00  0.00    +0.034 C 
ATOM     24  C   UNL     1      31.398  -6.365 -20.952  0.00  0.00    +0.054 C 
BRANCH  24  26
ATOM     25  O   UNL     1      31.632  -7.935 -19.182  0.00  0.00    -0.245 OA
ATOM     26  C   UNL     1      31.921  -6.859 -19.685  0.00  0.00    +0.334 C 
BRANCH  26  27
ATOM     27  O   UNL     1      32.771  -5.952 -19.152  0.00  0.00    -0.477 OA
ATOM     28  H   UNL     1      32.836  -5.860 -18.222  0.00  0.00    +0.295 HD
ENDBRANCH  26  27
ENDBRANCH  24  26
ENDBRANCH  18  23
ENDBRANCH   2  17
TORSDOF 6
ENDMDL
MODEL 3
REMARK VINA RESULT:     -12.0      3.670      5.056
REMARK  Name = 9820008
REMARK  6 active torsions:
REMARK  status: ('A' for Active; 'I' for Inactive)
REMARK    1  A    between atoms: C_2  and  N_17
REMARK    2  A    between atoms: C_3  and  C_8
REMARK    3  A    between atoms: C_11  and  O_14
REMARK    4  A    between atoms: C_18  and  C_23
REMARK    5  A    between atoms: C_24  and  C_26
REMARK    6  A    between atoms: C_26  and  O_27
REMARK                            x       y       z     vdW  Elec       q    Type
REMARK                         _______ _______ _______ _____ _____    ______ ____
ROOT
ATOM      1  F   UNL     1      34.597 -22.664 -16.964  0.00  0.00    -0.203 F 
ATOM      2  C   UNL     1      32.529 -21.925 -17.867  0.00  0.00    +0.078 C 
ATOM      3  C   UNL     1      33.906 -20.395 -19.719  0.00  0.00    +0.002 C 
ATOM      4  C   UNL     1      33.914 -21.931 -17.855  0.00  0.00    +0.153 C 
ATOM      5  C   UNL     1      31.818 -21.171 -18.786  0.00  0.00    +0.017 C 
ATOM      6  C   UNL     1      34.607 -21.160 -18.787  0.00  0.00    +0.031 C 
ATOM      7  C   UNL     1      32.511 -20.400 -19.718  0.00  0.00    +0.001 C 
ENDROOT
BRANCH   3   8
ATOM      8  C   UNL     1      34.625 -19.595 -20.688  0.00  0.00    +0.003 C 
ATOM      9  C   UNL     1      33.976 -19.137 -21.834  0.00  0.00    +0.037 C 
ATOM     10  C   UNL     1      35.968 -19.284 -20.476  0.00  0.00    +0.000 C 
ATOM     11  C   UNL     1      34.668 -18.368 -22.768  0.00  0.00    +0.139 C 
ATOM     12  C   UNL     1      36.661 -18.513 -21.409  0.00  0.00    +0.003 C 
ATOM     13  C   UNL     1      36.012 -18.056 -22.555  0.00  0.00    +0.037 C 
BRANCH  11  14
ATOM     14  O   UNL     1      34.036 -17.920 -23.886  0.00  0.00    -0.471 OA
ATOM     15  C   UNL     1      34.017 -16.511 -24.103  0.00  0.00    +0.252 C 
ENDBRANCH  11  14
ENDBRANCH   3   8
BRANCH   2  17
ATOM     16  O   UNL     1      29.720 -21.647 -16.808  0.00  0.00    -0.270 OA
ATOM     17  N   UNL     1      31.822 -22.704 -16.921  0.00  0.00    -0.279 N 
ATOM     18  C   UNL     1      30.517 -22.527 -16.467  0.00  0.00    +0.245 C 
ATOM     19  H   UNL     1      32.313 -23.466 -16.537  0.00  0.00    +0.155 HD
BRANCH  18  23
ATOM     20  C   UNL     1      30.205 -24.778 -13.488  0.00  0.00    +0.010 C 
ATOM     21  C   UNL     1      31.109 -24.082 -14.505  0.00  0.00    +0.031 C 
ATOM     22  C   UNL     1      28.891 -25.069 -14.218  0.00  0.00    +0.033 C 
ATOM     23  C   UNL     1      30.125 -23.530 -15.486  0.00  0.00    +0.034 C 
ATOM     24  C   UNL     1      28.913 -24.071 -15.328  0.00  0.00    +0.054 C 
BRANCH  24  26
ATOM     25  O   UNL     1      27.374 -24.371 -17.115  0.00  0.00    -0.245 OA
ATOM     26  C   UNL     1      27.714 -23.776 -16.102  0.00  0.00    +0.334 C 
BRANCH  26  27
ATOM     27  O   UNL     1      27.039 -22.752 -15.534  0.00  0.00    -0.477 OA
ATOM     28  H   UNL     1      27.414 -22.286 -14.813  0.00  0.00    +0.295 HD
ENDBRANCH  26  27
ENDBRANCH  24  26
ENDBRANCH  18  23
ENDBRANCH   2  17
TORSDOF 6
ENDMDL
MODEL 4
REMARK VINA RESULT:     -11.8      1.963      8.926
REMARK  Name = 9820008
REMARK  6 active torsions:
REMARK  status: ('A' for Active; 'I' for Inactive)
REMARK    1  A    between atoms: C_2  and  N_17
REMARK    2  A    between atoms: C_3  and  C_8
REMARK    3  A    between atoms: C_11  and  O_14
REMARK    4  A    between atoms: C_18  and  C_23
REMARK    5  A    between atoms: C_24  and  C_26
REMARK    6  A    between atoms: C_26  and  O_27
REMARK                            x       y       z     vdW  Elec       q    Type
REMARK                         _______ _______ _______ _____ _____    ______ ____
ROOT
ATOM      1  F   UNL     1      32.329 -21.289 -19.661  0.00  0.00    -0.203 F 
ATOM      2  C   UNL     1      34.593 -20.571 -19.629  0.00  0.00    +0.078 C 
ATOM      3  C   UNL     1      34.997 -22.012 -17.300  0.00  0.00    +0.002 C 
ATOM      4  C   UNL     1      33.539 -21.284 -19.083  0.00  0.00    +0.153 C 
ATOM      5  C   UNL     1      35.845 -20.564 -19.037  0.00  0.00    +0.017 C 
ATOM      6  C   UNL     1      33.742 -22.009 -17.909  0.00  0.00    +0.031 C 
ATOM      7  C   UNL     1      36.048 -21.289 -17.863  0.00  0.00    +0.001 C 
ENDROOT
BRANCH   3   8
ATOM      8  C   UNL     1      35.209 -22.765 -16.082  0.00  0.00    +0.003 C 
ATOM      9  C   UNL     1      36.473 -22.798 -15.494  0.00  0.00    +0.037 C 
ATOM     10  C   UNL     1      34.150 -23.459 -15.498  0.00  0.00    +0.000 C 
ATOM     11  C   UNL     1      36.678 -23.525 -14.321  0.00  0.00    +0.139 C 
ATOM     12  C   UNL     1      34.353 -24.185 -14.325  0.00  0.00    +0.003 C 
ATOM     13  C   UNL     1      35.617 -24.219 -13.737  0.00  0.00    +0.037 C 
BRANCH  11  14
ATOM     14  O   UNL     1      37.911 -23.558 -13.747  0.00  0.00    -0.471 OA
ATOM     15  C   UNL     1      38.105 -24.483 -12.679  0.00  0.00    +0.252 C 
ENDBRANCH  11  14
ENDBRANCH   3   8
BRANCH   2  17
ATOM     16  O   UNL     1      35.982 -18.104 -20.665  0.00  0.00    -0.270 OA
ATOM     17  N   UNL     1      34.389 -19.832 -20.819  0.00  0.00    -0.279 N 
ATOM     18  C   UNL     1      35.066 -18.692 -21.247  0.00  0.00    +0.245 C 
ATOM     19  H   UNL     1      33.683 -20.165 -21.419  0.00  0.00    +0.155 HD
BRANCH  18  23
ATOM     20  C   UNL     1      33.514 -18.273 -24.632  0.00  0.00    +0.010 C 
ATOM     21  C   UNL     1      34.332 -19.137 -23.672  0.00  0.00    +0.031 C 
ATOM     22  C   UNL     1      33.833 -16.820 -24.270  0.00  0.00    +0.033 C 
ATOM     23  C   UNL     1      34.582 -18.204 -22.532  0.00  0.00    +0.034 C 
ATOM     24  C   UNL     1      34.309 -16.937 -22.859  0.00  0.00    +0.054 C 
BRANCH  24  26
ATOM     25  O   UNL     1      34.410 -15.784 -20.784  0.00  0.00    -0.245 OA
ATOM     26  C   UNL     1      34.435 -15.764 -22.006  0.00  0.00    +0.334 C 
BRANCH  26  27
ATOM     27  O   UNL     1      34.584 -14.655 -22.765  0.00  0.00    -0.477 OA
ATOM     28  H   UNL     1      35.388 -14.505 -23.223  0.00  0.00    +0.295 HD
ENDBRANCH  26  27
ENDBRANCH  24  26
ENDBRANCH  18  23
ENDBRANCH   2  17
TORSDOF 6
ENDMDL
MODEL 5
REMARK VINA RESULT:     -11.8      5.344     11.306
REMARK  Name = 9820008
REMARK  6 active torsions:
REMARK  status: ('A' for Active; 'I' for Inactive)
REMARK    1  A    between atoms: C_2  and  N_17
REMARK    2  A    between atoms: C_3  and  C_8
REMARK    3  A    between atoms: C_11  and  O_14
REMARK    4  A    between atoms: C_18  and  C_23
REMARK    5  A    between atoms: C_24  and  C_26
REMARK    6  A    between atoms: C_26  and  O_27
REMARK                            x       y       z     vdW  Elec       q    Type
REMARK                         _______ _______ _______ _____ _____    ______ ____
ROOT
ATOM      1  F   UNL     1      32.689 -12.405 -24.874  0.00  0.00    -0.203 F 
ATOM      2  C   UNL     1      33.037 -12.263 -22.529  0.00  0.00    +0.078 C 
ATOM      3  C   UNL     1      33.853 -14.909 -22.509  0.00  0.00    +0.002 C 
ATOM      4  C   UNL     1      33.056 -12.974 -23.717  0.00  0.00    +0.153 C 
ATOM      5  C   UNL     1      33.416 -12.845 -21.332  0.00  0.00    +0.017 C 
ATOM      6  C   UNL     1      33.467 -14.307 -23.707  0.00  0.00    +0.031 C 
ATOM      7  C   UNL     1      33.827 -14.178 -21.321  0.00  0.00    +0.001 C 
ENDROOT
BRANCH   3   8
ATOM      8  C   UNL     1      34.280 -16.291 -22.498  0.00  0.00    +0.003 C 
ATOM      9  C   UNL     1      34.988 -16.793 -21.406  0.00  0.00    +0.037 C 
ATOM     10  C   UNL     1      33.984 -17.121 -23.578  0.00  0.00    +0.000 C 
ATOM     11  C   UNL     1      35.401 -18.125 -21.395  0.00  0.00    +0.139 C 
ATOM     12  C   UNL     1      34.395 -18.454 -23.568  0.00  0.00    +0.003 C 
ATOM     13  C   UNL     1      35.104 -18.956 -22.477  0.00  0.00    +0.037 C 
BRANCH  11  14
ATOM     14  O   UNL     1      36.092 -18.616 -20.331  0.00  0.00    -0.471 OA
ATOM     15  C   UNL     1      35.815 -19.959 -19.939  0.00  0.00    +0.252 C 
ENDBRANCH  11  14
ENDBRANCH   3   8
BRANCH   2  17
ATOM     16  O   UNL     1      30.467 -11.003 -21.581  0.00  0.00    -0.270 OA
ATOM     17  N   UNL     1      32.618 -10.911 -22.536  0.00  0.00    -0.279 N 
ATOM     18  C   UNL     1      31.411 -10.384 -22.082  0.00  0.00    +0.245 C 
ATOM     19  H   UNL     1      33.260 -10.262 -22.907  0.00  0.00    +0.155 HD
BRANCH  18  23
ATOM     20  C   UNL     1      30.778  -6.886 -23.266  0.00  0.00    +0.010 C 
ATOM     21  C   UNL     1      31.178  -8.323 -23.603  0.00  0.00    +0.031 C 
ATOM     22  C   UNL     1      31.274  -6.631 -21.842  0.00  0.00    +0.033 C 
ATOM     23  C   UNL     1      31.333  -8.939 -22.250  0.00  0.00    +0.034 C 
ATOM     24  C   UNL     1      31.386  -8.013 -21.288  0.00  0.00    +0.054 C 
BRANCH  24  26
ATOM     25  O   UNL     1      30.855  -9.019 -19.200  0.00  0.00    -0.245 OA
ATOM     26  C   UNL     1      31.535  -8.243 -19.857  0.00  0.00    +0.334 C 
BRANCH  26  27
ATOM     27  O   UNL     1      32.533  -7.474 -19.368  0.00  0.00    -0.477 OA
ATOM     28  H   UNL     1      32.746  -7.506 -18.456  0.00  0.00    +0.295 HD
ENDBRANCH  26  27
ENDBRANCH  24  26
ENDBRANCH  18  23
ENDBRANCH   2  17
TORSDOF 6
ENDMDL
MODEL 6
REMARK VINA RESULT:     -11.5      5.678     11.719
REMARK  Name = 9820008
REMARK  6 active torsions:
REMARK  status: ('A' for Active; 'I' for Inactive)
REMARK    1  A    between atoms: C_2  and  N_17
REMARK    2  A    between atoms: C_3  and  C_8
REMARK    3  A    between atoms: C_11  and  O_14
REMARK    4  A    between atoms: C_18  and  C_23
REMARK    5  A    between atoms: C_24  and  C_26
REMARK    6  A    between atoms: C_26  and  O_27
REMARK                            x       y       z     vdW  Elec       q    Type
REMARK                         _______ _______ _______ _____ _____    ______ ____
ROOT
ATOM      1  F   UNL     1      32.239 -11.767 -20.118  0.00  0.00    -0.203 F 
ATOM      2  C   UNL     1      32.735 -11.501 -22.425  0.00  0.00    +0.078 C 
ATOM      3  C   UNL     1      33.589 -14.133 -22.525  0.00  0.00    +0.002 C 
ATOM      4  C   UNL     1      32.690 -12.272 -21.275  0.00  0.00    +0.153 C 
ATOM      5  C   UNL     1      33.198 -12.018 -23.624  0.00  0.00    +0.017 C 
ATOM      6  C   UNL     1      33.120 -13.597 -21.326  0.00  0.00    +0.031 C 
ATOM      7  C   UNL     1      33.629 -13.343 -23.674  0.00  0.00    +0.001 C 
ENDROOT
BRANCH   3   8
ATOM      8  C   UNL     1      34.035 -15.509 -22.578  0.00  0.00    +0.003 C 
ATOM      9  C   UNL     1      34.672 -16.078 -21.475  0.00  0.00    +0.037 C 
ATOM     10  C   UNL     1      33.830 -16.264 -23.732  0.00  0.00    +0.000 C 
ATOM     11  C   UNL     1      35.102 -17.404 -21.526  0.00  0.00    +0.139 C 
ATOM     12  C   UNL     1      34.260 -17.590 -23.783  0.00  0.00    +0.003 C 
ATOM     13  C   UNL     1      34.897 -18.160 -22.681  0.00  0.00    +0.037 C 
BRANCH  11  14
ATOM     14  O   UNL     1      35.724 -17.960 -20.451  0.00  0.00    -0.471 OA
ATOM     15  C   UNL     1      35.893 -19.376 -20.459  0.00  0.00    +0.252 C 
ENDBRANCH  11  14
ENDBRANCH   3   8
BRANCH   2  17
ATOM     16  O   UNL     1      30.042 -10.336 -21.734  0.00  0.00    -0.270 OA
ATOM     17  N   UNL     1      32.301 -10.155 -22.377  0.00  0.00    -0.279 N 
ATOM     18  C   UNL     1      31.035  -9.673 -22.049  0.00  0.00    +0.245 C 
ATOM     19  H   UNL     1      32.976  -9.475 -22.601  0.00  0.00    +0.155 HD
BRANCH  18  23
ATOM     20  C   UNL     1      30.198  -6.099 -22.799  0.00  0.00    +0.010 C 
ATOM     21  C   UNL     1      30.437  -7.517 -23.317  0.00  0.00    +0.031 C 
ATOM     22  C   UNL     1      31.094  -5.942 -21.568  0.00  0.00    +0.033 C 
ATOM     23  C   UNL     1      30.958  -8.220 -22.105  0.00  0.00    +0.034 C 
ATOM     24  C   UNL     1      31.318  -7.357 -21.149  0.00  0.00    +0.054 C 
BRANCH  24  26
ATOM     25  O   UNL     1      31.462  -8.577 -19.114  0.00  0.00    -0.245 OA
ATOM     26  C   UNL     1      31.867  -7.679 -19.839  0.00  0.00    +0.334 C 
BRANCH  26  27
ATOM     27  O   UNL     1      32.887  -6.841 -19.549  0.00  0.00    -0.477 OA
ATOM     28  H   UNL     1      33.734  -7.186 -19.345  0.00  0.00    +0.295 HD
ENDBRANCH  26  27
ENDBRANCH  24  26
ENDBRANCH  18  23
ENDBRANCH   2  17
TORSDOF 6
ENDMDL
MODEL 7
REMARK VINA RESULT:     -11.5      5.863      9.678
REMARK  Name = 9820008
REMARK  6 active torsions:
REMARK  status: ('A' for Active; 'I' for Inactive)
REMARK    1  A    between atoms: C_2  and  N_17
REMARK    2  A    between atoms: C_3  and  C_8
REMARK    3  A    between atoms: C_11  and  O_14
REMARK    4  A    between atoms: C_18  and  C_23
REMARK    5  A    between atoms: C_24  and  C_26
REMARK    6  A    between atoms: C_26  and  O_27
REMARK                            x       y       z     vdW  Elec       q    Type
REMARK                         _______ _______ _______ _____ _____    ______ ____
ROOT
ATOM      1  F   UNL     1      31.475 -13.306 -20.803  0.00  0.00    -0.203 F 
ATOM      2  C   UNL     1      32.854 -12.809 -22.672  0.00  0.00    +0.078 C 
ATOM      3  C   UNL     1      31.934 -10.198 -22.632  0.00  0.00    +0.002 C 
ATOM      4  C   UNL     1      31.930 -12.431 -21.712  0.00  0.00    +0.153 C 
ATOM      5  C   UNL     1      33.329 -11.910 -23.612  0.00  0.00    +0.017 C 
ATOM      6  C   UNL     1      31.467 -11.116 -21.692  0.00  0.00    +0.031 C 
ATOM      7  C   UNL     1      32.865 -10.594 -23.592  0.00  0.00    +0.001 C 
ENDROOT
BRANCH   3   8
ATOM      8  C   UNL     1      31.455  -8.833 -22.611  0.00  0.00    +0.003 C 
ATOM      9  C   UNL     1      31.566  -8.072 -21.448  0.00  0.00    +0.037 C 
ATOM     10  C   UNL     1      30.880  -8.278 -23.754  0.00  0.00    +0.000 C 
ATOM     11  C   UNL     1      31.103  -6.757 -21.427  0.00  0.00    +0.139 C 
ATOM     12  C   UNL     1      30.417  -6.963 -23.735  0.00  0.00    +0.003 C 
ATOM     13  C   UNL     1      30.528  -6.202 -22.571  0.00  0.00    +0.037 C 
BRANCH  11  14
ATOM     14  O   UNL     1      31.211  -6.014 -20.292  0.00  0.00    -0.471 OA
ATOM     15  C   UNL     1      32.430  -6.120 -19.559  0.00  0.00    +0.252 C 
ENDBRANCH  11  14
ENDBRANCH   3   8
BRANCH   2  17
ATOM     16  O   UNL     1      34.306 -14.411 -20.572  0.00  0.00    -0.270 OA
ATOM     17  N   UNL     1      33.325 -14.144 -22.696  0.00  0.00    -0.279 N 
ATOM     18  C   UNL     1      33.994 -14.835 -21.689  0.00  0.00    +0.245 C 
ATOM     19  H   UNL     1      33.158 -14.645 -23.526  0.00  0.00    +0.155 HD
BRANCH  18  23
ATOM     20  C   UNL     1      34.672 -18.518 -21.815  0.00  0.00    +0.010 C 
ATOM     21  C   UNL     1      34.814 -17.192 -21.068  0.00  0.00    +0.031 C 
ATOM     22  C   UNL     1      34.670 -18.166 -23.305  0.00  0.00    +0.033 C 
ATOM     23  C   UNL     1      34.325 -16.201 -22.073  0.00  0.00    +0.034 C 
ATOM     24  C   UNL     1      34.246 -16.734 -23.296  0.00  0.00    +0.054 C 
BRANCH  24  26
ATOM     25  O   UNL     1      34.491 -15.279 -25.160  0.00  0.00    -0.245 OA
ATOM     26  C   UNL     1      33.813 -16.068 -24.517  0.00  0.00    +0.334 C 
BRANCH  26  27
ATOM     27  O   UNL     1      32.555 -16.452 -24.830  0.00  0.00    -0.477 OA
ATOM     28  H   UNL     1      32.264 -17.318 -24.624  0.00  0.00    +0.295 HD
ENDBRANCH  26  27
ENDBRANCH  24  26
ENDBRANCH  18  23
ENDBRANCH   2  17
TORSDOF 6
ENDMDL
MODEL 8
REMARK VINA RESULT:     -11.4      5.857      9.676
REMARK  Name = 9820008
REMARK  6 active torsions:
REMARK  status: ('A' for Active; 'I' for Inactive)
REMARK    1  A    between atoms: C_2  and  N_17
REMARK    2  A    between atoms: C_3  and  C_8
REMARK    3  A    between atoms: C_11  and  O_14
REMARK    4  A    between atoms: C_18  and  C_23
REMARK    5  A    between atoms: C_24  and  C_26
REMARK    6  A    between atoms: C_26  and  O_27
REMARK                            x       y       z     vdW  Elec       q    Type
REMARK                         _______ _______ _______ _____ _____    ______ ____
ROOT
ATOM      1  F   UNL     1      31.525 -13.395 -20.776  0.00  0.00    -0.203 F 
ATOM      2  C   UNL     1      32.910 -12.875 -22.634  0.00  0.00    +0.078 C 
ATOM      3  C   UNL     1      32.056 -10.244 -22.511  0.00  0.00    +0.002 C 
ATOM      4  C   UNL     1      31.999 -12.504 -21.660  0.00  0.00    +0.153 C 
ATOM      5  C   UNL     1      33.404 -11.960 -23.548  0.00  0.00    +0.017 C 
ATOM      6  C   UNL     1      31.568 -11.179 -21.598  0.00  0.00    +0.031 C 
ATOM      7  C   UNL     1      32.974 -10.634 -23.487  0.00  0.00    +0.001 C 
ENDROOT
BRANCH   3   8
ATOM      8  C   UNL     1      31.610  -8.869 -22.447  0.00  0.00    +0.003 C 
ATOM      9  C   UNL     1      31.278  -8.189 -23.618  0.00  0.00    +0.037 C 
ATOM     10  C   UNL     1      31.514  -8.224 -21.215  0.00  0.00    +0.000 C 
ATOM     11  C   UNL     1      30.849  -6.863 -23.557  0.00  0.00    +0.139 C 
ATOM     12  C   UNL     1      31.084  -6.899 -21.153  0.00  0.00    +0.003 C 
ATOM     13  C   UNL     1      30.752  -6.218 -22.324  0.00  0.00    +0.037 C 
BRANCH  11  14
ATOM     14  O   UNL     1      30.525  -6.198 -24.699  0.00  0.00    -0.471 OA
ATOM     15  C   UNL     1      31.581  -5.933 -25.619  0.00  0.00    +0.252 C 
ENDBRANCH  11  14
ENDBRANCH   3   8
BRANCH   2  17
ATOM     16  O   UNL     1      34.333 -14.575 -20.591  0.00  0.00    -0.270 OA
ATOM     17  N   UNL     1      33.348 -14.220 -22.701  0.00  0.00    -0.279 N 
ATOM     18  C   UNL     1      34.004 -14.957 -21.718  0.00  0.00    +0.245 C 
ATOM     19  H   UNL     1      33.164 -14.692 -23.544  0.00  0.00    +0.155 HD
BRANCH  18  23
ATOM     20  C   UNL     1      34.590 -18.650 -21.958  0.00  0.00    +0.010 C 
ATOM     21  C   UNL     1      34.770 -17.351 -21.172  0.00  0.00    +0.031 C 
ATOM     22  C   UNL     1      34.589 -18.254 -23.436  0.00  0.00    +0.033 C 
ATOM     23  C   UNL     1      34.299 -16.319 -22.145  0.00  0.00    +0.034 C 
ATOM     24  C   UNL     1      34.200 -16.813 -23.383  0.00  0.00    +0.054 C 
BRANCH  24  26
ATOM     25  O   UNL     1      34.469 -15.306 -25.201  0.00  0.00    -0.245 OA
ATOM     26  C   UNL     1      33.777 -16.100 -24.580  0.00  0.00    +0.334 C 
BRANCH  26  27
ATOM     27  O   UNL     1      32.511 -16.449 -24.901  0.00  0.00    -0.477 OA
ATOM     28  H   UNL     1      31.815 -16.299 -24.292  0.00  0.00    +0.295 HD
ENDBRANCH  26  27
ENDBRANCH  24  26
ENDBRANCH  18  23
ENDBRANCH   2  17
TORSDOF 6
ENDMDL
MODEL 9
REMARK VINA RESULT:     -11.4      6.369     12.814
REMARK  Name = 9820008
REMARK  6 active torsions:
REMARK  status: ('A' for Active; 'I' for Inactive)
REMARK    1  A    between atoms: C_2  and  N_17
REMARK    2  A    between atoms: C_3  and  C_8
REMARK    3  A    between atoms: C_11  and  O_14
REMARK    4  A    between atoms: C_18  and  C_23
REMARK    5  A    between atoms: C_24  and  C_26
REMARK    6  A    between atoms: C_26  and  O_27
REMARK                            x       y       z     vdW  Elec       q    Type
REMARK                         _______ _______ _______ _____ _____    ______ ____
ROOT
ATOM      1  F   UNL     1      31.514 -11.100 -19.961  0.00  0.00    -0.203 F 
ATOM      2  C   UNL     1      32.158 -10.542 -22.177  0.00  0.00    +0.078 C 
ATOM      3  C   UNL     1      33.134 -13.110 -22.520  0.00  0.00    +0.002 C 
ATOM      4  C   UNL     1      32.066 -11.446 -21.132  0.00  0.00    +0.153 C 
ATOM      5  C   UNL     1      32.726 -10.894 -23.390  0.00  0.00    +0.017 C 
ATOM      6  C   UNL     1      32.558 -12.739 -21.305  0.00  0.00    +0.031 C 
ATOM      7  C   UNL     1      33.219 -12.187 -23.563  0.00  0.00    +0.001 C 
ENDROOT
BRANCH   3   8
ATOM      8  C   UNL     1      33.644 -14.452 -22.700  0.00  0.00    +0.003 C 
ATOM      9  C   UNL     1      34.198 -15.138 -21.620  0.00  0.00    +0.037 C 
ATOM     10  C   UNL     1      33.583 -15.059 -23.954  0.00  0.00    +0.000 C 
ATOM     11  C   UNL     1      34.690 -16.432 -21.793  0.00  0.00    +0.139 C 
ATOM     12  C   UNL     1      34.074 -16.353 -24.128  0.00  0.00    +0.003 C 
ATOM     13  C   UNL     1      34.628 -17.039 -23.048  0.00  0.00    +0.037 C 
BRANCH  11  14
ATOM     14  O   UNL     1      35.232 -17.102 -20.740  0.00  0.00    -0.471 OA
ATOM     15  C   UNL     1      36.054 -18.228 -21.039  0.00  0.00    +0.252 C 
ENDBRANCH  11  14
ENDBRANCH   3   8
BRANCH   2  17
ATOM     16  O   UNL     1      33.419  -7.874 -22.797  0.00  0.00    -0.270 OA
ATOM     17  N   UNL     1      31.661  -9.228 -22.004  0.00  0.00    -0.279 N 
ATOM     18  C   UNL     1      32.293  -8.025 -22.310  0.00  0.00    +0.245 C 
ATOM     19  H   UNL     1      30.757  -9.155 -21.621  0.00  0.00    +0.155 HD
BRANCH  18  23
ATOM     20  C   UNL     1      30.693  -5.009 -20.767  0.00  0.00    +0.010 C 
ATOM     21  C   UNL     1      31.285  -6.407 -20.584  0.00  0.00    +0.031 C 
ATOM     22  C   UNL     1      30.069  -4.993 -22.164  0.00  0.00    +0.033 C 
ATOM     23  C   UNL     1      31.471  -6.865 -21.994  0.00  0.00    +0.034 C 
ATOM     24  C   UNL     1      30.806  -6.091 -22.858  0.00  0.00    +0.054 C 
BRANCH  24  26
ATOM     25  O   UNL     1      30.001  -6.989 -24.906  0.00  0.00    -0.245 OA
ATOM     26  C   UNL     1      30.755  -6.236 -24.306  0.00  0.00    +0.334 C 
BRANCH  26  27
ATOM     27  O   UNL     1      31.663  -5.417 -24.884  0.00  0.00    -0.477 OA
ATOM     28  H   UNL     1      31.465  -4.509 -25.004  0.00  0.00    +0.295 HD
ENDBRANCH  26  27
ENDBRANCH  24  26
ENDBRANCH  18  23
ENDBRANCH   2  17
TORSDOF 6
ENDMDL
