MODEL 1
REMARK VINA RESULT:     -13.4      0.000      0.000
REMARK  Name = 1712
REMARK  5 active torsions:
REMARK  status: ('A' for Active; 'I' for Inactive)
REMARK    1  A    between atoms: C_1  and  N_18
REMARK    2  A    between atoms: C_2  and  S_7
REMARK    3  A    between atoms: S_7  and  N_10
REMARK    4  A    between atoms: N_18  and  C_20
REMARK    5  A    between atoms: C_20  and  C_26
REMARK                            x       y       z     vdW  Elec       q    Type
REMARK                         _______ _______ _______ _____ _____    ______ ____
ROOT
ATOM      1  C   UNL     1      34.652 -19.554 -20.604  0.00  0.00    +0.045 C 
ATOM      2  C   UNL     1      33.750 -21.562 -18.852  0.00  0.00    +0.125 C 
ATOM      3  C   UNL     1      35.564 -20.337 -19.874  0.00  0.00    +0.016 C 
ATOM      4  C   UNL     1      33.277 -19.799 -20.435  0.00  0.00    +0.016 C 
ATOM      5  C   UNL     1      35.117 -21.333 -19.005  0.00  0.00    +0.021 C 
ATOM      6  C   UNL     1      32.830 -20.795 -19.567  0.00  0.00    +0.021 C 
ENDROOT
BRANCH   2   7
ATOM      7  S   UNL     1      33.190 -22.807 -17.764  0.00  0.00    +0.075 S 
ATOM      8  O   UNL     1      34.071 -22.812 -16.601  0.00  0.00    -0.150 OA
ATOM      9  O   UNL     1      33.016 -24.042 -18.518  0.00  0.00    -0.150 OA
BRANCH   7  10
ATOM     10  N   UNL     1      31.650 -22.215 -17.265  0.00  0.00    -0.199 N 
ATOM     11  H   UNL     1      31.146 -21.582 -17.825  0.00  0.00    +0.175 HD
ATOM     12  N   UNL     1      31.790 -22.260 -14.911  0.00  0.00    -0.228 NA
ATOM     13  C   UNL     1      31.125 -22.673 -16.007  0.00  0.00    +0.147 C 
ATOM     14  C   UNL     1      30.006 -23.482 -15.993  0.00  0.00    +0.036 C 
ATOM     15  C   UNL     1      29.532 -23.901 -14.754  0.00  0.00    +0.005 C 
ATOM     16  C   UNL     1      31.301 -22.688 -13.725  0.00  0.00    +0.100 C 
ATOM     17  C   UNL     1      30.186 -23.500 -13.594  0.00  0.00    +0.021 C 
ENDBRANCH   7  10
ENDBRANCH   2   7
BRANCH   1  18
ATOM     18  N   UNL     1      35.097 -18.565 -21.468  0.00  0.00    -0.328 N 
ATOM     19  H   UNL     1      35.691 -18.828 -22.209  0.00  0.00    +0.147 HD
BRANCH  18  20
ATOM     20  C   UNL     1      34.741 -17.173 -21.345  0.00  0.00    +0.127 C 
BRANCH  20  26
ATOM     21  S   UNL     1      33.764 -13.732 -20.874  0.00  0.00    -0.104 S 
ATOM     22  O   UNL     1      34.662 -18.715 -23.847  0.00  0.00    -0.210 OA
ATOM     23  N   UNL     1      33.828 -16.843 -24.952  0.00  0.00    -0.333 NA
ATOM     24  N   UNL     1      32.841 -11.996 -22.566  0.00  0.00    -0.262 NA
ATOM     25  C   UNL     1      33.822 -15.484 -23.075  0.00  0.00    +0.033 C 
ATOM     26  C   UNL     1      34.285 -16.661 -22.659  0.00  0.00    +0.092 C 
ATOM     27  C   UNL     1      33.555 -15.659 -24.512  0.00  0.00    +0.142 C 
ATOM     28  C   UNL     1      33.563 -14.237 -22.486  0.00  0.00    +0.114 C 
ATOM     29  C   UNL     1      34.294 -17.549 -23.862  0.00  0.00    +0.202 C 
ATOM     30  C   UNL     1      33.064 -13.177 -23.226  0.00  0.00    +0.069 C 
ATOM     31  C   UNL     1      33.020 -14.496 -25.270  0.00  0.00    +0.034 C 
ATOM     32  C   UNL     1      32.799 -13.334 -24.624  0.00  0.00    +0.018 C 
ATOM     33  C   UNL     1      33.177 -12.172 -21.306  0.00  0.00    +0.183 C 
ENDBRANCH  20  26
ENDBRANCH  18  20
ENDBRANCH   1  18
TORSDOF 5
ENDMDL
MODEL 2
REMARK VINA RESULT:     -12.7      2.977      3.519
REMARK  Name = 1712
REMARK  5 active torsions:
REMARK  status: ('A' for Active; 'I' for Inactive)
REMARK    1  A    between atoms: C_1  and  N_18
REMARK    2  A    between atoms: C_2  and  S_7
REMARK    3  A    between atoms: S_7  and  N_10
REMARK    4  A    between atoms: N_18  and  C_20
REMARK    5  A    between atoms: C_20  and  C_26
REMARK                            x       y       z     vdW  Elec       q    Type
REMARK                         _______ _______ _______ _____ _____    ______ ____
ROOT
ATOM      1  C   UNL     1      34.388 -20.383 -19.917  0.00  0.00    +0.045 C 
ATOM      2  C   UNL     1      34.458 -21.913 -17.557  0.00  0.00    +0.125 C 
ATOM      3  C   UNL     1      33.212 -20.938 -19.383  0.00  0.00    +0.016 C 
ATOM      4  C   UNL     1      35.601 -20.613 -19.242  0.00  0.00    +0.016 C 
ATOM      5  C   UNL     1      33.246 -21.697 -18.213  0.00  0.00    +0.021 C 
ATOM      6  C   UNL     1      35.635 -21.371 -18.072  0.00  0.00    +0.021 C 
ENDROOT
BRANCH   2   7
ATOM      7  S   UNL     1      34.501 -22.863 -16.093  0.00  0.00    +0.075 S 
ATOM      8  O   UNL     1      33.918 -24.167 -16.391  0.00  0.00    -0.150 OA
ATOM      9  O   UNL     1      33.935 -22.072 -15.007  0.00  0.00    -0.150 OA
BRANCH   7  10
ATOM     10  N   UNL     1      36.190 -23.080 -15.828  0.00  0.00    -0.199 N 
ATOM     11  H   UNL     1      36.854 -22.604 -16.377  0.00  0.00    +0.175 HD
ATOM     12  N   UNL     1      36.327 -25.281 -14.989  0.00  0.00    -0.228 NA
ATOM     13  C   UNL     1      36.600 -23.978 -14.782  0.00  0.00    +0.147 C 
ATOM     14  C   UNL     1      37.231 -23.472 -13.662  0.00  0.00    +0.036 C 
ATOM     15  C   UNL     1      37.610 -24.376 -12.676  0.00  0.00    +0.005 C 
ATOM     16  C   UNL     1      36.710 -26.129 -14.008  0.00  0.00    +0.100 C 
ATOM     17  C   UNL     1      37.349 -25.732 -12.845  0.00  0.00    +0.021 C 
ENDBRANCH   7  10
ENDBRANCH   2   7
BRANCH   1  18
ATOM     18  N   UNL     1      34.355 -19.628 -21.080  0.00  0.00    -0.328 N 
ATOM     19  H   UNL     1      34.006 -20.051 -21.898  0.00  0.00    +0.147 HD
BRANCH  18  20
ATOM     20  C   UNL     1      34.802 -18.260 -21.161  0.00  0.00    +0.127 C 
BRANCH  20  26
ATOM     21  S   UNL     1      34.081 -14.768 -20.609  0.00  0.00    -0.104 S 
ATOM     22  O   UNL     1      34.624 -19.730 -23.701  0.00  0.00    -0.210 OA
ATOM     23  N   UNL     1      33.939 -17.774 -24.763  0.00  0.00    -0.333 NA
ATOM     24  N   UNL     1      33.300 -12.927 -22.261  0.00  0.00    -0.262 NA
ATOM     25  C   UNL     1      34.022 -16.465 -22.853  0.00  0.00    +0.033 C 
ATOM     26  C   UNL     1      34.393 -17.683 -22.464  0.00  0.00    +0.092 C 
ATOM     27  C   UNL     1      33.752 -16.584 -24.294  0.00  0.00    +0.142 C 
ATOM     28  C   UNL     1      33.853 -15.217 -22.234  0.00  0.00    +0.114 C 
ATOM     29  C   UNL     1      34.344 -18.540 -23.689  0.00  0.00    +0.202 C 
ATOM     30  C   UNL     1      33.439 -14.105 -22.949  0.00  0.00    +0.069 C 
ATOM     31  C   UNL     1      33.310 -15.367 -25.026  0.00  0.00    +0.034 C 
ATOM     32  C   UNL     1      33.172 -14.207 -24.352  0.00  0.00    +0.018 C 
ATOM     33  C   UNL     1      33.614 -13.158 -21.004  0.00  0.00    +0.183 C 
ENDBRANCH  20  26
ENDBRANCH  18  20
ENDBRANCH   1  18
TORSDOF 5
ENDMDL
MODEL 3
REMARK VINA RESULT:     -12.7      3.894      6.938
REMARK  Name = 1712
REMARK  5 active torsions:
REMARK  status: ('A' for Active; 'I' for Inactive)
REMARK    1  A    between atoms: C_1  and  N_18
REMARK    2  A    between atoms: C_2  and  S_7
REMARK    3  A    between atoms: S_7  and  N_10
REMARK    4  A    between atoms: N_18  and  C_20
REMARK    5  A    between atoms: C_20  and  C_26
REMARK                            x       y       z     vdW  Elec       q    Type
REMARK                         _______ _______ _______ _____ _____    ______ ____
ROOT
ATOM      1  C   UNL     1      33.651 -13.436 -22.860  0.00  0.00    +0.045 C 
ATOM      2  C   UNL     1      34.366 -16.131 -22.483  0.00  0.00    +0.125 C 
ATOM      3  C   UNL     1      33.847 -13.956 -21.568  0.00  0.00    +0.016 C 
ATOM      4  C   UNL     1      33.820 -14.297 -23.959  0.00  0.00    +0.016 C 
ATOM      5  C   UNL     1      34.202 -15.291 -21.381  0.00  0.00    +0.021 C 
ATOM      6  C   UNL     1      34.175 -15.633 -23.772  0.00  0.00    +0.021 C 
ENDROOT
BRANCH   2   7
ATOM      7  S   UNL     1      34.809 -17.803 -22.249  0.00  0.00    +0.075 S 
ATOM      8  O   UNL     1      36.264 -17.875 -22.194  0.00  0.00    -0.150 OA
ATOM      9  O   UNL     1      34.102 -18.615 -23.231  0.00  0.00    -0.150 OA
BRANCH   7  10
ATOM     10  N   UNL     1      34.197 -18.143 -20.673  0.00  0.00    -0.199 N 
ATOM     11  H   UNL     1      33.845 -17.424 -20.101  0.00  0.00    +0.175 HD
ATOM     12  N   UNL     1      35.439 -20.035 -20.008  0.00  0.00    -0.228 NA
ATOM     13  C   UNL     1      34.218 -19.508 -20.220  0.00  0.00    +0.147 C 
ATOM     14  C   UNL     1      33.025 -20.180 -20.034  0.00  0.00    +0.036 C 
ATOM     15  C   UNL     1      33.092 -21.497 -19.595  0.00  0.00    +0.005 C 
ATOM     16  C   UNL     1      35.464 -21.318 -19.583  0.00  0.00    +0.100 C 
ATOM     17  C   UNL     1      34.331 -22.084 -19.362  0.00  0.00    +0.021 C 
ENDBRANCH   7  10
ENDBRANCH   2   7
BRANCH   1  18
ATOM     18  N   UNL     1      33.299 -12.107 -23.046  0.00  0.00    -0.328 N 
ATOM     19  H   UNL     1      34.019 -11.456 -23.214  0.00  0.00    +0.147 HD
BRANCH  18  20
ATOM     20  C   UNL     1      31.941 -11.624 -23.008  0.00  0.00    +0.127 C 
BRANCH  20  26
ATOM     21  S   UNL     1      32.026  -8.148 -23.970  0.00  0.00    -0.104 S 
ATOM     22  O   UNL     1      31.548 -12.709 -20.303  0.00  0.00    -0.210 OA
ATOM     23  N   UNL     1      31.379 -10.537 -19.478  0.00  0.00    -0.333 NA
ATOM     24  N   UNL     1      31.766  -5.997 -22.543  0.00  0.00    -0.262 NA
ATOM     25  C   UNL     1      31.676  -9.514 -21.535  0.00  0.00    +0.033 C 
ATOM     26  C   UNL     1      31.738 -10.821 -21.778  0.00  0.00    +0.092 C 
ATOM     27  C   UNL     1      31.451  -9.399 -20.086  0.00  0.00    +0.142 C 
ATOM     28  C   UNL     1      31.771  -8.341 -22.299  0.00  0.00    +0.114 C 
ATOM     29  C   UNL     1      31.548 -11.496 -20.457  0.00  0.00    +0.202 C 
ATOM     30  C   UNL     1      31.659  -7.088 -21.719  0.00  0.00    +0.069 C 
ATOM     31  C   UNL     1      31.335  -8.036 -19.501  0.00  0.00    +0.034 C 
ATOM     32  C   UNL     1      31.440  -6.962 -20.309  0.00  0.00    +0.018 C 
ATOM     33  C   UNL     1      31.964  -6.439 -23.767  0.00  0.00    +0.183 C 
ENDBRANCH  20  26
ENDBRANCH  18  20
ENDBRANCH   1  18
TORSDOF 5
ENDMDL
MODEL 4
REMARK VINA RESULT:     -12.6      2.810     10.271
REMARK  Name = 1712
REMARK  5 active torsions:
REMARK  status: ('A' for Active; 'I' for Inactive)
REMARK    1  A    between atoms: C_1  and  N_18
REMARK    2  A    between atoms: C_2  and  S_7
REMARK    3  A    between atoms: S_7  and  N_10
REMARK    4  A    between atoms: N_18  and  C_20
REMARK    5  A    between atoms: C_20  and  C_26
REMARK                            x       y       z     vdW  Elec       q    Type
REMARK                         _______ _______ _______ _____ _____    ______ ____
ROOT
ATOM      1  C   UNL     1      35.289 -20.547 -19.112  0.00  0.00    +0.045 C 
ATOM      2  C   UNL     1      34.631 -19.311 -21.552  0.00  0.00    +0.125 C 
ATOM      3  C   UNL     1      36.260 -19.848 -19.851  0.00  0.00    +0.016 C 
ATOM      4  C   UNL     1      33.981 -20.614 -19.624  0.00  0.00    +0.016 C 
ATOM      5  C   UNL     1      35.934 -19.235 -21.060  0.00  0.00    +0.021 C 
ATOM      6  C   UNL     1      33.654 -20.001 -20.834  0.00  0.00    +0.021 C 
ENDROOT
BRANCH   2   7
ATOM      7  S   UNL     1      34.223 -18.545 -23.067  0.00  0.00    +0.075 S 
ATOM      8  O   UNL     1      32.818 -18.160 -23.007  0.00  0.00    -0.150 OA
ATOM      9  O   UNL     1      34.670 -19.402 -24.158  0.00  0.00    -0.150 OA
BRANCH   7  10
ATOM     10  N   UNL     1      35.173 -17.108 -23.036  0.00  0.00    -0.199 N 
ATOM     11  H   UNL     1      36.070 -17.085 -23.440  0.00  0.00    +0.175 HD
ATOM     12  N   UNL     1      34.453 -16.026 -21.067  0.00  0.00    -0.228 NA
ATOM     13  C   UNL     1      34.616 -15.943 -22.402  0.00  0.00    +0.147 C 
ATOM     14  C   UNL     1      34.291 -14.841 -23.169  0.00  0.00    +0.036 C 
ATOM     15  C   UNL     1      33.756 -13.738 -22.515  0.00  0.00    +0.005 C 
ATOM     16  C   UNL     1      33.930 -14.934 -20.466  0.00  0.00    +0.100 C 
ATOM     17  C   UNL     1      33.569 -13.777 -21.137  0.00  0.00    +0.021 C 
ENDBRANCH   7  10
ENDBRANCH   2   7
BRANCH   1  18
ATOM     18  N   UNL     1      35.613 -21.156 -17.908  0.00  0.00    -0.328 N 
ATOM     19  H   UNL     1      36.478 -20.933 -17.494  0.00  0.00    +0.147 HD
BRANCH  18  20
ATOM     20  C   UNL     1      34.757 -22.098 -17.230  0.00  0.00    +0.127 C 
BRANCH  20  26
ATOM     21  S   UNL     1      32.048 -23.350 -15.203  0.00  0.00    -0.104 S 
ATOM     22  O   UNL     1      37.554 -21.708 -16.412  0.00  0.00    -0.210 OA
ATOM     23  N   UNL     1      37.022 -22.496 -14.286  0.00  0.00    -0.333 NA
ATOM     24  N   UNL     1      32.016 -24.130 -12.729  0.00  0.00    -0.262 NA
ATOM     25  C   UNL     1      34.784 -22.862 -14.759  0.00  0.00    +0.033 C 
ATOM     26  C   UNL     1      35.311 -22.389 -15.886  0.00  0.00    +0.092 C 
ATOM     27  C   UNL     1      35.898 -22.906 -13.799  0.00  0.00    +0.142 C 
ATOM     28  C   UNL     1      33.513 -23.284 -14.340  0.00  0.00    +0.114 C 
ATOM     29  C   UNL     1      36.758 -22.147 -15.595  0.00  0.00    +0.202 C 
ATOM     30  C   UNL     1      33.290 -23.738 -13.050  0.00  0.00    +0.069 C 
ATOM     31  C   UNL     1      35.617 -23.400 -12.424  0.00  0.00    +0.034 C 
ATOM     32  C   UNL     1      34.365 -23.785 -12.106  0.00  0.00    +0.018 C 
ATOM     33  C   UNL     1      31.266 -23.967 -13.798  0.00  0.00    +0.183 C 
ENDBRANCH  20  26
ENDBRANCH  18  20
ENDBRANCH   1  18
TORSDOF 5
ENDMDL
MODEL 5
REMARK VINA RESULT:     -12.2      2.467     10.148
REMARK  Name = 1712
REMARK  5 active torsions:
REMARK  status: ('A' for Active; 'I' for Inactive)
REMARK    1  A    between atoms: C_1  and  N_18
REMARK    2  A    between atoms: C_2  and  S_7
REMARK    3  A    between atoms: S_7  and  N_10
REMARK    4  A    between atoms: N_18  and  C_20
REMARK    5  A    between atoms: C_20  and  C_26
REMARK                            x       y       z     vdW  Elec       q    Type
REMARK                         _______ _______ _______ _____ _____    ______ ____
ROOT
ATOM      1  C   UNL     1      34.427 -20.781 -19.160  0.00  0.00    +0.045 C 
ATOM      2  C   UNL     1      34.264 -19.451 -21.634  0.00  0.00    +0.125 C 
ATOM      3  C   UNL     1      35.589 -20.348 -19.825  0.00  0.00    +0.016 C 
ATOM      4  C   UNL     1      33.181 -20.533 -19.765  0.00  0.00    +0.016 C 
ATOM      5  C   UNL     1      35.508 -19.688 -21.051  0.00  0.00    +0.021 C 
ATOM      6  C   UNL     1      33.100 -19.873 -20.991  0.00  0.00    +0.021 C 
ENDROOT
BRANCH   2   7
ATOM      7  S   UNL     1      34.162 -18.626 -23.169  0.00  0.00    +0.075 S 
ATOM      8  O   UNL     1      32.797 -18.137 -23.323  0.00  0.00    -0.150 OA
ATOM      9  O   UNL     1      34.718 -19.492 -24.202  0.00  0.00    -0.150 OA
BRANCH   7  10
ATOM     10  N   UNL     1      35.195 -17.265 -22.941  0.00  0.00    -0.199 N 
ATOM     11  H   UNL     1      36.128 -17.279 -23.254  0.00  0.00    +0.175 HD
ATOM     12  N   UNL     1      34.351 -16.269 -20.976  0.00  0.00    -0.228 NA
ATOM     13  C   UNL     1      34.653 -16.109 -22.279  0.00  0.00    +0.147 C 
ATOM     14  C   UNL     1      34.479 -14.938 -22.990  0.00  0.00    +0.036 C 
ATOM     15  C   UNL     1      33.953 -13.845 -22.310  0.00  0.00    +0.005 C 
ATOM     16  C   UNL     1      33.841 -15.186 -20.348  0.00  0.00    +0.100 C 
ATOM     17  C   UNL     1      33.626 -13.964 -20.963  0.00  0.00    +0.021 C 
ENDBRANCH   7  10
ENDBRANCH   2   7
BRANCH   1  18
ATOM     18  N   UNL     1      34.507 -21.436 -17.941  0.00  0.00    -0.328 N 
ATOM     19  H   UNL     1      34.905 -20.953 -17.180  0.00  0.00    +0.147 HD
BRANCH  18  20
ATOM     20  C   UNL     1      34.045 -22.784 -17.722  0.00  0.00    +0.127 C 
BRANCH  20  26
ATOM     21  S   UNL     1      36.045 -23.907 -14.938  0.00  0.00    -0.104 S 
ATOM     22  O   UNL     1      31.195 -22.061 -17.684  0.00  0.00    -0.210 OA
ATOM     23  N   UNL     1      31.125 -22.537 -15.405  0.00  0.00    -0.333 NA
ATOM     24  N   UNL     1      35.411 -24.284 -12.451  0.00  0.00    -0.262 NA
ATOM     25  C   UNL     1      33.356 -23.144 -15.255  0.00  0.00    +0.033 C 
ATOM     26  C   UNL     1      33.163 -22.817 -16.531  0.00  0.00    +0.092 C 
ATOM     27  C   UNL     1      32.050 -22.950 -14.604  0.00  0.00    +0.142 C 
ATOM     28  C   UNL     1      34.437 -23.591 -14.481  0.00  0.00    +0.114 C 
ATOM     29  C   UNL     1      31.725 -22.423 -16.643  0.00  0.00    +0.202 C 
ATOM     30  C   UNL     1      34.300 -23.850 -13.127  0.00  0.00    +0.069 C 
ATOM     31  C   UNL     1      31.945 -23.238 -13.148  0.00  0.00    +0.034 C 
ATOM     32  C   UNL     1      33.036 -23.665 -12.481  0.00  0.00    +0.018 C 
ATOM     33  C   UNL     1      36.403 -24.353 -13.314  0.00  0.00    +0.183 C 
ENDBRANCH  20  26
ENDBRANCH  18  20
ENDBRANCH   1  18
TORSDOF 5
ENDMDL
MODEL 6
REMARK VINA RESULT:     -12.1      1.708      2.506
REMARK  Name = 1712
REMARK  5 active torsions:
REMARK  status: ('A' for Active; 'I' for Inactive)
REMARK    1  A    between atoms: C_1  and  N_18
REMARK    2  A    between atoms: C_2  and  S_7
REMARK    3  A    between atoms: S_7  and  N_10
REMARK    4  A    between atoms: N_18  and  C_20
REMARK    5  A    between atoms: C_20  and  C_26
REMARK                            x       y       z     vdW  Elec       q    Type
REMARK                         _______ _______ _______ _____ _____    ______ ____
ROOT
ATOM      1  C   UNL     1      33.800 -19.236 -21.723  0.00  0.00    +0.045 C 
ATOM      2  C   UNL     1      33.741 -21.079 -19.597  0.00  0.00    +0.125 C 
ATOM      3  C   UNL     1      32.585 -19.590 -21.109  0.00  0.00    +0.016 C 
ATOM      4  C   UNL     1      34.985 -19.827 -21.248  0.00  0.00    +0.016 C 
ATOM      5  C   UNL     1      32.555 -20.503 -20.055  0.00  0.00    +0.021 C 
ATOM      6  C   UNL     1      34.956 -20.741 -20.194  0.00  0.00    +0.021 C 
ENDROOT
BRANCH   2   7
ATOM      7  S   UNL     1      33.704 -22.223 -18.280  0.00  0.00    +0.075 S 
ATOM      8  O   UNL     1      34.923 -22.043 -17.499  0.00  0.00    -0.150 OA
ATOM      9  O   UNL     1      33.403 -23.544 -18.817  0.00  0.00    -0.150 OA
BRANCH   7  10
ATOM     10  N   UNL     1      32.375 -21.670 -17.331  0.00  0.00    -0.199 N 
ATOM     11  H   UNL     1      31.958 -20.796 -17.505  0.00  0.00    +0.175 HD
ATOM     12  N   UNL     1      32.735 -22.705 -15.242  0.00  0.00    -0.228 NA
ATOM     13  C   UNL     1      31.894 -22.525 -16.279  0.00  0.00    +0.147 C 
ATOM     14  C   UNL     1      30.640 -23.094 -16.385  0.00  0.00    +0.036 C 
ATOM     15  C   UNL     1      30.216 -23.912 -15.344  0.00  0.00    +0.005 C 
ATOM     16  C   UNL     1      32.288 -23.507 -14.249  0.00  0.00    +0.100 C 
ATOM     17  C   UNL     1      31.050 -24.127 -14.253  0.00  0.00    +0.021 C 
ENDBRANCH   7  10
ENDBRANCH   2   7
BRANCH   1  18
ATOM     18  N   UNL     1      33.830 -18.327 -22.769  0.00  0.00    -0.328 N 
ATOM     19  H   UNL     1      33.137 -18.398 -23.466  0.00  0.00    +0.147 HD
BRANCH  18  20
ATOM     20  C   UNL     1      34.817 -17.284 -22.899  0.00  0.00    +0.127 C 
BRANCH  20  26
ATOM     21  S   UNL     1      33.504 -14.923 -25.289  0.00  0.00    -0.104 S 
ATOM     22  O   UNL     1      35.002 -16.944 -19.984  0.00  0.00    -0.210 OA
ATOM     23  N   UNL     1      34.043 -14.832 -20.190  0.00  0.00    -0.333 NA
ATOM     24  N   UNL     1      32.497 -12.557 -24.943  0.00  0.00    -0.262 NA
ATOM     25  C   UNL     1      33.824 -14.931 -22.494  0.00  0.00    +0.033 C 
ATOM     26  C   UNL     1      34.376 -16.089 -22.140  0.00  0.00    +0.092 C 
ATOM     27  C   UNL     1      33.640 -14.190 -21.236  0.00  0.00    +0.142 C 
ATOM     28  C   UNL     1      33.422 -14.330 -23.697  0.00  0.00    +0.114 C 
ATOM     29  C   UNL     1      34.524 -16.039 -20.654  0.00  0.00    +0.202 C 
ATOM     30  C   UNL     1      32.859 -13.064 -23.721  0.00  0.00    +0.069 C 
ATOM     31  C   UNL     1      33.032 -12.833 -21.305  0.00  0.00    +0.034 C 
ATOM     32  C   UNL     1      32.675 -12.333 -22.504  0.00  0.00    +0.018 C 
ATOM     33  C   UNL     1      32.793 -13.459 -25.854  0.00  0.00    +0.183 C 
ENDBRANCH  20  26
ENDBRANCH  18  20
ENDBRANCH   1  18
TORSDOF 5
ENDMDL
MODEL 7
REMARK VINA RESULT:     -12.1      3.521     10.976
REMARK  Name = 1712
REMARK  5 active torsions:
REMARK  status: ('A' for Active; 'I' for Inactive)
REMARK    1  A    between atoms: C_1  and  N_18
REMARK    2  A    between atoms: C_2  and  S_7
REMARK    3  A    between atoms: S_7  and  N_10
REMARK    4  A    between atoms: N_18  and  C_20
REMARK    5  A    between atoms: C_20  and  C_26
REMARK                            x       y       z     vdW  Elec       q    Type
REMARK                         _______ _______ _______ _____ _____    ______ ____
ROOT
ATOM      1  C   UNL     1      33.901 -21.988 -17.817  0.00  0.00    +0.045 C 
ATOM      2  C   UNL     1      34.872 -20.203 -19.763  0.00  0.00    +0.125 C 
ATOM      3  C   UNL     1      35.265 -21.648 -17.867  0.00  0.00    +0.016 C 
ATOM      4  C   UNL     1      33.035 -21.414 -18.766  0.00  0.00    +0.016 C 
ATOM      5  C   UNL     1      35.746 -20.762 -18.831  0.00  0.00    +0.021 C 
ATOM      6  C   UNL     1      33.516 -20.529 -19.730  0.00  0.00    +0.021 C 
ENDROOT
BRANCH   2   7
ATOM      7  S   UNL     1      35.474 -19.096 -20.971  0.00  0.00    +0.075 S 
ATOM      8  O   UNL     1      35.503 -19.801 -22.247  0.00  0.00    -0.150 OA
ATOM      9  O   UNL     1      36.704 -18.489 -20.476  0.00  0.00    -0.150 OA
BRANCH   7  10
ATOM     10  N   UNL     1      34.233 -17.902 -21.048  0.00  0.00    -0.199 N 
ATOM     11  H   UNL     1      33.567 -17.818 -20.329  0.00  0.00    +0.175 HD
ATOM     12  N   UNL     1      33.894 -17.624 -23.366  0.00  0.00    -0.228 NA
ATOM     13  C   UNL     1      34.201 -17.034 -22.194  0.00  0.00    +0.147 C 
ATOM     14  C   UNL     1      34.476 -15.690 -22.037  0.00  0.00    +0.036 C 
ATOM     15  C   UNL     1      34.432 -14.888 -23.172  0.00  0.00    +0.005 C 
ATOM     16  C   UNL     1      33.862 -16.814 -24.447  0.00  0.00    +0.100 C 
ATOM     17  C   UNL     1      34.120 -15.453 -24.404  0.00  0.00    +0.021 C 
ENDBRANCH   7  10
ENDBRANCH   2   7
BRANCH   1  18
ATOM     18  N   UNL     1      33.422 -22.867 -16.858  0.00  0.00    -0.328 N 
ATOM     19  H   UNL     1      32.482 -22.782 -16.578  0.00  0.00    +0.147 HD
BRANCH  18  20
ATOM     20  C   UNL     1      34.221 -23.899 -16.245  0.00  0.00    +0.127 C 
BRANCH  20  26
ATOM     21  S   UNL     1      37.569 -24.188 -14.932  0.00  0.00    -0.104 S 
ATOM     22  O   UNL     1      31.741 -23.514 -14.714  0.00  0.00    -0.210 OA
ATOM     23  N   UNL     1      32.981 -23.514 -12.743  0.00  0.00    -0.333 NA
ATOM     24  N   UNL     1      38.433 -24.113 -12.487  0.00  0.00    -0.262 NA
ATOM     25  C   UNL     1      35.025 -23.818 -13.788  0.00  0.00    +0.033 C 
ATOM     26  C   UNL     1      34.127 -23.785 -14.769  0.00  0.00    +0.092 C 
ATOM     27  C   UNL     1      34.251 -23.644 -12.549  0.00  0.00    +0.142 C 
ATOM     28  C   UNL     1      36.418 -23.969 -13.699  0.00  0.00    +0.114 C 
ATOM     29  C   UNL     1      32.800 -23.590 -14.109  0.00  0.00    +0.202 C 
ATOM     30  C   UNL     1      37.071 -23.958 -12.477  0.00  0.00    +0.069 C 
ATOM     31  C   UNL     1      34.990 -23.636 -11.257  0.00  0.00    +0.034 C 
ATOM     32  C   UNL     1      36.329 -23.789 -11.264  0.00  0.00    +0.018 C 
ATOM     33  C   UNL     1      38.812 -24.245 -13.741  0.00  0.00    +0.183 C 
ENDBRANCH  20  26
ENDBRANCH  18  20
ENDBRANCH   1  18
TORSDOF 5
ENDMDL
MODEL 8
REMARK VINA RESULT:     -12.1      2.108     10.586
REMARK  Name = 1712
REMARK  5 active torsions:
REMARK  status: ('A' for Active; 'I' for Inactive)
REMARK    1  A    between atoms: C_1  and  N_18
REMARK    2  A    between atoms: C_2  and  S_7
REMARK    3  A    between atoms: S_7  and  N_10
REMARK    4  A    between atoms: N_18  and  C_20
REMARK    5  A    between atoms: C_20  and  C_26
REMARK                            x       y       z     vdW  Elec       q    Type
REMARK                         _______ _______ _______ _____ _____    ______ ____
ROOT
ATOM      1  C   UNL     1      34.113 -21.443 -18.966  0.00  0.00    +0.045 C 
ATOM      2  C   UNL     1      35.154 -19.472 -20.684  0.00  0.00    +0.125 C 
ATOM      3  C   UNL     1      33.260 -20.648 -19.753  0.00  0.00    +0.016 C 
ATOM      4  C   UNL     1      35.500 -21.227 -19.059  0.00  0.00    +0.016 C 
ATOM      5  C   UNL     1      33.776 -19.671 -20.604  0.00  0.00    +0.021 C 
ATOM      6  C   UNL     1      36.016 -20.251 -19.911  0.00  0.00    +0.021 C 
ENDROOT
BRANCH   2   7
ATOM      7  S   UNL     1      35.800 -18.250 -21.749  0.00  0.00    +0.075 S 
ATOM      8  O   UNL     1      35.704 -18.752 -23.114  0.00  0.00    -0.150 OA
ATOM      9  O   UNL     1      37.103 -17.832 -21.244  0.00  0.00    -0.150 OA
BRANCH   7  10
ATOM     10  N   UNL     1      34.673 -16.957 -21.574  0.00  0.00    -0.199 N 
ATOM     11  H   UNL     1      34.337 -16.695 -20.687  0.00  0.00    +0.175 HD
ATOM     12  N   UNL     1      33.485 -16.997 -23.611  0.00  0.00    -0.228 NA
ATOM     13  C   UNL     1      34.240 -16.273 -22.763  0.00  0.00    +0.147 C 
ATOM     14  C   UNL     1      34.608 -14.957 -22.962  0.00  0.00    +0.036 C 
ATOM     15  C   UNL     1      34.166 -14.335 -24.124  0.00  0.00    +0.005 C 
ATOM     16  C   UNL     1      33.074 -16.359 -24.730  0.00  0.00    +0.100 C 
ATOM     17  C   UNL     1      33.384 -15.043 -25.030  0.00  0.00    +0.021 C 
ENDBRANCH   7  10
ENDBRANCH   2   7
BRANCH   1  18
ATOM     18  N   UNL     1      33.600 -22.414 -18.120  0.00  0.00    -0.328 N 
ATOM     19  H   UNL     1      34.125 -23.237 -17.986  0.00  0.00    +0.147 HD
BRANCH  18  20
ATOM     20  C   UNL     1      32.342 -22.291 -17.426  0.00  0.00    +0.127 C 
BRANCH  20  26
ATOM     21  S   UNL     1      28.983 -23.115 -16.399  0.00  0.00    -0.104 S 
ATOM     22  O   UNL     1      34.831 -22.829 -15.956  0.00  0.00    -0.210 OA
ATOM     23  N   UNL     1      33.588 -23.819 -14.254  0.00  0.00    -0.333 NA
ATOM     24  N   UNL     1      28.117 -24.297 -14.258  0.00  0.00    -0.262 NA
ATOM     25  C   UNL     1      31.536 -23.474 -15.272  0.00  0.00    +0.033 C 
ATOM     26  C   UNL     1      32.437 -22.963 -16.108  0.00  0.00    +0.092 C 
ATOM     27  C   UNL     1      32.313 -23.992 -14.135  0.00  0.00    +0.142 C 
ATOM     28  C   UNL     1      30.139 -23.607 -15.252  0.00  0.00    +0.114 C 
ATOM     29  C   UNL     1      33.768 -23.178 -15.463  0.00  0.00    +0.202 C 
ATOM     30  C   UNL     1      29.484 -24.212 -14.192  0.00  0.00    +0.069 C 
ATOM     31  C   UNL     1      31.573 -24.635 -13.016  0.00  0.00    +0.034 C 
ATOM     32  C   UNL     1      30.229 -24.720 -13.079  0.00  0.00    +0.018 C 
ATOM     33  C   UNL     1      27.737 -23.744 -15.391  0.00  0.00    +0.183 C 
ENDBRANCH  20  26
ENDBRANCH  18  20
ENDBRANCH   1  18
TORSDOF 5
ENDMDL
MODEL 9
REMARK VINA RESULT:     -12.0      5.539      9.438
REMARK  Name = 1712
REMARK  5 active torsions:
REMARK  status: ('A' for Active; 'I' for Inactive)
REMARK    1  A    between atoms: C_1  and  N_18
REMARK    2  A    between atoms: C_2  and  S_7
REMARK    3  A    between atoms: S_7  and  N_10
REMARK    4  A    between atoms: N_18  and  C_20
REMARK    5  A    between atoms: C_20  and  C_26
REMARK                            x       y       z     vdW  Elec       q    Type
REMARK                         _______ _______ _______ _____ _____    ______ ____
ROOT
ATOM      1  C   UNL     1      32.231 -11.798 -21.897  0.00  0.00    +0.045 C 
ATOM      2  C   UNL     1      33.005 -13.952 -23.534  0.00  0.00    +0.125 C 
ATOM      3  C   UNL     1      32.626 -13.025 -21.334  0.00  0.00    +0.016 C 
ATOM      4  C   UNL     1      32.232 -11.675 -23.298  0.00  0.00    +0.016 C 
ATOM      5  C   UNL     1      33.010 -14.093 -22.146  0.00  0.00    +0.021 C 
ATOM      6  C   UNL     1      32.616 -12.742 -24.109  0.00  0.00    +0.021 C 
ENDROOT
BRANCH   2   7
ATOM      7  S   UNL     1      33.485 -15.288 -24.549  0.00  0.00    +0.075 S 
ATOM      8  O   UNL     1      33.891 -14.743 -25.840  0.00  0.00    -0.150 OA
ATOM      9  O   UNL     1      32.438 -16.301 -24.513  0.00  0.00    -0.150 OA
BRANCH   7  10
ATOM     10  N   UNL     1      34.893 -15.885 -23.754  0.00  0.00    -0.199 N 
ATOM     11  H   UNL     1      35.764 -15.441 -23.866  0.00  0.00    +0.175 HD
ATOM     12  N   UNL     1      34.469 -18.198 -23.568  0.00  0.00    -0.228 NA
ATOM     13  C   UNL     1      34.757 -17.051 -22.923  0.00  0.00    +0.147 C 
ATOM     14  C   UNL     1      34.923 -16.935 -21.557  0.00  0.00    +0.036 C 
ATOM     15  C   UNL     1      34.783 -18.088 -20.793  0.00  0.00    +0.005 C 
ATOM     16  C   UNL     1      34.339 -19.298 -22.793  0.00  0.00    +0.100 C 
ATOM     17  C   UNL     1      34.486 -19.296 -21.415  0.00  0.00    +0.021 C 
ENDBRANCH   7  10
ENDBRANCH   2   7
BRANCH   1  18
ATOM     18  N   UNL     1      31.850 -10.736 -21.090  0.00  0.00    -0.328 N 
ATOM     19  H   UNL     1      32.278 -10.647 -20.208  0.00  0.00    +0.147 HD
BRANCH  18  20
ATOM     20  C   UNL     1      30.861  -9.757 -21.467  0.00  0.00    +0.127 C 
BRANCH  20  26
ATOM     21  S   UNL     1      30.810  -7.310 -24.118  0.00  0.00    -0.104 S 
ATOM     22  O   UNL     1      31.473  -9.289 -18.630  0.00  0.00    -0.210 OA
ATOM     23  N   UNL     1      31.791  -7.028 -19.092  0.00  0.00    -0.333 NA
ATOM     24  N   UNL     1      31.277  -4.759 -24.066  0.00  0.00    -0.262 NA
ATOM     25  C   UNL     1      31.338  -7.217 -21.356  0.00  0.00    +0.033 C 
ATOM     26  C   UNL     1      31.208  -8.447 -20.865  0.00  0.00    +0.092 C 
ATOM     27  C   UNL     1      31.702  -6.377 -20.204  0.00  0.00    +0.142 C 
ATOM     28  C   UNL     1      31.211  -6.616 -22.618  0.00  0.00    +0.114 C 
ATOM     29  C   UNL     1      31.499  -8.341 -19.402  0.00  0.00    +0.202 C 
ATOM     30  C   UNL     1      31.422  -5.258 -22.797  0.00  0.00    +0.069 C 
ATOM     31  C   UNL     1      31.918  -4.924 -20.438  0.00  0.00    +0.034 C 
ATOM     32  C   UNL     1      31.776  -4.430 -21.685  0.00  0.00    +0.018 C 
ATOM     33  C   UNL     1      30.952  -5.760 -24.856  0.00  0.00    +0.183 C 
ENDBRANCH  20  26
ENDBRANCH  18  20
ENDBRANCH   1  18
TORSDOF 5
ENDMDL
