MODEL 1
REMARK VINA RESULT:     -12.8      0.000      0.000
REMARK  Name = 11394238
REMARK  5 active torsions:
REMARK  status: ('A' for Active; 'I' for Inactive)
REMARK    1  A    between atoms: C_4  and  C_19
REMARK    2  A    between atoms: C_9  and  O_10
REMARK    3  A    between atoms: O_10  and  C_11
REMARK    4  A    between atoms: C_11  and  C_12
REMARK    5  A    between atoms: C_19  and  N_20
REMARK                            x       y       z     vdW  Elec       q    Type
REMARK                         _______ _______ _______ _____ _____    ______ ____
ROOT
ATOM      1  F   UNL     1      35.302 -20.816 -17.875  0.00  0.00    -0.235 F 
ATOM      2  O   UNL     1      36.750 -18.254 -20.508  0.00  0.00    -0.226 OA
ATOM      3  N   UNL     1      34.884 -19.640 -20.479  0.00  0.00    -0.243 N 
ATOM      4  C   UNL     1      33.567 -21.831 -19.114  0.00  0.00    +0.056 C 
ATOM      5  C   UNL     1      35.075 -21.587 -18.977  0.00  0.00    +0.182 C 
ATOM      6  C   UNL     1      32.838 -20.512 -19.417  0.00  0.00    +0.026 C 
ATOM      7  C   UNL     1      35.647 -20.855 -20.186  0.00  0.00    +0.132 C 
ATOM      8  C   UNL     1      33.438 -19.824 -20.640  0.00  0.00    +0.097 C 
ATOM      9  C   UNL     1      35.539 -18.415 -20.643  0.00  0.00    +0.405 C 
ENDROOT
BRANCH   9  10
ATOM     10  O   UNL     1      34.682 -17.398 -20.972  0.00  0.00    -0.430 OA
BRANCH  10  11
ATOM     11  C   UNL     1      35.037 -16.623 -22.123  0.00  0.00    +0.237 C 
BRANCH  11  12
ATOM     12  C   UNL     1      34.242 -15.350 -22.120  0.00  0.00    +0.021 C 
ATOM     13  C   UNL     1      33.889 -14.763 -20.910  0.00  0.00    -0.001 C 
ATOM     14  C   UNL     1      33.865 -14.771 -23.326  0.00  0.00    -0.001 C 
ATOM     15  C   UNL     1      32.768 -12.993 -22.114  0.00  0.00    -0.022 C 
ATOM     16  C   UNL     1      33.149 -13.579 -20.908  0.00  0.00    -0.004 C 
ATOM     17  C   UNL     1      33.126 -13.588 -23.323  0.00  0.00    -0.004 C 
ATOM     18  C   UNL     1      31.978 -11.728 -22.110  0.00  0.00    +0.031 C 
ENDBRANCH  11  12
ENDBRANCH  10  11
ENDBRANCH   9  10
BRANCH   4  19
ATOM     19  C   UNL     1      32.999 -22.483 -17.855  0.00  0.00    +0.100 C 
BRANCH  19  20
ATOM     20  N   UNL     1      31.614 -22.124 -17.703  0.00  0.00    -0.278 N 
ATOM     21  N   UNL     1      29.540 -22.081 -16.607  0.00  0.00    -0.181 NA
ATOM     22  N   UNL     1      31.424 -23.235 -15.645  0.00  0.00    -0.203 NA
ATOM     23  C   UNL     1      30.834 -22.492 -16.616  0.00  0.00    +0.087 C 
ATOM     24  C   UNL     1      28.811 -22.456 -15.536  0.00  0.00    +0.108 C 
ATOM     25  C   UNL     1      30.638 -23.575 -14.603  0.00  0.00    +0.165 C 
ATOM     26  C   UNL     1      29.311 -23.210 -14.494  0.00  0.00    +0.022 C 
ATOM     27  H   UNL     1      31.194 -21.585 -18.413  0.00  0.00    +0.158 HD
ENDBRANCH  19  20
ENDBRANCH   4  19
TORSDOF 5
ENDMDL
MODEL 2
REMARK VINA RESULT:     -12.1      5.310     10.452
REMARK  Name = 11394238
REMARK  5 active torsions:
REMARK  status: ('A' for Active; 'I' for Inactive)
REMARK    1  A    between atoms: C_4  and  C_19
REMARK    2  A    between atoms: C_9  and  O_10
REMARK    3  A    between atoms: O_10  and  C_11
REMARK    4  A    between atoms: C_11  and  C_12
REMARK    5  A    between atoms: C_19  and  N_20
REMARK                            x       y       z     vdW  Elec       q    Type
REMARK                         _______ _______ _______ _____ _____    ______ ____
ROOT
ATOM      1  F   UNL     1      31.396 -12.662 -23.296  0.00  0.00    -0.235 F 
ATOM      2  O   UNL     1      34.250 -15.211 -24.273  0.00  0.00    -0.226 OA
ATOM      3  N   UNL     1      33.826 -13.927 -22.382  0.00  0.00    -0.243 N 
ATOM      4  C   UNL     1      32.232 -11.775 -21.274  0.00  0.00    +0.056 C 
ATOM      5  C   UNL     1      32.431 -11.934 -22.786  0.00  0.00    +0.182 C 
ATOM      6  C   UNL     1      32.347 -13.138 -20.574  0.00  0.00    +0.026 C 
ATOM      7  C   UNL     1      33.727 -12.665 -23.118  0.00  0.00    +0.132 C 
ATOM      8  C   UNL     1      33.664 -13.826 -20.928  0.00  0.00    +0.097 C 
ATOM      9  C   UNL     1      34.114 -15.118 -23.055  0.00  0.00    +0.405 C 
ENDROOT
BRANCH   9  10
ATOM     10  O   UNL     1      34.232 -16.189 -22.207  0.00  0.00    -0.430 OA
BRANCH  10  11
ATOM     11  C   UNL     1      34.628 -17.428 -22.806  0.00  0.00    +0.237 C 
BRANCH  11  12
ATOM     12  C   UNL     1      34.891 -18.433 -21.724  0.00  0.00    +0.021 C 
ATOM     13  C   UNL     1      33.876 -19.295 -21.325  0.00  0.00    -0.001 C 
ATOM     14  C   UNL     1      36.147 -18.492 -21.131  0.00  0.00    -0.001 C 
ATOM     15  C   UNL     1      35.378 -20.295 -19.718  0.00  0.00    -0.022 C 
ATOM     16  C   UNL     1      34.122 -20.230 -20.318  0.00  0.00    -0.004 C 
ATOM     17  C   UNL     1      36.392 -19.428 -20.125  0.00  0.00    -0.004 C 
ATOM     18  C   UNL     1      35.640 -21.295 -18.643  0.00  0.00    +0.031 C 
ENDBRANCH  11  12
ENDBRANCH  10  11
ENDBRANCH   9  10
BRANCH   4  19
ATOM     19  C   UNL     1      30.887 -11.122 -20.962  0.00  0.00    +0.100 C 
BRANCH  19  20
ATOM     20  N   UNL     1      31.070 -10.067 -20.001  0.00  0.00    -0.278 N 
ATOM     21  N   UNL     1      31.473  -7.856 -19.325  0.00  0.00    -0.181 NA
ATOM     22  N   UNL     1      31.402  -8.443 -21.661  0.00  0.00    -0.203 NA
ATOM     23  C   UNL     1      31.323  -8.745 -20.340  0.00  0.00    +0.087 C 
ATOM     24  C   UNL     1      31.718  -6.581 -19.691  0.00  0.00    +0.108 C 
ATOM     25  C   UNL     1      31.649  -7.150 -21.956  0.00  0.00    +0.165 C 
ATOM     26  C   UNL     1      31.817  -6.166 -21.004  0.00  0.00    +0.022 C 
ATOM     27  H   UNL     1      31.011 -10.296 -19.044  0.00  0.00    +0.158 HD
ENDBRANCH  19  20
ENDBRANCH   4  19
TORSDOF 5
ENDMDL
MODEL 3
REMARK VINA RESULT:     -12.1      5.029     10.391
REMARK  Name = 11394238
REMARK  5 active torsions:
REMARK  status: ('A' for Active; 'I' for Inactive)
REMARK    1  A    between atoms: C_4  and  C_19
REMARK    2  A    between atoms: C_9  and  O_10
REMARK    3  A    between atoms: O_10  and  C_11
REMARK    4  A    between atoms: C_11  and  C_12
REMARK    5  A    between atoms: C_19  and  N_20
REMARK                            x       y       z     vdW  Elec       q    Type
REMARK                         _______ _______ _______ _____ _____    ______ ____
ROOT
ATOM      1  F   UNL     1      31.561 -12.978 -23.354  0.00  0.00    -0.235 F 
ATOM      2  O   UNL     1      34.488 -15.571 -23.908  0.00  0.00    -0.226 OA
ATOM      3  N   UNL     1      33.892 -14.178 -22.144  0.00  0.00    -0.243 N 
ATOM      4  C   UNL     1      32.208 -11.970 -21.318  0.00  0.00    +0.056 C 
ATOM      5  C   UNL     1      32.546 -12.218 -22.794  0.00  0.00    +0.182 C 
ATOM      6  C   UNL     1      32.255 -13.289 -20.532  0.00  0.00    +0.026 C 
ATOM      7  C   UNL     1      33.865 -12.963 -22.960  0.00  0.00    +0.132 C 
ATOM      8  C   UNL     1      33.597 -13.992 -20.721  0.00  0.00    +0.097 C 
ATOM      9  C   UNL     1      34.240 -15.407 -22.715  0.00  0.00    +0.405 C 
ENDROOT
BRANCH   9  10
ATOM     10  O   UNL     1      34.276 -16.425 -21.799  0.00  0.00    -0.430 OA
BRANCH  10  11
ATOM     11  C   UNL     1      35.322 -17.388 -21.965  0.00  0.00    +0.237 C 
BRANCH  11  12
ATOM     12  C   UNL     1      35.014 -18.596 -21.130  0.00  0.00    +0.021 C 
ATOM     13  C   UNL     1      36.045 -19.262 -20.478  0.00  0.00    -0.001 C 
ATOM     14  C   UNL     1      33.701 -19.037 -21.017  0.00  0.00    -0.001 C 
ATOM     15  C   UNL     1      34.444 -20.834 -19.584  0.00  0.00    -0.022 C 
ATOM     16  C   UNL     1      35.758 -20.386 -19.702  0.00  0.00    -0.004 C 
ATOM     17  C   UNL     1      33.414 -20.160 -20.240  0.00  0.00    -0.004 C 
ATOM     18  C   UNL     1      34.138 -22.035 -18.753  0.00  0.00    +0.031 C 
ENDBRANCH  11  12
ENDBRANCH  10  11
ENDBRANCH   9  10
BRANCH   4  19
ATOM     19  C   UNL     1      30.841 -11.304 -21.172  0.00  0.00    +0.100 C 
BRANCH  19  20
ATOM     20  N   UNL     1      30.796 -10.106 -21.968  0.00  0.00    -0.278 N 
ATOM     21  N   UNL     1      30.983  -7.797 -22.342  0.00  0.00    -0.181 NA
ATOM     22  N   UNL     1      31.386  -8.734 -20.158  0.00  0.00    -0.203 NA
ATOM     23  C   UNL     1      31.064  -8.837 -21.473  0.00  0.00    +0.087 C 
ATOM     24  C   UNL     1      31.250  -6.579 -21.827  0.00  0.00    +0.108 C 
ATOM     25  C   UNL     1      31.640  -7.487 -19.710  0.00  0.00    +0.165 C 
ATOM     26  C   UNL     1      31.587  -6.361 -20.507  0.00  0.00    +0.022 C 
ATOM     27  H   UNL     1      30.561 -10.191 -22.921  0.00  0.00    +0.158 HD
ENDBRANCH  19  20
ENDBRANCH   4  19
TORSDOF 5
ENDMDL
MODEL 4
REMARK VINA RESULT:     -12.0      4.150      9.650
REMARK  Name = 11394238
REMARK  5 active torsions:
REMARK  status: ('A' for Active; 'I' for Inactive)
REMARK    1  A    between atoms: C_4  and  C_19
REMARK    2  A    between atoms: C_9  and  O_10
REMARK    3  A    between atoms: O_10  and  C_11
REMARK    4  A    between atoms: C_11  and  C_12
REMARK    5  A    between atoms: C_19  and  N_20
REMARK                            x       y       z     vdW  Elec       q    Type
REMARK                         _______ _______ _______ _____ _____    ______ ____
ROOT
ATOM      1  F   UNL     1      32.303 -15.379 -24.643  0.00  0.00    -0.235 F 
ATOM      2  O   UNL     1      34.028 -18.826 -23.786  0.00  0.00    -0.226 OA
ATOM      3  N   UNL     1      34.376 -16.640 -23.077  0.00  0.00    -0.243 N 
ATOM      4  C   UNL     1      33.738 -13.853 -23.551  0.00  0.00    +0.056 C 
ATOM      5  C   UNL     1      33.585 -14.913 -24.650  0.00  0.00    +0.182 C 
ATOM      6  C   UNL     1      33.576 -14.495 -22.165  0.00  0.00    +0.026 C 
ATOM      7  C   UNL     1      34.516 -16.100 -24.431  0.00  0.00    +0.132 C 
ATOM      8  C   UNL     1      34.534 -15.670 -21.990  0.00  0.00    +0.097 C 
ATOM      9  C   UNL     1      34.163 -18.008 -22.879  0.00  0.00    +0.405 C 
ENDROOT
BRANCH   9  10
ATOM     10  O   UNL     1      34.118 -18.349 -21.552  0.00  0.00    -0.430 OA
BRANCH  10  11
ATOM     11  C   UNL     1      35.106 -19.285 -21.108  0.00  0.00    +0.237 C 
BRANCH  11  12
ATOM     12  C   UNL     1      34.488 -20.208 -20.099  0.00  0.00    +0.021 C 
ATOM     13  C   UNL     1      33.104 -20.288 -19.998  0.00  0.00    -0.001 C 
ATOM     14  C   UNL     1      35.306 -20.973 -19.275  0.00  0.00    -0.001 C 
ATOM     15  C   UNL     1      33.343 -21.916 -18.229  0.00  0.00    -0.022 C 
ATOM     16  C   UNL     1      32.530 -21.146 -19.059  0.00  0.00    -0.004 C 
ATOM     17  C   UNL     1      34.730 -21.831 -18.337  0.00  0.00    -0.004 C 
ATOM     18  C   UNL     1      32.728 -22.834 -17.227  0.00  0.00    +0.031 C 
ENDBRANCH  11  12
ENDBRANCH  10  11
ENDBRANCH   9  10
BRANCH   4  19
ATOM     19  C   UNL     1      32.734 -12.718 -23.740  0.00  0.00    +0.100 C 
BRANCH  19  20
ATOM     20  N   UNL     1      32.081 -12.433 -22.490  0.00  0.00    -0.278 N 
ATOM     21  N   UNL     1      31.151 -11.036 -20.850  0.00  0.00    -0.181 NA
ATOM     22  N   UNL     1      32.107 -10.117 -22.862  0.00  0.00    -0.203 NA
ATOM     23  C   UNL     1      31.769 -11.153 -22.053  0.00  0.00    +0.087 C 
ATOM     24  C   UNL     1      30.864  -9.778 -20.457  0.00  0.00    +0.108 C 
ATOM     25  C   UNL     1      31.791  -8.887 -22.407  0.00  0.00    +0.165 C 
ATOM     26  C   UNL     1      31.163  -8.655 -21.200  0.00  0.00    +0.022 C 
ATOM     27  H   UNL     1      31.839 -13.192 -21.910  0.00  0.00    +0.158 HD
ENDBRANCH  19  20
ENDBRANCH   4  19
TORSDOF 5
ENDMDL
MODEL 5
REMARK VINA RESULT:     -11.7      1.444      2.255
REMARK  Name = 11394238
REMARK  5 active torsions:
REMARK  status: ('A' for Active; 'I' for Inactive)
REMARK    1  A    between atoms: C_4  and  C_19
REMARK    2  A    between atoms: C_9  and  O_10
REMARK    3  A    between atoms: O_10  and  C_11
REMARK    4  A    between atoms: C_11  and  C_12
REMARK    5  A    between atoms: C_19  and  N_20
REMARK                            x       y       z     vdW  Elec       q    Type
REMARK                         _______ _______ _______ _____ _____    ______ ____
ROOT
ATOM      1  F   UNL     1      35.158 -20.836 -17.839  0.00  0.00    -0.235 F 
ATOM      2  O   UNL     1      36.702 -18.355 -20.495  0.00  0.00    -0.226 OA
ATOM      3  N   UNL     1      34.796 -19.685 -20.462  0.00  0.00    -0.243 N 
ATOM      4  C   UNL     1      33.403 -21.817 -19.079  0.00  0.00    +0.056 C 
ATOM      5  C   UNL     1      34.916 -21.616 -18.932  0.00  0.00    +0.182 C 
ATOM      6  C   UNL     1      32.717 -20.482 -19.406  0.00  0.00    +0.026 C 
ATOM      7  C   UNL     1      35.520 -20.918 -20.146  0.00  0.00    +0.132 C 
ATOM      8  C   UNL     1      33.347 -19.829 -20.633  0.00  0.00    +0.097 C 
ATOM      9  C   UNL     1      35.488 -18.483 -20.637  0.00  0.00    +0.405 C 
ENDROOT
BRANCH   9  10
ATOM     10  O   UNL     1      34.664 -17.445 -20.989  0.00  0.00    -0.430 OA
BRANCH  10  11
ATOM     11  C   UNL     1      35.069 -16.676 -22.126  0.00  0.00    +0.237 C 
BRANCH  11  12
ATOM     12  C   UNL     1      34.290 -15.394 -22.153  0.00  0.00    +0.021 C 
ATOM     13  C   UNL     1      33.927 -14.836 -23.374  0.00  0.00    -0.001 C 
ATOM     14  C   UNL     1      33.938 -14.777 -20.959  0.00  0.00    -0.001 C 
ATOM     15  C   UNL     1      32.846 -13.019 -22.205  0.00  0.00    -0.022 C 
ATOM     16  C   UNL     1      33.202 -13.644 -23.399  0.00  0.00    -0.004 C 
ATOM     17  C   UNL     1      33.213 -13.585 -20.984  0.00  0.00    -0.004 C 
ATOM     18  C   UNL     1      32.071 -11.745 -22.232  0.00  0.00    +0.031 C 
ENDBRANCH  11  12
ENDBRANCH  10  11
ENDBRANCH   9  10
BRANCH   4  19
ATOM     19  C   UNL     1      32.806 -22.434 -17.815  0.00  0.00    +0.100 C 
BRANCH  19  20
ATOM     20  N   UNL     1      33.861 -22.808 -16.912  0.00  0.00    -0.278 N 
ATOM     21  N   UNL     1      34.748 -23.483 -14.846  0.00  0.00    -0.181 NA
ATOM     22  N   UNL     1      32.381 -23.126 -15.119  0.00  0.00    -0.203 NA
ATOM     23  C   UNL     1      33.657 -23.150 -15.582  0.00  0.00    +0.087 C 
ATOM     24  C   UNL     1      34.513 -23.810 -13.559  0.00  0.00    +0.108 C 
ATOM     25  C   UNL     1      32.218 -23.463 -13.823  0.00  0.00    +0.165 C 
ATOM     26  C   UNL     1      33.257 -23.818 -12.987  0.00  0.00    +0.022 C 
ATOM     27  H   UNL     1      34.784 -22.823 -17.256  0.00  0.00    +0.158 HD
ENDBRANCH  19  20
ENDBRANCH   4  19
TORSDOF 5
ENDMDL
MODEL 6
REMARK VINA RESULT:     -11.3      3.366      4.595
REMARK  Name = 11394238
REMARK  5 active torsions:
REMARK  status: ('A' for Active; 'I' for Inactive)
REMARK    1  A    between atoms: C_4  and  C_19
REMARK    2  A    between atoms: C_9  and  O_10
REMARK    3  A    between atoms: O_10  and  C_11
REMARK    4  A    between atoms: C_11  and  C_12
REMARK    5  A    between atoms: C_19  and  N_20
REMARK                            x       y       z     vdW  Elec       q    Type
REMARK                         _______ _______ _______ _____ _____    ______ ____
ROOT
ATOM      1  F   UNL     1      36.062 -18.821 -23.105  0.00  0.00    -0.235 F 
ATOM      2  O   UNL     1      34.289 -15.911 -25.100  0.00  0.00    -0.226 OA
ATOM      3  N   UNL     1      34.117 -16.695 -22.918  0.00  0.00    -0.243 N 
ATOM      4  C   UNL     1      34.823 -18.834 -21.095  0.00  0.00    +0.056 C 
ATOM      5  C   UNL     1      34.809 -19.043 -22.614  0.00  0.00    +0.182 C 
ATOM      6  C   UNL     1      35.106 -17.361 -20.761  0.00  0.00    +0.026 C 
ATOM      7  C   UNL     1      33.855 -18.081 -23.313  0.00  0.00    +0.132 C 
ATOM      8  C   UNL     1      34.120 -16.439 -21.475  0.00  0.00    +0.097 C 
ATOM      9  C   UNL     1      34.289 -15.703 -23.888  0.00  0.00    +0.405 C 
ENDROOT
BRANCH   9  10
ATOM     10  O   UNL     1      34.462 -14.457 -23.345  0.00  0.00    -0.430 OA
BRANCH  10  11
ATOM     11  C   UNL     1      33.826 -13.374 -24.033  0.00  0.00    +0.237 C 
BRANCH  11  12
ATOM     12  C   UNL     1      33.041 -12.561 -23.046  0.00  0.00    +0.021 C 
ATOM     13  C   UNL     1      32.694 -13.116 -21.819  0.00  0.00    -0.001 C 
ATOM     14  C   UNL     1      32.669 -11.261 -23.367  0.00  0.00    -0.001 C 
ATOM     15  C   UNL     1      31.586 -11.055 -21.217  0.00  0.00    -0.022 C 
ATOM     16  C   UNL     1      31.963 -12.359 -20.902  0.00  0.00    -0.004 C 
ATOM     17  C   UNL     1      31.939 -10.505 -22.449  0.00  0.00    -0.004 C 
ATOM     18  C   UNL     1      30.807 -10.246 -20.236  0.00  0.00    +0.031 C 
ENDBRANCH  11  12
ENDBRANCH  10  11
ENDBRANCH   9  10
BRANCH   4  19
ATOM     19  C   UNL     1      35.850 -19.744 -20.425  0.00  0.00    +0.100 C 
BRANCH  19  20
ATOM     20  N   UNL     1      35.176 -20.754 -19.654  0.00  0.00    -0.278 N 
ATOM     21  N   UNL     1      34.800 -22.076 -17.751  0.00  0.00    -0.181 NA
ATOM     22  N   UNL     1      36.574 -20.445 -17.795  0.00  0.00    -0.203 NA
ATOM     23  C   UNL     1      35.528 -21.103 -18.357  0.00  0.00    +0.087 C 
ATOM     24  C   UNL     1      35.170 -22.389 -16.493  0.00  0.00    +0.108 C 
ATOM     25  C   UNL     1      36.890 -20.809 -16.535  0.00  0.00    +0.165 C 
ATOM     26  C   UNL     1      36.216 -21.784 -15.827  0.00  0.00    +0.022 C 
ATOM     27  H   UNL     1      34.418 -21.227 -20.070  0.00  0.00    +0.158 HD
ENDBRANCH  19  20
ENDBRANCH   4  19
TORSDOF 5
ENDMDL
MODEL 7
REMARK VINA RESULT:     -11.2      4.566      7.407
REMARK  Name = 11394238
REMARK  5 active torsions:
REMARK  status: ('A' for Active; 'I' for Inactive)
REMARK    1  A    between atoms: C_4  and  C_19
REMARK    2  A    between atoms: C_9  and  O_10
REMARK    3  A    between atoms: O_10  and  C_11
REMARK    4  A    between atoms: C_11  and  C_12
REMARK    5  A    between atoms: C_19  and  N_20
REMARK                            x       y       z     vdW  Elec       q    Type
REMARK                         _______ _______ _______ _____ _____    ______ ____
ROOT
ATOM      1  F   UNL     1      33.128 -15.436 -20.782  0.00  0.00    -0.235 F 
ATOM      2  O   UNL     1      31.795 -11.828 -19.889  0.00  0.00    -0.226 OA
ATOM      3  N   UNL     1      32.900 -12.718 -21.730  0.00  0.00    -0.243 N 
ATOM      4  C   UNL     1      34.342 -15.009 -22.762  0.00  0.00    +0.056 C 
ATOM      5  C   UNL     1      34.210 -14.753 -21.256  0.00  0.00    +0.182 C 
ATOM      6  C   UNL     1      33.149 -14.399 -23.514  0.00  0.00    +0.026 C 
ATOM      7  C   UNL     1      34.003 -13.274 -20.945  0.00  0.00    +0.132 C 
ATOM      8  C   UNL     1      32.990 -12.918 -23.179  0.00  0.00    +0.097 C 
ATOM      9  C   UNL     1      31.877 -11.999 -21.103  0.00  0.00    +0.405 C 
ENDROOT
BRANCH   9  10
ATOM     10  O   UNL     1      30.962 -11.497 -21.991  0.00  0.00    -0.430 OA
BRANCH  10  11
ATOM     11  C   UNL     1      30.316 -10.278 -21.611  0.00  0.00    +0.237 C 
BRANCH  11  12
ATOM     12  C   UNL     1      31.228  -9.125 -21.913  0.00  0.00    +0.021 C 
ATOM     13  C   UNL     1      31.471  -8.166 -20.936  0.00  0.00    -0.001 C 
ATOM     14  C   UNL     1      31.820  -9.027 -23.166  0.00  0.00    -0.001 C 
ATOM     15  C   UNL     1      32.916  -6.989 -22.472  0.00  0.00    -0.022 C 
ATOM     16  C   UNL     1      32.319  -7.094 -21.217  0.00  0.00    -0.004 C 
ATOM     17  C   UNL     1      32.668  -7.955 -23.447  0.00  0.00    -0.004 C 
ATOM     18  C   UNL     1      33.823  -5.843 -22.772  0.00  0.00    +0.031 C 
ENDBRANCH  11  12
ENDBRANCH  10  11
ENDBRANCH   9  10
BRANCH   4  19
ATOM     19  C   UNL     1      34.457 -16.503 -23.057  0.00  0.00    +0.100 C 
BRANCH  19  20
ATOM     20  N   UNL     1      35.474 -17.087 -22.223  0.00  0.00    -0.278 N 
ATOM     21  N   UNL     1      36.329 -18.652 -20.697  0.00  0.00    -0.181 NA
ATOM     22  N   UNL     1      34.046 -18.785 -21.458  0.00  0.00    -0.203 NA
ATOM     23  C   UNL     1      35.277 -18.212 -21.433  0.00  0.00    +0.087 C 
ATOM     24  C   UNL     1      36.102 -19.746 -19.942  0.00  0.00    +0.108 C 
ATOM     25  C   UNL     1      33.889 -19.875 -20.679  0.00  0.00    +0.165 C 
ATOM     26  C   UNL     1      34.891 -20.406 -19.893  0.00  0.00    +0.022 C 
ATOM     27  H   UNL     1      36.363 -16.664 -22.212  0.00  0.00    +0.158 HD
ENDBRANCH  19  20
ENDBRANCH   4  19
TORSDOF 5
ENDMDL
MODEL 8
REMARK VINA RESULT:     -11.0      5.081     10.752
REMARK  Name = 11394238
REMARK  5 active torsions:
REMARK  status: ('A' for Active; 'I' for Inactive)
REMARK    1  A    between atoms: C_4  and  C_19
REMARK    2  A    between atoms: C_9  and  O_10
REMARK    3  A    between atoms: O_10  and  C_11
REMARK    4  A    between atoms: C_11  and  C_12
REMARK    5  A    between atoms: C_19  and  N_20
REMARK                            x       y       z     vdW  Elec       q    Type
REMARK                         _______ _______ _______ _____ _____    ______ ____
ROOT
ATOM      1  F   UNL     1      33.863 -11.870 -21.126  0.00  0.00    -0.235 F 
ATOM      2  O   UNL     1      34.389 -15.701 -20.325  0.00  0.00    -0.226 OA
ATOM      3  N   UNL     1      33.392 -14.553 -22.083  0.00  0.00    -0.243 N 
ATOM      4  C   UNL     1      32.448 -11.976 -23.013  0.00  0.00    +0.056 C 
ATOM      5  C   UNL     1      32.623 -12.279 -21.520  0.00  0.00    +0.182 C 
ATOM      6  C   UNL     1      33.412 -12.833 -23.848  0.00  0.00    +0.026 C 
ATOM      7  C   UNL     1      32.505 -13.770 -21.222  0.00  0.00    +0.132 C 
ATOM      8  C   UNL     1      33.249 -14.315 -23.523  0.00  0.00    +0.097 C 
ATOM      9  C   UNL     1      34.263 -15.498 -21.531  0.00  0.00    +0.405 C 
ENDROOT
BRANCH   9  10
ATOM     10  O   UNL     1      34.973 -16.182 -22.482  0.00  0.00    -0.430 OA
BRANCH  10  11
ATOM     11  C   UNL     1      34.464 -17.471 -22.843  0.00  0.00    +0.237 C 
BRANCH  11  12
ATOM     12  C   UNL     1      34.794 -18.451 -21.756  0.00  0.00    +0.021 C 
ATOM     13  C   UNL     1      36.089 -18.508 -21.253  0.00  0.00    -0.001 C 
ATOM     14  C   UNL     1      33.803 -19.292 -21.264  0.00  0.00    -0.001 C 
ATOM     15  C   UNL     1      35.407 -20.267 -19.743  0.00  0.00    -0.022 C 
ATOM     16  C   UNL     1      36.396 -19.420 -20.242  0.00  0.00    -0.004 C 
ATOM     17  C   UNL     1      34.111 -20.203 -20.253  0.00  0.00    -0.004 C 
ATOM     18  C   UNL     1      35.736 -21.241 -18.662  0.00  0.00    +0.031 C 
ENDBRANCH  11  12
ENDBRANCH  10  11
ENDBRANCH   9  10
BRANCH   4  19
ATOM     19  C   UNL     1      32.660 -10.491 -23.301  0.00  0.00    +0.100 C 
BRANCH  19  20
ATOM     20  N   UNL     1      31.815  -9.704 -22.444  0.00  0.00    -0.278 N 
ATOM     21  N   UNL     1      31.145  -7.743 -21.341  0.00  0.00    -0.181 NA
ATOM     22  N   UNL     1      33.101  -7.765 -22.749  0.00  0.00    -0.203 NA
ATOM     23  C   UNL     1      32.027  -8.360 -22.169  0.00  0.00    +0.087 C 
ATOM     24  C   UNL     1      31.382  -6.438 -21.096  0.00  0.00    +0.108 C 
ATOM     25  C   UNL     1      33.278  -6.459 -22.461  0.00  0.00    +0.165 C 
ATOM     26  C   UNL     1      32.443  -5.737 -21.633  0.00  0.00    +0.022 C 
ATOM     27  H   UNL     1      31.038 -10.144 -22.027  0.00  0.00    +0.158 HD
ENDBRANCH  19  20
ENDBRANCH   4  19
TORSDOF 5
ENDMDL
MODEL 9
REMARK VINA RESULT:     -10.9      3.971      9.756
REMARK  Name = 11394238
REMARK  5 active torsions:
REMARK  status: ('A' for Active; 'I' for Inactive)
REMARK    1  A    between atoms: C_4  and  C_19
REMARK    2  A    between atoms: C_9  and  O_10
REMARK    3  A    between atoms: O_10  and  C_11
REMARK    4  A    between atoms: C_11  and  C_12
REMARK    5  A    between atoms: C_19  and  N_20
REMARK                            x       y       z     vdW  Elec       q    Type
REMARK                         _______ _______ _______ _____ _____    ______ ____
ROOT
ATOM      1  F   UNL     1      33.186 -19.778 -19.516  0.00  0.00    -0.235 F 
ATOM      2  O   UNL     1      32.413 -22.768 -17.056  0.00  0.00    -0.226 OA
ATOM      3  N   UNL     1      34.330 -22.056 -18.161  0.00  0.00    -0.243 N 
ATOM      4  C   UNL     1      35.383 -20.296 -20.208  0.00  0.00    +0.056 C 
ATOM      5  C   UNL     1      33.909 -20.718 -20.189  0.00  0.00    +0.182 C 
ATOM      6  C   UNL     1      35.963 -20.319 -18.785  0.00  0.00    +0.026 C 
ATOM      7  C   UNL     1      33.707 -22.056 -19.486  0.00  0.00    +0.132 C 
ATOM      8  C   UNL     1      35.747 -21.679 -18.128  0.00  0.00    +0.097 C 
ATOM      9  C   UNL     1      33.601 -22.452 -17.035  0.00  0.00    +0.405 C 
ENDROOT
BRANCH   9  10
ATOM     10  O   UNL     1      34.354 -22.452 -15.890  0.00  0.00    -0.430 OA
BRANCH  10  11
ATOM     11  C   UNL     1      34.345 -23.665 -15.130  0.00  0.00    +0.237 C 
BRANCH  11  12
ATOM     12  C   UNL     1      35.759 -24.117 -14.911  0.00  0.00    +0.021 C 
ATOM     13  C   UNL     1      36.019 -25.455 -14.637  0.00  0.00    -0.001 C 
ATOM     14  C   UNL     1      36.795 -23.193 -14.984  0.00  0.00    -0.001 C 
ATOM     15  C   UNL     1      38.379 -24.953 -14.505  0.00  0.00    -0.022 C 
ATOM     16  C   UNL     1      37.335 -25.874 -14.433  0.00  0.00    -0.004 C 
ATOM     17  C   UNL     1      38.110 -23.613 -14.781  0.00  0.00    -0.004 C 
ATOM     18  C   UNL     1      39.785 -25.402 -14.288  0.00  0.00    +0.031 C 
ENDBRANCH  11  12
ENDBRANCH  10  11
ENDBRANCH   9  10
BRANCH   4  19
ATOM     19  C   UNL     1      35.551 -18.914 -20.835  0.00  0.00    +0.100 C 
BRANCH  19  20
ATOM     20  N   UNL     1      34.857 -18.863 -22.094  0.00  0.00    -0.278 N 
ATOM     21  N   UNL     1      33.854 -17.791 -23.925  0.00  0.00    -0.181 NA
ATOM     22  N   UNL     1      34.846 -16.517 -22.136  0.00  0.00    -0.203 NA
ATOM     23  C   UNL     1      34.507 -17.685 -22.740  0.00  0.00    +0.087 C 
ATOM     24  C   UNL     1      33.530 -16.626 -24.524  0.00  0.00    +0.108 C 
ATOM     25  C   UNL     1      34.492 -15.392 -22.790  0.00  0.00    +0.165 C 
ATOM     26  C   UNL     1      33.827 -15.385 -23.999  0.00  0.00    +0.022 C 
ATOM     27  H   UNL     1      34.615 -19.716 -22.525  0.00  0.00    +0.158 HD
ENDBRANCH  19  20
ENDBRANCH   4  19
TORSDOF 5
ENDMDL
