MODEL 1
REMARK VINA RESULT:     -13.2      0.000      0.000
REMARK  Name = 6918314
REMARK  8 active torsions:
REMARK  status: ('A' for Active; 'I' for Inactive)
REMARK    1  A    between atoms: N_1  and  C_22
REMARK    2  A    between atoms: N_2  and  C_9
REMARK    3  A    between atoms: C_16  and  C_19
REMARK    4  A    between atoms: C_22  and  C_23
REMARK    5  A    between atoms: C_23  and  C_24
REMARK    6  A    between atoms: C_24  and  C_25
REMARK    7  A    between atoms: C_25  and  C_27
REMARK    8  A    between atoms: C_33  and  C_37
REMARK                            x       y       z     vdW  Elec       q    Type
REMARK                         _______ _______ _______ _____ _____    ______ ____
ROOT
ATOM      1  N   UNL     1      34.644 -15.743 -22.752  0.00  0.00    +0.389 N 
ATOM      2  N   UNL     1      33.089 -13.384 -22.333  0.00  0.00    -0.312 N 
ATOM      3  C   UNL     1      33.660 -15.315 -23.753  0.00  0.00    -0.055 C 
ATOM      4  C   UNL     1      34.172 -15.394 -21.407  0.00  0.00    -0.055 C 
ATOM      5  C   UNL     1      33.440 -13.802 -23.696  0.00  0.00    +0.068 C 
ATOM      6  C   UNL     1      33.968 -13.883 -21.271  0.00  0.00    +0.068 C 
ATOM      7  H   UNL     1      35.525 -15.259 -22.927  0.00  0.00    -0.080 HD
ENDROOT
BRANCH   2   9
ATOM      8  O   UNL     1      30.544  -8.506 -21.815  0.00  0.00    -0.449 OA
ATOM      9  C   UNL     1      32.427 -12.161 -22.170  0.00  0.00    +0.048 C 
ATOM     10  C   UNL     1      32.635 -11.103 -23.089  0.00  0.00    +0.018 C 
ATOM     11  C   UNL     1      31.542 -11.961 -21.087  0.00  0.00    +0.018 C 
ATOM     12  C   UNL     1      31.962  -9.881 -22.911  0.00  0.00    +0.039 C 
ATOM     13  C   UNL     1      31.103  -9.749 -21.825  0.00  0.00    +0.146 C 
ATOM     14  C   UNL     1      30.861 -10.755 -20.891  0.00  0.00    +0.039 C 
ATOM     15  C   UNL     1      31.914  -8.639 -23.595  0.00  0.00    +0.045 C 
ATOM     16  C   UNL     1      31.042  -7.842 -22.891  0.00  0.00    +0.198 C 
BRANCH  16  19
ATOM     17  O   UNL     1      30.070  -5.775 -22.234  0.00  0.00    -0.267 OA
ATOM     18  N   UNL     1      30.762  -5.951 -24.388  0.00  0.00    -0.323 N 
ATOM     19  C   UNL     1      30.607  -6.504 -23.107  0.00  0.00    +0.277 C 
ATOM     20  H   UNL     1      30.470  -5.028 -24.565  0.00  0.00    +0.145 HD
ATOM     21  H   UNL     1      31.163  -6.487 -25.110  0.00  0.00    +0.145 HD
ENDBRANCH  16  19
ENDBRANCH   2   9
BRANCH   1  22
ATOM     22  C   UNL     1      34.886 -17.182 -22.853  0.00  0.00    -0.077 C 
BRANCH  22  23
ATOM     23  C   UNL     1      35.017 -17.797 -21.461  0.00  0.00    -0.022 C 
BRANCH  23  24
ATOM     24  C   UNL     1      34.551 -19.254 -21.454  0.00  0.00    +0.003 C 
BRANCH  24  25
ATOM     25  C   UNL     1      35.179 -20.036 -20.297  0.00  0.00    +0.028 C 
BRANCH  25  27
ATOM     26  N   UNL     1      32.259 -21.713 -18.884  0.00  0.00    -0.312 N 
ATOM     27  C   UNL     1      34.160 -20.800 -19.505  0.00  0.00    -0.006 C 
ATOM     28  C   UNL     1      34.395 -21.467 -18.286  0.00  0.00    +0.011 C 
ATOM     29  C   UNL     1      32.854 -20.959 -19.860  0.00  0.00    +0.058 C 
ATOM     30  C   UNL     1      33.177 -22.039 -17.910  0.00  0.00    +0.048 C 
ATOM     31  C   UNL     1      35.516 -21.651 -17.451  0.00  0.00    +0.011 C 
ATOM     32  C   UNL     1      33.024 -22.786 -16.738  0.00  0.00    +0.015 C 
ATOM     33  C   UNL     1      35.377 -22.397 -16.275  0.00  0.00    +0.069 C 
ATOM     34  C   UNL     1      34.149 -22.956 -15.926  0.00  0.00    +0.012 C 
ATOM     35  H   UNL     1      31.313 -21.985 -18.879  0.00  0.00    +0.152 HD
BRANCH  33  37
ATOM     36  N   UNL     1      37.429 -22.740 -14.732  0.00  0.00    -0.191 NA
ATOM     37  C   UNL     1      36.510 -22.587 -15.424  0.00  0.00    +0.100 C 
ENDBRANCH  33  37
ENDBRANCH  25  27
ENDBRANCH  24  25
ENDBRANCH  23  24
ENDBRANCH  22  23
ENDBRANCH   1  22
TORSDOF 8
ENDMDL
MODEL 2
REMARK VINA RESULT:     -13.0      2.564      5.585
REMARK  Name = 6918314
REMARK  8 active torsions:
REMARK  status: ('A' for Active; 'I' for Inactive)
REMARK    1  A    between atoms: N_1  and  C_22
REMARK    2  A    between atoms: N_2  and  C_9
REMARK    3  A    between atoms: C_16  and  C_19
REMARK    4  A    between atoms: C_22  and  C_23
REMARK    5  A    between atoms: C_23  and  C_24
REMARK    6  A    between atoms: C_24  and  C_25
REMARK    7  A    between atoms: C_25  and  C_27
REMARK    8  A    between atoms: C_33  and  C_37
REMARK                            x       y       z     vdW  Elec       q    Type
REMARK                         _______ _______ _______ _____ _____    ______ ____
ROOT
ATOM      1  N   UNL     1      35.405 -20.610 -20.135  0.00  0.00    +0.389 N 
ATOM      2  N   UNL     1      34.774 -18.083 -21.307  0.00  0.00    -0.312 N 
ATOM      3  C   UNL     1      34.009 -20.171 -20.244  0.00  0.00    -0.055 C 
ATOM      4  C   UNL     1      36.278 -19.452 -19.916  0.00  0.00    -0.055 C 
ATOM      5  C   UNL     1      33.828 -19.201 -21.413  0.00  0.00    +0.068 C 
ATOM      6  C   UNL     1      36.173 -18.456 -21.073  0.00  0.00    +0.068 C 
ATOM      7  H   UNL     1      35.676 -21.066 -21.006  0.00  0.00    -0.080 HD
ENDROOT
BRANCH   2   9
ATOM      8  O   UNL     1      33.586 -13.343 -23.886  0.00  0.00    -0.449 OA
ATOM      9  C   UNL     1      34.476 -16.901 -21.994  0.00  0.00    +0.048 C 
ATOM     10  C   UNL     1      34.228 -15.700 -21.284  0.00  0.00    +0.018 C 
ATOM     11  C   UNL     1      34.416 -16.884 -23.405  0.00  0.00    +0.018 C 
ATOM     12  C   UNL     1      33.930 -14.521 -21.989  0.00  0.00    +0.039 C 
ATOM     13  C   UNL     1      33.887 -14.571 -23.379  0.00  0.00    +0.146 C 
ATOM     14  C   UNL     1      34.122 -15.723 -24.128  0.00  0.00    +0.039 C 
ATOM     15  C   UNL     1      33.635 -13.176 -21.643  0.00  0.00    +0.045 C 
ATOM     16  C   UNL     1      33.435 -12.505 -22.826  0.00  0.00    +0.198 C 
BRANCH  16  19
ATOM     17  O   UNL     1      31.996 -10.614 -22.865  0.00  0.00    -0.267 OA
ATOM     18  N   UNL     1      34.096 -10.329 -23.677  0.00  0.00    -0.323 N 
ATOM     19  C   UNL     1      33.113 -11.145 -23.094  0.00  0.00    +0.277 C 
ATOM     20  H   UNL     1      33.900  -9.384 -23.872  0.00  0.00    +0.145 HD
ATOM     21  H   UNL     1      34.982 -10.702 -23.890  0.00  0.00    +0.145 HD
ENDBRANCH  16  19
ENDBRANCH   2   9
BRANCH   1  22
ATOM     22  C   UNL     1      35.554 -21.578 -19.049  0.00  0.00    -0.077 C 
BRANCH  22  23
ATOM     23  C   UNL     1      36.198 -20.916 -17.832  0.00  0.00    -0.022 C 
BRANCH  23  24
ATOM     24  C   UNL     1      35.821 -21.645 -16.541  0.00  0.00    +0.003 C 
BRANCH  24  25
ATOM     25  C   UNL     1      34.535 -22.458 -16.715  0.00  0.00    +0.028 C 
BRANCH  25  27
ATOM     26  N   UNL     1      33.571 -23.265 -13.286  0.00  0.00    -0.312 N 
ATOM     27  C   UNL     1      33.870 -22.760 -15.405  0.00  0.00    -0.006 C 
ATOM     28  C   UNL     1      32.480 -22.782 -15.172  0.00  0.00    +0.011 C 
ATOM     29  C   UNL     1      34.524 -23.055 -14.246  0.00  0.00    +0.058 C 
ATOM     30  C   UNL     1      32.313 -23.104 -13.823  0.00  0.00    +0.048 C 
ATOM     31  C   UNL     1      31.335 -22.562 -15.963  0.00  0.00    +0.011 C 
ATOM     32  C   UNL     1      31.053 -23.219 -13.225  0.00  0.00    +0.015 C 
ATOM     33  C   UNL     1      30.068 -22.673 -15.377  0.00  0.00    +0.069 C 
ATOM     34  C   UNL     1      29.932 -22.996 -14.029  0.00  0.00    +0.012 C 
ATOM     35  H   UNL     1      33.757 -23.497 -12.348  0.00  0.00    +0.152 HD
BRANCH  33  37
ATOM     36  N   UNL     1      27.955 -22.274 -16.822  0.00  0.00    -0.191 NA
ATOM     37  C   UNL     1      28.902 -22.453 -16.175  0.00  0.00    +0.100 C 
ENDBRANCH  33  37
ENDBRANCH  25  27
ENDBRANCH  24  25
ENDBRANCH  23  24
ENDBRANCH  22  23
ENDBRANCH   1  22
TORSDOF 8
ENDMDL
MODEL 3
REMARK VINA RESULT:     -12.7      2.583      5.319
REMARK  Name = 6918314
REMARK  8 active torsions:
REMARK  status: ('A' for Active; 'I' for Inactive)
REMARK    1  A    between atoms: N_1  and  C_22
REMARK    2  A    between atoms: N_2  and  C_9
REMARK    3  A    between atoms: C_16  and  C_19
REMARK    4  A    between atoms: C_22  and  C_23
REMARK    5  A    between atoms: C_23  and  C_24
REMARK    6  A    between atoms: C_24  and  C_25
REMARK    7  A    between atoms: C_25  and  C_27
REMARK    8  A    between atoms: C_33  and  C_37
REMARK                            x       y       z     vdW  Elec       q    Type
REMARK                         _______ _______ _______ _____ _____    ______ ____
ROOT
ATOM      1  N   UNL     1      35.445 -20.473 -20.131  0.00  0.00    +0.389 N 
ATOM      2  N   UNL     1      34.768 -17.979 -21.346  0.00  0.00    -0.312 N 
ATOM      3  C   UNL     1      34.044 -20.045 -20.216  0.00  0.00    -0.055 C 
ATOM      4  C   UNL     1      36.315 -19.304 -19.961  0.00  0.00    -0.055 C 
ATOM      5  C   UNL     1      33.827 -19.104 -21.403  0.00  0.00    +0.068 C 
ATOM      6  C   UNL     1      36.174 -18.337 -21.139  0.00  0.00    +0.068 C 
ATOM      7  H   UNL     1      35.698 -20.948 -20.998  0.00  0.00    -0.080 HD
ENDROOT
BRANCH   2   9
ATOM      8  O   UNL     1      33.489 -13.308 -24.009  0.00  0.00    -0.449 OA
ATOM      9  C   UNL     1      34.445 -16.815 -22.054  0.00  0.00    +0.048 C 
ATOM     10  C   UNL     1      34.253 -15.589 -21.372  0.00  0.00    +0.018 C 
ATOM     11  C   UNL     1      34.302 -16.843 -23.460  0.00  0.00    +0.018 C 
ATOM     12  C   UNL     1      33.929 -14.429 -22.097  0.00  0.00    +0.039 C 
ATOM     13  C   UNL     1      33.804 -14.523 -23.479  0.00  0.00    +0.146 C 
ATOM     14  C   UNL     1      33.981 -15.702 -24.202  0.00  0.00    +0.039 C 
ATOM     15  C   UNL     1      33.672 -13.070 -21.778  0.00  0.00    +0.045 C 
ATOM     16  C   UNL     1      33.412 -12.434 -22.970  0.00  0.00    +0.198 C 
BRANCH  16  19
ATOM     17  O   UNL     1      31.941 -10.578 -23.173  0.00  0.00    -0.267 OA
ATOM     18  N   UNL     1      34.119 -10.232 -23.708  0.00  0.00    -0.323 N 
ATOM     19  C   UNL     1      33.091 -11.079 -23.264  0.00  0.00    +0.277 C 
ATOM     20  H   UNL     1      33.925  -9.290 -23.919  0.00  0.00    +0.145 HD
ATOM     21  H   UNL     1      35.034 -10.581 -23.811  0.00  0.00    +0.145 HD
ENDBRANCH  16  19
ENDBRANCH   2   9
BRANCH   1  22
ATOM     22  C   UNL     1      35.628 -21.414 -19.026  0.00  0.00    -0.077 C 
BRANCH  22  23
ATOM     23  C   UNL     1      36.345 -20.732 -17.862  0.00  0.00    -0.022 C 
BRANCH  23  24
ATOM     24  C   UNL     1      36.440 -21.662 -16.651  0.00  0.00    +0.003 C 
BRANCH  24  25
ATOM     25  C   UNL     1      35.167 -22.498 -16.488  0.00  0.00    +0.028 C 
BRANCH  25  27
ATOM     26  N   UNL     1      34.065 -23.352 -13.113  0.00  0.00    -0.312 N 
ATOM     27  C   UNL     1      34.973 -22.973 -15.079  0.00  0.00    -0.006 C 
ATOM     28  C   UNL     1      35.912 -23.697 -14.316  0.00  0.00    +0.011 C 
ATOM     29  C   UNL     1      33.850 -22.770 -14.334  0.00  0.00    +0.058 C 
ATOM     30  C   UNL     1      35.316 -23.926 -13.074  0.00  0.00    +0.048 C 
ATOM     31  C   UNL     1      37.213 -24.187 -14.545  0.00  0.00    +0.011 C 
ATOM     32  C   UNL     1      35.959 -24.623 -12.045  0.00  0.00    +0.015 C 
ATOM     33  C   UNL     1      37.869 -24.886 -13.524  0.00  0.00    +0.069 C 
ATOM     34  C   UNL     1      37.250 -25.100 -12.295  0.00  0.00    +0.012 C 
ATOM     35  H   UNL     1      33.419 -23.359 -12.370  0.00  0.00    +0.152 HD
BRANCH  33  37
ATOM     36  N   UNL     1      40.262 -25.792 -13.931  0.00  0.00    -0.191 NA
ATOM     37  C   UNL     1      39.190 -25.386 -13.749  0.00  0.00    +0.100 C 
ENDBRANCH  33  37
ENDBRANCH  25  27
ENDBRANCH  24  25
ENDBRANCH  23  24
ENDBRANCH  22  23
ENDBRANCH   1  22
TORSDOF 8
ENDMDL
MODEL 4
REMARK VINA RESULT:     -12.6      4.532     12.270
REMARK  Name = 6918314
REMARK  8 active torsions:
REMARK  status: ('A' for Active; 'I' for Inactive)
REMARK    1  A    between atoms: N_1  and  C_22
REMARK    2  A    between atoms: N_2  and  C_9
REMARK    3  A    between atoms: C_16  and  C_19
REMARK    4  A    between atoms: C_22  and  C_23
REMARK    5  A    between atoms: C_23  and  C_24
REMARK    6  A    between atoms: C_24  and  C_25
REMARK    7  A    between atoms: C_25  and  C_27
REMARK    8  A    between atoms: C_33  and  C_37
REMARK                            x       y       z     vdW  Elec       q    Type
REMARK                         _______ _______ _______ _____ _____    ______ ____
ROOT
ATOM      1  N   UNL     1      34.455 -17.811 -22.773  0.00  0.00    +0.389 N 
ATOM      2  N   UNL     1      34.757 -19.673 -20.629  0.00  0.00    -0.312 N 
ATOM      3  C   UNL     1      33.532 -18.943 -22.638  0.00  0.00    -0.055 C 
ATOM      4  C   UNL     1      35.792 -18.198 -22.309  0.00  0.00    -0.055 C 
ATOM      5  C   UNL     1      33.425 -19.396 -21.180  0.00  0.00    +0.068 C 
ATOM      6  C   UNL     1      35.762 -18.627 -20.840  0.00  0.00    +0.068 C 
ATOM      7  H   UNL     1      34.118 -17.040 -22.196  0.00  0.00    -0.080 HD
ENDROOT
BRANCH   2   9
ATOM      8  O   UNL     1      35.242 -22.899 -16.168  0.00  0.00    -0.449 OA
ATOM      9  C   UNL     1      34.844 -20.503 -19.505  0.00  0.00    +0.048 C 
ATOM     10  C   UNL     1      36.028 -20.539 -18.728  0.00  0.00    +0.018 C 
ATOM     11  C   UNL     1      33.754 -21.319 -19.127  0.00  0.00    +0.018 C 
ATOM     12  C   UNL     1      36.099 -21.378 -17.602  0.00  0.00    +0.039 C 
ATOM     13  C   UNL     1      34.991 -22.156 -17.282  0.00  0.00    +0.146 C 
ATOM     14  C   UNL     1      33.803 -22.161 -18.010  0.00  0.00    +0.039 C 
ATOM     15  C   UNL     1      37.076 -21.674 -16.615  0.00  0.00    +0.045 C 
ATOM     16  C   UNL     1      36.507 -22.600 -15.772  0.00  0.00    +0.198 C 
BRANCH  16  19
ATOM     17  O   UNL     1      37.195 -22.703 -13.499  0.00  0.00    -0.267 OA
ATOM     18  N   UNL     1      37.363 -24.611 -14.715  0.00  0.00    -0.323 N 
ATOM     19  C   UNL     1      37.014 -23.255 -14.614  0.00  0.00    +0.277 C 
ATOM     20  H   UNL     1      37.716 -25.089 -13.930  0.00  0.00    +0.145 HD
ATOM     21  H   UNL     1      37.255 -25.085 -15.571  0.00  0.00    +0.145 HD
ENDBRANCH  16  19
ENDBRANCH   2   9
BRANCH   1  22
ATOM     22  C   UNL     1      34.506 -17.353 -24.161  0.00  0.00    -0.077 C 
BRANCH  22  23
ATOM     23  C   UNL     1      33.842 -15.983 -24.292  0.00  0.00    -0.022 C 
BRANCH  23  24
ATOM     24  C   UNL     1      34.202 -15.079 -23.112  0.00  0.00    +0.003 C 
BRANCH  24  25
ATOM     25  C   UNL     1      33.720 -13.643 -23.342  0.00  0.00    +0.028 C 
BRANCH  25  27
ATOM     26  N   UNL     1      31.937 -12.977 -20.226  0.00  0.00    -0.312 N 
ATOM     27  C   UNL     1      32.934 -13.113 -22.180  0.00  0.00    -0.006 C 
ATOM     28  C   UNL     1      32.345 -11.834 -22.098  0.00  0.00    +0.011 C 
ATOM     29  C   UNL     1      32.678 -13.800 -21.031  0.00  0.00    +0.058 C 
ATOM     30  C   UNL     1      31.720 -11.770 -20.851  0.00  0.00    +0.048 C 
ATOM     31  C   UNL     1      32.275 -10.715 -22.951  0.00  0.00    +0.011 C 
ATOM     32  C   UNL     1      31.023 -10.638 -20.414  0.00  0.00    +0.015 C 
ATOM     33  C   UNL     1      31.581  -9.576 -22.526  0.00  0.00    +0.069 C 
ATOM     34  C   UNL     1      30.966  -9.540 -21.277  0.00  0.00    +0.012 C 
ATOM     35  H   UNL     1      31.608 -13.214 -19.329  0.00  0.00    +0.152 HD
BRANCH  33  37
ATOM     36  N   UNL     1      31.442  -7.511 -24.086  0.00  0.00    -0.191 NA
ATOM     37  C   UNL     1      31.505  -8.436 -23.388  0.00  0.00    +0.100 C 
ENDBRANCH  33  37
ENDBRANCH  25  27
ENDBRANCH  24  25
ENDBRANCH  23  24
ENDBRANCH  22  23
ENDBRANCH   1  22
TORSDOF 8
ENDMDL
MODEL 5
REMARK VINA RESULT:     -12.6      2.466      5.011
REMARK  Name = 6918314
REMARK  8 active torsions:
REMARK  status: ('A' for Active; 'I' for Inactive)
REMARK    1  A    between atoms: N_1  and  C_22
REMARK    2  A    between atoms: N_2  and  C_9
REMARK    3  A    between atoms: C_16  and  C_19
REMARK    4  A    between atoms: C_22  and  C_23
REMARK    5  A    between atoms: C_23  and  C_24
REMARK    6  A    between atoms: C_24  and  C_25
REMARK    7  A    between atoms: C_25  and  C_27
REMARK    8  A    between atoms: C_33  and  C_37
REMARK                            x       y       z     vdW  Elec       q    Type
REMARK                         _______ _______ _______ _____ _____    ______ ____
ROOT
ATOM      1  N   UNL     1      35.486 -20.316 -20.427  0.00  0.00    +0.389 N 
ATOM      2  N   UNL     1      34.762 -17.799 -21.565  0.00  0.00    -0.312 N 
ATOM      3  C   UNL     1      34.082 -19.890 -20.454  0.00  0.00    -0.055 C 
ATOM      4  C   UNL     1      36.359 -19.148 -20.263  0.00  0.00    -0.055 C 
ATOM      5  C   UNL     1      33.822 -18.925 -21.613  0.00  0.00    +0.068 C 
ATOM      6  C   UNL     1      36.176 -18.158 -21.414  0.00  0.00    +0.068 C 
ATOM      7  H   UNL     1      35.709 -20.771 -21.312  0.00  0.00    -0.080 HD
ENDROOT
BRANCH   2   9
ATOM      8  O   UNL     1      33.385 -13.075 -24.082  0.00  0.00    -0.449 OA
ATOM      9  C   UNL     1      34.412 -16.621 -22.237  0.00  0.00    +0.048 C 
ATOM     10  C   UNL     1      34.263 -15.405 -21.525  0.00  0.00    +0.018 C 
ATOM     11  C   UNL     1      34.200 -16.625 -23.633  0.00  0.00    +0.018 C 
ATOM     12  C   UNL     1      33.911 -14.231 -22.214  0.00  0.00    +0.039 C 
ATOM     13  C   UNL     1      33.718 -14.302 -23.590  0.00  0.00    +0.146 C 
ATOM     14  C   UNL     1      33.851 -15.469 -24.339  0.00  0.00    +0.039 C 
ATOM     15  C   UNL     1      33.679 -12.876 -21.860  0.00  0.00    +0.045 C 
ATOM     16  C   UNL     1      33.365 -12.219 -23.027  0.00  0.00    +0.198 C 
BRANCH  16  19
ATOM     17  O   UNL     1      31.885 -10.366 -23.187  0.00  0.00    -0.267 OA
ATOM     18  N   UNL     1      34.066  -9.992 -23.690  0.00  0.00    -0.323 N 
ATOM     19  C   UNL     1      33.039 -10.857 -23.281  0.00  0.00    +0.277 C 
ATOM     20  H   UNL     1      33.869  -9.045 -23.873  0.00  0.00    +0.145 HD
ATOM     21  H   UNL     1      34.984 -10.332 -23.794  0.00  0.00    +0.145 HD
ENDBRANCH  16  19
ENDBRANCH   2   9
BRANCH   1  22
ATOM     22  C   UNL     1      35.709 -21.279 -19.349  0.00  0.00    -0.077 C 
BRANCH  22  23
ATOM     23  C   UNL     1      34.376 -21.724 -18.750  0.00  0.00    -0.022 C 
BRANCH  23  24
ATOM     24  C   UNL     1      34.529 -22.092 -17.273  0.00  0.00    +0.003 C 
BRANCH  24  25
ATOM     25  C   UNL     1      33.315 -22.875 -16.764  0.00  0.00    +0.028 C 
BRANCH  25  27
ATOM     26  N   UNL     1      32.747 -22.964 -13.158  0.00  0.00    -0.312 N 
ATOM     27  C   UNL     1      33.333 -23.051 -15.275  0.00  0.00    -0.006 C 
ATOM     28  C   UNL     1      34.346 -23.693 -14.533  0.00  0.00    +0.011 C 
ATOM     29  C   UNL     1      32.363 -22.611 -14.425  0.00  0.00    +0.058 C 
ATOM     30  C   UNL     1      33.954 -23.627 -13.195  0.00  0.00    +0.048 C 
ATOM     31  C   UNL     1      35.562 -24.329 -14.853  0.00  0.00    +0.011 C 
ATOM     32  C   UNL     1      34.720 -24.165 -12.156  0.00  0.00    +0.015 C 
ATOM     33  C   UNL     1      36.339 -24.873 -13.824  0.00  0.00    +0.069 C 
ATOM     34  C   UNL     1      35.923 -24.792 -12.496  0.00  0.00    +0.012 C 
ATOM     35  H   UNL     1      32.234 -22.772 -12.340  0.00  0.00    +0.152 HD
BRANCH  33  37
ATOM     36  N   UNL     1      38.578 -26.044 -14.397  0.00  0.00    -0.191 NA
ATOM     37  C   UNL     1      37.575 -25.519 -14.141  0.00  0.00    +0.100 C 
ENDBRANCH  33  37
ENDBRANCH  25  27
ENDBRANCH  24  25
ENDBRANCH  23  24
ENDBRANCH  22  23
ENDBRANCH   1  22
TORSDOF 8
ENDMDL
MODEL 6
REMARK VINA RESULT:     -12.6      4.455     12.223
REMARK  Name = 6918314
REMARK  8 active torsions:
REMARK  status: ('A' for Active; 'I' for Inactive)
REMARK    1  A    between atoms: N_1  and  C_22
REMARK    2  A    between atoms: N_2  and  C_9
REMARK    3  A    between atoms: C_16  and  C_19
REMARK    4  A    between atoms: C_22  and  C_23
REMARK    5  A    between atoms: C_23  and  C_24
REMARK    6  A    between atoms: C_24  and  C_25
REMARK    7  A    between atoms: C_25  and  C_27
REMARK    8  A    between atoms: C_33  and  C_37
REMARK                            x       y       z     vdW  Elec       q    Type
REMARK                         _______ _______ _______ _____ _____    ______ ____
ROOT
ATOM      1  N   UNL     1      34.478 -16.652 -23.888  0.00  0.00    +0.389 N 
ATOM      2  N   UNL     1      34.422 -18.550 -21.754  0.00  0.00    -0.312 N 
ATOM      3  C   UNL     1      34.582 -16.205 -22.494  0.00  0.00    -0.055 C 
ATOM      4  C   UNL     1      33.616 -17.836 -23.970  0.00  0.00    -0.055 C 
ATOM      5  C   UNL     1      35.178 -17.300 -21.608  0.00  0.00    +0.068 C 
ATOM      6  C   UNL     1      34.179 -18.987 -23.133  0.00  0.00    +0.068 C 
ATOM      7  H   UNL     1      35.409 -16.900 -24.225  0.00  0.00    -0.080 HD
ENDROOT
BRANCH   2   9
ATOM      8  O   UNL     1      34.647 -22.301 -17.702  0.00  0.00    -0.449 OA
ATOM      9  C   UNL     1      34.518 -19.500 -20.731  0.00  0.00    +0.048 C 
ATOM     10  C   UNL     1      33.351 -19.995 -20.099  0.00  0.00    +0.018 C 
ATOM     11  C   UNL     1      35.778 -19.980 -20.310  0.00  0.00    +0.018 C 
ATOM     12  C   UNL     1      33.463 -20.950 -19.072  0.00  0.00    +0.039 C 
ATOM     13  C   UNL     1      34.734 -21.382 -18.705  0.00  0.00    +0.146 C 
ATOM     14  C   UNL     1      35.914 -20.930 -19.292  0.00  0.00    +0.039 C 
ATOM     15  C   UNL     1      32.559 -21.654 -18.236  0.00  0.00    +0.045 C 
ATOM     16  C   UNL     1      33.326 -22.459 -17.426  0.00  0.00    +0.198 C 
BRANCH  16  19
ATOM     17  O   UNL     1      33.774 -24.116 -15.783  0.00  0.00    -0.267 OA
ATOM     18  N   UNL     1      31.609 -23.493 -16.056  0.00  0.00    -0.323 N 
ATOM     19  C   UNL     1      32.966 -23.377 -16.400  0.00  0.00    +0.277 C 
ATOM     20  H   UNL     1      31.332 -24.121 -15.350  0.00  0.00    +0.145 HD
ATOM     21  H   UNL     1      30.935 -22.948 -16.521  0.00  0.00    +0.145 HD
ENDBRANCH  16  19
ENDBRANCH   2   9
BRANCH   1  22
ATOM     22  C   UNL     1      33.958 -15.579 -24.734  0.00  0.00    -0.077 C 
BRANCH  22  23
ATOM     23  C   UNL     1      33.877 -14.273 -23.945  0.00  0.00    -0.022 C 
BRANCH  23  24
ATOM     24  C   UNL     1      32.768 -13.368 -24.487  0.00  0.00    +0.003 C 
BRANCH  24  25
ATOM     25  C   UNL     1      33.015 -11.902 -24.120  0.00  0.00    +0.028 C 
BRANCH  25  27
ATOM     26  N   UNL     1      31.060 -11.576 -21.054  0.00  0.00    -0.312 N 
ATOM     27  C   UNL     1      32.260 -11.486 -22.893  0.00  0.00    -0.006 C 
ATOM     28  C   UNL     1      32.095 -10.163 -22.436  0.00  0.00    +0.011 C 
ATOM     29  C   UNL     1      31.624 -12.338 -22.040  0.00  0.00    +0.058 C 
ATOM     30  C   UNL     1      31.332 -10.243 -21.269  0.00  0.00    +0.048 C 
ATOM     31  C   UNL     1      32.514  -8.895 -22.886  0.00  0.00    +0.011 C 
ATOM     32  C   UNL     1      30.963  -9.114 -20.529  0.00  0.00    +0.015 C 
ATOM     33  C   UNL     1      32.153  -7.757 -22.156  0.00  0.00    +0.069 C 
ATOM     34  C   UNL     1      31.390  -7.867 -20.995  0.00  0.00    +0.012 C 
ATOM     35  H   UNL     1      30.536 -11.928 -20.299  0.00  0.00    +0.152 HD
BRANCH  33  37
ATOM     36  N   UNL     1      32.914  -5.420 -22.976  0.00  0.00    -0.191 NA
ATOM     37  C   UNL     1      32.573  -6.467 -22.608  0.00  0.00    +0.100 C 
ENDBRANCH  33  37
ENDBRANCH  25  27
ENDBRANCH  24  25
ENDBRANCH  23  24
ENDBRANCH  22  23
ENDBRANCH   1  22
TORSDOF 8
ENDMDL
MODEL 7
REMARK VINA RESULT:     -12.5      5.424     12.819
REMARK  Name = 6918314
REMARK  8 active torsions:
REMARK  status: ('A' for Active; 'I' for Inactive)
REMARK    1  A    between atoms: N_1  and  C_22
REMARK    2  A    between atoms: N_2  and  C_9
REMARK    3  A    between atoms: C_16  and  C_19
REMARK    4  A    between atoms: C_22  and  C_23
REMARK    5  A    between atoms: C_23  and  C_24
REMARK    6  A    between atoms: C_24  and  C_25
REMARK    7  A    between atoms: C_25  and  C_27
REMARK    8  A    between atoms: C_33  and  C_37
REMARK                            x       y       z     vdW  Elec       q    Type
REMARK                         _______ _______ _______ _____ _____    ______ ____
ROOT
ATOM      1  N   UNL     1      34.069 -20.358 -20.631  0.00  0.00    +0.389 N 
ATOM      2  N   UNL     1      34.344 -21.544 -18.048  0.00  0.00    -0.312 N 
ATOM      3  C   UNL     1      35.298 -20.165 -19.854  0.00  0.00    -0.055 C 
ATOM      4  C   UNL     1      32.916 -20.448 -19.729  0.00  0.00    -0.055 C 
ATOM      5  C   UNL     1      35.528 -21.331 -18.890  0.00  0.00    +0.068 C 
ATOM      6  C   UNL     1      33.065 -21.622 -18.760  0.00  0.00    +0.068 C 
ATOM      7  H   UNL     1      34.144 -21.230 -21.156  0.00  0.00    -0.080 HD
ENDROOT
BRANCH   2   9
ATOM      8  O   UNL     1      35.153 -24.229 -13.286  0.00  0.00    -0.449 OA
ATOM      9  C   UNL     1      34.512 -22.232 -16.840  0.00  0.00    +0.048 C 
ATOM     10  C   UNL     1      35.791 -22.333 -16.242  0.00  0.00    +0.018 C 
ATOM     11  C   UNL     1      33.409 -22.839 -16.200  0.00  0.00    +0.018 C 
ATOM     12  C   UNL     1      35.943 -23.028 -15.029  0.00  0.00    +0.039 C 
ATOM     13  C   UNL     1      34.816 -23.602 -14.448  0.00  0.00    +0.146 C 
ATOM     14  C   UNL     1      33.535 -23.535 -14.993  0.00  0.00    +0.039 C 
ATOM     15  C   UNL     1      37.022 -23.330 -14.158  0.00  0.00    +0.045 C 
ATOM     16  C   UNL     1      36.491 -24.058 -13.119  0.00  0.00    +0.198 C 
BRANCH  16  19
ATOM     17  O   UNL     1      37.070 -24.116 -10.815  0.00  0.00    -0.267 OA
ATOM     18  N   UNL     1      37.794 -25.837 -12.105  0.00  0.00    -0.323 N 
ATOM     19  C   UNL     1      37.096 -24.627 -11.964  0.00  0.00    +0.277 C 
ATOM     20  H   UNL     1      38.222 -26.253 -11.322  0.00  0.00    +0.145 HD
ATOM     21  H   UNL     1      37.857 -26.269 -12.987  0.00  0.00    +0.145 HD
ENDBRANCH  16  19
ENDBRANCH   2   9
BRANCH   1  22
ATOM     22  C   UNL     1      33.889 -19.265 -21.587  0.00  0.00    -0.077 C 
BRANCH  22  23
ATOM     23  C   UNL     1      35.204 -18.966 -22.305  0.00  0.00    -0.022 C 
BRANCH  23  24
ATOM     24  C   UNL     1      35.810 -17.648 -21.821  0.00  0.00    +0.003 C 
BRANCH  24  25
ATOM     25  C   UNL     1      34.722 -16.649 -21.414  0.00  0.00    +0.028 C 
BRANCH  25  27
ATOM     26  N   UNL     1      33.880 -15.108 -24.615  0.00  0.00    -0.312 N 
ATOM     27  C   UNL     1      34.261 -15.808 -22.567  0.00  0.00    -0.006 C 
ATOM     28  C   UNL     1      33.579 -14.578 -22.469  0.00  0.00    +0.011 C 
ATOM     29  C   UNL     1      34.437 -16.120 -23.881  0.00  0.00    +0.058 C 
ATOM     30  C   UNL     1      33.347 -14.152 -23.778  0.00  0.00    +0.048 C 
ATOM     31  C   UNL     1      33.129 -13.772 -21.404  0.00  0.00    +0.011 C 
ATOM     32  C   UNL     1      32.686 -12.956 -24.077  0.00  0.00    +0.015 C 
ATOM     33  C   UNL     1      32.465 -12.573 -21.688  0.00  0.00    +0.069 C 
ATOM     34  C   UNL     1      32.248 -12.173 -23.005  0.00  0.00    +0.012 C 
ATOM     35  H   UNL     1      33.861 -15.068 -25.599  0.00  0.00    +0.152 HD
BRANCH  33  37
ATOM     36  N   UNL     1      31.634 -11.081 -19.740  0.00  0.00    -0.191 NA
ATOM     37  C   UNL     1      32.007 -11.750 -20.613  0.00  0.00    +0.100 C 
ENDBRANCH  33  37
ENDBRANCH  25  27
ENDBRANCH  24  25
ENDBRANCH  23  24
ENDBRANCH  22  23
ENDBRANCH   1  22
TORSDOF 8
ENDMDL
MODEL 8
REMARK VINA RESULT:     -12.2      2.710      5.781
REMARK  Name = 6918314
REMARK  8 active torsions:
REMARK  status: ('A' for Active; 'I' for Inactive)
REMARK    1  A    between atoms: N_1  and  C_22
REMARK    2  A    between atoms: N_2  and  C_9
REMARK    3  A    between atoms: C_16  and  C_19
REMARK    4  A    between atoms: C_22  and  C_23
REMARK    5  A    between atoms: C_23  and  C_24
REMARK    6  A    between atoms: C_24  and  C_25
REMARK    7  A    between atoms: C_25  and  C_27
REMARK    8  A    between atoms: C_33  and  C_37
REMARK                            x       y       z     vdW  Elec       q    Type
REMARK                         _______ _______ _______ _____ _____    ______ ____
ROOT
ATOM      1  N   UNL     1      35.549 -20.620 -20.176  0.00  0.00    +0.389 N 
ATOM      2  N   UNL     1      34.860 -18.093 -21.314  0.00  0.00    -0.312 N 
ATOM      3  C   UNL     1      34.146 -20.192 -20.237  0.00  0.00    -0.055 C 
ATOM      4  C   UNL     1      36.419 -19.455 -19.979  0.00  0.00    -0.055 C 
ATOM      5  C   UNL     1      33.920 -19.218 -21.395  0.00  0.00    +0.068 C 
ATOM      6  C   UNL     1      36.268 -18.456 -21.128  0.00  0.00    +0.068 C 
ATOM      7  H   UNL     1      35.795 -21.070 -21.058  0.00  0.00    -0.080 HD
ENDROOT
BRANCH   2   9
ATOM      8  O   UNL     1      33.548 -13.351 -23.831  0.00  0.00    -0.449 OA
ATOM      9  C   UNL     1      34.529 -16.910 -21.986  0.00  0.00    +0.048 C 
ATOM     10  C   UNL     1      34.284 -15.718 -21.262  0.00  0.00    +0.018 C 
ATOM     11  C   UNL     1      34.434 -16.885 -23.395  0.00  0.00    +0.018 C 
ATOM     12  C   UNL     1      33.953 -14.538 -21.951  0.00  0.00    +0.039 C 
ATOM     13  C   UNL     1      33.877 -14.579 -23.340  0.00  0.00    +0.146 C 
ATOM     14  C   UNL     1      34.108 -15.723 -24.102  0.00  0.00    +0.039 C 
ATOM     15  C   UNL     1      33.651 -13.199 -21.588  0.00  0.00    +0.045 C 
ATOM     16  C   UNL     1      33.413 -12.523 -22.762  0.00  0.00    +0.198 C 
BRANCH  16  19
ATOM     17  O   UNL     1      32.015 -10.607 -22.607  0.00  0.00    -0.267 OA
ATOM     18  N   UNL     1      33.943 -10.385 -23.784  0.00  0.00    -0.323 N 
ATOM     19  C   UNL     1      33.067 -11.165 -23.012  0.00  0.00    +0.277 C 
ATOM     20  H   UNL     1      33.728  -9.443 -23.972  0.00  0.00    +0.145 HD
ATOM     21  H   UNL     1      34.772 -10.781 -24.137  0.00  0.00    +0.145 HD
ENDBRANCH  16  19
ENDBRANCH   2   9
BRANCH   1  22
ATOM     22  C   UNL     1      35.741 -21.592 -19.100  0.00  0.00    -0.077 C 
BRANCH  22  23
ATOM     23  C   UNL     1      35.879 -20.877 -17.757  0.00  0.00    -0.022 C 
BRANCH  23  24
ATOM     24  C   UNL     1      35.763 -21.861 -16.592  0.00  0.00    +0.003 C 
BRANCH  24  25
ATOM     25  C   UNL     1      36.817 -21.581 -15.517  0.00  0.00    +0.028 C 
BRANCH  25  27
ATOM     26  N   UNL     1      38.903 -24.544 -15.066  0.00  0.00    -0.312 N 
ATOM     27  C   UNL     1      37.533 -22.825 -15.082  0.00  0.00    -0.006 C 
ATOM     28  C   UNL     1      37.312 -23.525 -13.878  0.00  0.00    +0.011 C 
ATOM     29  C   UNL     1      38.506 -23.457 -15.797  0.00  0.00    +0.058 C 
ATOM     30  C   UNL     1      38.191 -24.611 -13.889  0.00  0.00    +0.048 C 
ATOM     31  C   UNL     1      36.457 -23.356 -12.772  0.00  0.00    +0.011 C 
ATOM     32  C   UNL     1      38.256 -25.539 -12.844  0.00  0.00    +0.015 C 
ATOM     33  C   UNL     1      36.511 -24.277 -11.719  0.00  0.00    +0.069 C 
ATOM     34  C   UNL     1      37.398 -25.351 -11.757  0.00  0.00    +0.012 C 
ATOM     35  H   UNL     1      39.597 -25.186 -15.341  0.00  0.00    +0.152 HD
BRANCH  33  37
ATOM     36  N   UNL     1      34.941 -23.978  -9.680  0.00  0.00    -0.191 NA
ATOM     37  C   UNL     1      35.645 -24.112 -10.593  0.00  0.00    +0.100 C 
ENDBRANCH  33  37
ENDBRANCH  25  27
ENDBRANCH  24  25
ENDBRANCH  23  24
ENDBRANCH  22  23
ENDBRANCH   1  22
TORSDOF 8
ENDMDL
MODEL 9
REMARK VINA RESULT:     -12.1      1.869      3.019
REMARK  Name = 6918314
REMARK  8 active torsions:
REMARK  status: ('A' for Active; 'I' for Inactive)
REMARK    1  A    between atoms: N_1  and  C_22
REMARK    2  A    between atoms: N_2  and  C_9
REMARK    3  A    between atoms: C_16  and  C_19
REMARK    4  A    between atoms: C_22  and  C_23
REMARK    5  A    between atoms: C_23  and  C_24
REMARK    6  A    between atoms: C_24  and  C_25
REMARK    7  A    between atoms: C_25  and  C_27
REMARK    8  A    between atoms: C_33  and  C_37
REMARK                            x       y       z     vdW  Elec       q    Type
REMARK                         _______ _______ _______ _____ _____    ______ ____
ROOT
ATOM      1  N   UNL     1      33.315 -15.050 -23.841  0.00  0.00    +0.389 N 
ATOM      2  N   UNL     1      32.684 -12.398 -22.988  0.00  0.00    -0.312 N 
ATOM      3  C   UNL     1      33.800 -14.551 -22.550  0.00  0.00    -0.055 C 
ATOM      4  C   UNL     1      33.258 -13.951 -24.812  0.00  0.00    -0.055 C 
ATOM      5  C   UNL     1      32.875 -13.464 -21.997  0.00  0.00    +0.068 C 
ATOM      6  C   UNL     1      32.316 -12.844 -24.336  0.00  0.00    +0.068 C 
ATOM      7  H   UNL     1      32.375 -15.427 -23.717  0.00  0.00    -0.080 HD
ENDROOT
BRANCH   2   9
ATOM      8  O   UNL     1      31.108  -7.380 -21.293  0.00  0.00    -0.449 OA
ATOM      9  C   UNL     1      32.262 -11.144 -22.532  0.00  0.00    +0.048 C 
ATOM     10  C   UNL     1      32.746  -9.959 -23.138  0.00  0.00    +0.018 C 
ATOM     11  C   UNL     1      31.349 -11.037 -21.459  0.00  0.00    +0.018 C 
ATOM     12  C   UNL     1      32.313  -8.706 -22.668  0.00  0.00    +0.039 C 
ATOM     13  C   UNL     1      31.412  -8.670 -21.609  0.00  0.00    +0.146 C 
ATOM     14  C   UNL     1      30.904  -9.803 -20.976  0.00  0.00    +0.039 C 
ATOM     15  C   UNL     1      32.565  -7.351 -23.008  0.00  0.00    +0.045 C 
ATOM     16  C   UNL     1      31.811  -6.589 -22.146  0.00  0.00    +0.198 C 
BRANCH  16  19
ATOM     17  O   UNL     1      31.853  -4.352 -22.947  0.00  0.00    -0.267 OA
ATOM     18  N   UNL     1      31.307  -4.657 -20.765  0.00  0.00    -0.323 N 
ATOM     19  C   UNL     1      31.665  -5.179 -22.019  0.00  0.00    +0.277 C 
ATOM     20  H   UNL     1      31.199  -3.685 -20.649  0.00  0.00    +0.145 HD
ATOM     21  H   UNL     1      31.163  -5.262 -20.002  0.00  0.00    +0.145 HD
ENDBRANCH  16  19
ENDBRANCH   2   9
BRANCH   1  22
ATOM     22  C   UNL     1      34.176 -16.125 -24.332  0.00  0.00    -0.077 C 
BRANCH  22  23
ATOM     23  C   UNL     1      33.339 -17.346 -24.707  0.00  0.00    -0.022 C 
BRANCH  23  24
ATOM     24  C   UNL     1      33.859 -18.607 -24.014  0.00  0.00    +0.003 C 
BRANCH  24  25
ATOM     25  C   UNL     1      33.454 -18.639 -22.537  0.00  0.00    +0.028 C 
BRANCH  25  27
ATOM     26  N   UNL     1      36.626 -18.808 -20.737  0.00  0.00    -0.312 N 
ATOM     27  C   UNL     1      34.620 -18.900 -21.632  0.00  0.00    -0.006 C 
ATOM     28  C   UNL     1      34.631 -19.788 -20.537  0.00  0.00    +0.011 C 
ATOM     29  C   UNL     1      35.843 -18.308 -21.742  0.00  0.00    +0.058 C 
ATOM     30  C   UNL     1      35.912 -19.713 -19.984  0.00  0.00    +0.048 C 
ATOM     31  C   UNL     1      33.688 -20.653 -19.948  0.00  0.00    +0.011 C 
ATOM     32  C   UNL     1      36.298 -20.465 -18.869  0.00  0.00    +0.015 C 
ATOM     33  C   UNL     1      34.060 -21.411 -18.832  0.00  0.00    +0.069 C 
ATOM     34  C   UNL     1      35.345 -21.317 -18.301  0.00  0.00    +0.012 C 
ATOM     35  H   UNL     1      37.564 -18.556 -20.574  0.00  0.00    +0.152 HD
BRANCH  33  37
ATOM     36  N   UNL     1      32.335 -23.008 -17.741  0.00  0.00    -0.191 NA
ATOM     37  C   UNL     1      33.108 -22.293 -18.230  0.00  0.00    +0.100 C 
ENDBRANCH  33  37
ENDBRANCH  25  27
ENDBRANCH  24  25
ENDBRANCH  23  24
ENDBRANCH  22  23
ENDBRANCH   1  22
TORSDOF 8
ENDMDL
