MODEL 1
REMARK VINA RESULT:     -11.4      0.000      0.000
REMARK  Name = 44422489
REMARK  2 active torsions:
REMARK  status: ('A' for Active; 'I' for Inactive)
REMARK    1  A    between atoms: N_2  and  C_12
REMARK    2  A    between atoms: C_7  and  C_20
REMARK                            x       y       z     vdW  Elec       q    Type
REMARK                         _______ _______ _______ _____ _____    ______ ____
ROOT
ATOM      1  N   UNL     1      33.317 -13.889 -24.066  0.00  0.00    -0.243 N 
ATOM      2  N   UNL     1      32.380 -10.327 -23.598  0.00  0.00    -0.297 N 
ATOM      3  N   UNL     1      33.233 -11.913 -22.115  0.00  0.00    -0.226 NA
ATOM      4  N   UNL     1      32.776 -13.902 -26.225  0.00  0.00    -0.224 NA
ATOM      5  C   UNL     1      32.865 -12.623 -24.362  0.00  0.00    +0.108 C 
ATOM      6  C   UNL     1      32.828 -11.601 -23.329  0.00  0.00    +0.148 C 
ATOM      7  C   UNL     1      33.741 -14.195 -22.775  0.00  0.00    +0.076 C 
ATOM      8  C   UNL     1      33.679 -13.200 -21.863  0.00  0.00    +0.115 C 
ATOM      9  C   UNL     1      32.535 -12.659 -25.696  0.00  0.00    +0.118 C 
ATOM     10  C   UNL     1      33.248 -14.617 -25.225  0.00  0.00    +0.172 C 
ATOM     11  H   UNL     1      32.089 -10.147 -24.521  0.00  0.00    +0.154 HD
ENDROOT
BRANCH   2  12
ATOM     12  C   UNL     1      32.297  -9.269 -22.699  0.00  0.00    +0.041 C 
ATOM     13  C   UNL     1      31.303  -9.261 -21.721  0.00  0.00    -0.009 C 
ATOM     14  C   UNL     1      33.210  -8.216 -22.774  0.00  0.00    -0.009 C 
ATOM     15  C   UNL     1      31.219  -8.200 -20.820  0.00  0.00    -0.003 C 
ATOM     16  C   UNL     1      33.126  -7.155 -21.873  0.00  0.00    -0.003 C 
ATOM     17  C   UNL     1      30.312 -10.374 -21.615  0.00  0.00    +0.032 C 
ATOM     18  C   UNL     1      34.286  -8.197 -23.811  0.00  0.00    +0.032 C 
ATOM     19  C   UNL     1      32.131  -7.147 -20.895  0.00  0.00    -0.001 C 
ENDBRANCH   2  12
BRANCH   7  20
ATOM     20  C   UNL     1      34.223 -15.528 -22.385  0.00  0.00    +0.016 C 
ATOM     21  C   UNL     1      34.382 -15.844 -21.035  0.00  0.00    +0.001 C 
ATOM     22  C   UNL     1      34.521 -16.477 -23.362  0.00  0.00    +0.001 C 
ATOM     23  C   UNL     1      34.840 -17.108 -20.664  0.00  0.00    +0.000 C 
ATOM     24  C   UNL     1      34.978 -17.741 -22.991  0.00  0.00    +0.000 C 
ATOM     25  C   UNL     1      35.137 -18.058 -21.642  0.00  0.00    +0.000 C 
ENDBRANCH   7  20
TORSDOF 2
ENDMDL
MODEL 2
REMARK VINA RESULT:     -11.4      9.370     14.347
REMARK  Name = 44422489
REMARK  2 active torsions:
REMARK  status: ('A' for Active; 'I' for Inactive)
REMARK    1  A    between atoms: N_2  and  C_12
REMARK    2  A    between atoms: C_7  and  C_20
REMARK                            x       y       z     vdW  Elec       q    Type
REMARK                         _______ _______ _______ _____ _____    ______ ____
ROOT
ATOM      1  N   UNL     1      32.858 -22.547 -16.699  0.00  0.00    -0.243 N 
ATOM      2  N   UNL     1      34.644 -24.322 -13.971  0.00  0.00    -0.297 N 
ATOM      3  N   UNL     1      35.427 -23.092 -15.792  0.00  0.00    -0.226 NA
ATOM      4  N   UNL     1      30.840 -23.090 -15.934  0.00  0.00    -0.224 NA
ATOM      5  C   UNL     1      33.061 -23.298 -15.564  0.00  0.00    +0.108 C 
ATOM      6  C   UNL     1      34.412 -23.573 -15.103  0.00  0.00    +0.148 C 
ATOM      7  C   UNL     1      33.946 -22.048 -17.411  0.00  0.00    +0.076 C 
ATOM      8  C   UNL     1      35.174 -22.342 -16.929  0.00  0.00    +0.115 C 
ATOM      9  C   UNL     1      31.803 -23.623 -15.114  0.00  0.00    +0.118 C 
ATOM     10  C   UNL     1      31.502 -22.448 -16.873  0.00  0.00    +0.172 C 
ATOM     11  H   UNL     1      33.851 -24.657 -13.493  0.00  0.00    +0.154 HD
ENDROOT
BRANCH   2  12
ATOM     12  C   UNL     1      35.884 -24.652 -13.433  0.00  0.00    +0.041 C 
ATOM     13  C   UNL     1      36.634 -25.685 -13.994  0.00  0.00    -0.009 C 
ATOM     14  C   UNL     1      36.376 -23.949 -12.333  0.00  0.00    -0.009 C 
ATOM     15  C   UNL     1      37.877 -26.016 -13.454  0.00  0.00    -0.003 C 
ATOM     16  C   UNL     1      37.619 -24.280 -11.793  0.00  0.00    -0.003 C 
ATOM     17  C   UNL     1      36.134 -26.455 -15.172  0.00  0.00    +0.032 C 
ATOM     18  C   UNL     1      35.594 -22.838 -11.711  0.00  0.00    +0.032 C 
ATOM     19  C   UNL     1      38.370 -25.314 -12.355  0.00  0.00    -0.001 C 
ENDBRANCH   2  12
BRANCH   7  20
ATOM     20  C   UNL     1      33.804 -21.251 -18.638  0.00  0.00    +0.016 C 
ATOM     21  C   UNL     1      34.940 -20.820 -19.325  0.00  0.00    +0.001 C 
ATOM     22  C   UNL     1      32.535 -20.925 -19.116  0.00  0.00    +0.001 C 
ATOM     23  C   UNL     1      34.806 -20.064 -20.489  0.00  0.00    +0.000 C 
ATOM     24  C   UNL     1      32.401 -20.168 -20.280  0.00  0.00    +0.000 C 
ATOM     25  C   UNL     1      33.536 -19.738 -20.967  0.00  0.00    +0.000 C 
ENDBRANCH   7  20
TORSDOF 2
ENDMDL
MODEL 3
REMARK VINA RESULT:     -11.4      9.370     14.339
REMARK  Name = 44422489
REMARK  2 active torsions:
REMARK  status: ('A' for Active; 'I' for Inactive)
REMARK    1  A    between atoms: N_2  and  C_12
REMARK    2  A    between atoms: C_7  and  C_20
REMARK                            x       y       z     vdW  Elec       q    Type
REMARK                         _______ _______ _______ _____ _____    ______ ____
ROOT
ATOM      1  N   UNL     1      32.858 -22.548 -16.699  0.00  0.00    -0.243 N 
ATOM      2  N   UNL     1      34.644 -24.322 -13.971  0.00  0.00    -0.297 N 
ATOM      3  N   UNL     1      35.426 -23.092 -15.792  0.00  0.00    -0.226 NA
ATOM      4  N   UNL     1      30.840 -23.091 -15.934  0.00  0.00    -0.224 NA
ATOM      5  C   UNL     1      33.061 -23.298 -15.564  0.00  0.00    +0.108 C 
ATOM      6  C   UNL     1      34.411 -23.574 -15.103  0.00  0.00    +0.148 C 
ATOM      7  C   UNL     1      33.945 -22.048 -17.411  0.00  0.00    +0.076 C 
ATOM      8  C   UNL     1      35.174 -22.342 -16.929  0.00  0.00    +0.115 C 
ATOM      9  C   UNL     1      31.803 -23.623 -15.114  0.00  0.00    +0.118 C 
ATOM     10  C   UNL     1      31.502 -22.449 -16.873  0.00  0.00    +0.172 C 
ATOM     11  H   UNL     1      33.851 -24.657 -13.493  0.00  0.00    +0.154 HD
ENDROOT
BRANCH   2  12
ATOM     12  C   UNL     1      35.883 -24.652 -13.433  0.00  0.00    +0.041 C 
ATOM     13  C   UNL     1      36.375 -23.951 -12.332  0.00  0.00    -0.009 C 
ATOM     14  C   UNL     1      36.634 -25.685 -13.994  0.00  0.00    -0.009 C 
ATOM     15  C   UNL     1      37.618 -24.282 -11.793  0.00  0.00    -0.003 C 
ATOM     16  C   UNL     1      37.877 -26.016 -13.455  0.00  0.00    -0.003 C 
ATOM     17  C   UNL     1      35.593 -22.840 -11.710  0.00  0.00    +0.032 C 
ATOM     18  C   UNL     1      36.134 -26.454 -15.174  0.00  0.00    +0.032 C 
ATOM     19  C   UNL     1      38.369 -25.315 -12.353  0.00  0.00    -0.001 C 
ENDBRANCH   2  12
BRANCH   7  20
ATOM     20  C   UNL     1      33.804 -21.251 -18.638  0.00  0.00    +0.016 C 
ATOM     21  C   UNL     1      34.939 -20.821 -19.325  0.00  0.00    +0.001 C 
ATOM     22  C   UNL     1      32.535 -20.925 -19.116  0.00  0.00    +0.001 C 
ATOM     23  C   UNL     1      34.805 -20.064 -20.489  0.00  0.00    +0.000 C 
ATOM     24  C   UNL     1      32.401 -20.169 -20.280  0.00  0.00    +0.000 C 
ATOM     25  C   UNL     1      33.535 -19.738 -20.967  0.00  0.00    +0.000 C 
ENDBRANCH   7  20
TORSDOF 2
ENDMDL
MODEL 4
REMARK VINA RESULT:     -11.4      0.045      2.015
REMARK  Name = 44422489
REMARK  2 active torsions:
REMARK  status: ('A' for Active; 'I' for Inactive)
REMARK    1  A    between atoms: N_2  and  C_12
REMARK    2  A    between atoms: C_7  and  C_20
REMARK                            x       y       z     vdW  Elec       q    Type
REMARK                         _______ _______ _______ _____ _____    ______ ____
ROOT
ATOM      1  N   UNL     1      33.324 -13.896 -24.078  0.00  0.00    -0.243 N 
ATOM      2  N   UNL     1      32.397 -10.329 -23.638  0.00  0.00    -0.297 N 
ATOM      3  N   UNL     1      33.252 -11.903 -22.145  0.00  0.00    -0.226 NA
ATOM      4  N   UNL     1      32.774 -13.927 -26.235  0.00  0.00    -0.224 NA
ATOM      5  C   UNL     1      32.874 -12.632 -24.384  0.00  0.00    +0.108 C 
ATOM      6  C   UNL     1      32.843 -11.601 -23.360  0.00  0.00    +0.148 C 
ATOM      7  C   UNL     1      33.752 -14.193 -22.787  0.00  0.00    +0.076 C 
ATOM      8  C   UNL     1      33.696 -13.189 -21.883  0.00  0.00    +0.115 C 
ATOM      9  C   UNL     1      32.538 -12.679 -25.717  0.00  0.00    +0.118 C 
ATOM     10  C   UNL     1      33.248 -14.634 -25.231  0.00  0.00    +0.172 C 
ATOM     11  H   UNL     1      32.103 -10.155 -24.562  0.00  0.00    +0.154 HD
ENDROOT
BRANCH   2  12
ATOM     12  C   UNL     1      32.320  -9.262 -22.748  0.00  0.00    +0.041 C 
ATOM     13  C   UNL     1      33.244  -8.221 -22.825  0.00  0.00    -0.009 C 
ATOM     14  C   UNL     1      31.317  -9.234 -21.779  0.00  0.00    -0.009 C 
ATOM     15  C   UNL     1      33.167  -7.152 -21.933  0.00  0.00    -0.003 C 
ATOM     16  C   UNL     1      31.240  -8.165 -20.886  0.00  0.00    -0.003 C 
ATOM     17  C   UNL     1      34.329  -8.223 -23.853  0.00  0.00    +0.032 C 
ATOM     18  C   UNL     1      30.312 -10.336 -21.671  0.00  0.00    +0.032 C 
ATOM     19  C   UNL     1      32.165  -7.123 -20.964  0.00  0.00    -0.001 C 
ENDBRANCH   2  12
BRANCH   7  20
ATOM     20  C   UNL     1      34.232 -15.523 -22.387  0.00  0.00    +0.016 C 
ATOM     21  C   UNL     1      34.550 -16.472 -23.359  0.00  0.00    +0.001 C 
ATOM     22  C   UNL     1      34.372 -15.837 -21.035  0.00  0.00    +0.001 C 
ATOM     23  C   UNL     1      35.006 -17.734 -22.979  0.00  0.00    +0.000 C 
ATOM     24  C   UNL     1      34.827 -17.099 -20.655  0.00  0.00    +0.000 C 
ATOM     25  C   UNL     1      35.145 -18.048 -21.627  0.00  0.00    +0.000 C 
ENDBRANCH   7  20
TORSDOF 2
ENDMDL
MODEL 5
REMARK VINA RESULT:     -10.9      2.146      7.848
REMARK  Name = 44422489
REMARK  2 active torsions:
REMARK  status: ('A' for Active; 'I' for Inactive)
REMARK    1  A    between atoms: N_2  and  C_12
REMARK    2  A    between atoms: C_7  and  C_20
REMARK                            x       y       z     vdW  Elec       q    Type
REMARK                         _______ _______ _______ _____ _____    ______ ____
ROOT
ATOM      1  N   UNL     1      33.304 -14.724 -23.473  0.00  0.00    -0.243 N 
ATOM      2  N   UNL     1      34.547 -18.069 -22.452  0.00  0.00    -0.297 N 
ATOM      3  N   UNL     1      33.989 -16.177 -21.207  0.00  0.00    -0.226 NA
ATOM      4  N   UNL     1      33.294 -15.225 -25.642  0.00  0.00    -0.224 NA
ATOM      5  C   UNL     1      33.747 -16.022 -23.575  0.00  0.00    +0.108 C 
ATOM      6  C   UNL     1      34.101 -16.768 -22.379  0.00  0.00    +0.148 C 
ATOM      7  C   UNL     1      33.193 -14.119 -22.224  0.00  0.00    +0.076 C 
ATOM      8  C   UNL     1      33.539 -14.868 -21.153  0.00  0.00    +0.115 C 
ATOM      9  C   UNL     1      33.735 -16.306 -24.921  0.00  0.00    +0.118 C 
ATOM     10  C   UNL     1      33.040 -14.293 -24.748  0.00  0.00    +0.172 C 
ATOM     11  H   UNL     1      34.612 -18.464 -23.351  0.00  0.00    +0.154 HD
ENDROOT
BRANCH   2  12
ATOM     12  C   UNL     1      34.915 -18.882 -21.385  0.00  0.00    +0.041 C 
ATOM     13  C   UNL     1      33.955 -19.657 -20.735  0.00  0.00    -0.009 C 
ATOM     14  C   UNL     1      36.246 -18.923 -20.966  0.00  0.00    -0.009 C 
ATOM     15  C   UNL     1      34.324 -20.472 -19.664  0.00  0.00    -0.003 C 
ATOM     16  C   UNL     1      36.614 -19.738 -19.896  0.00  0.00    -0.003 C 
ATOM     17  C   UNL     1      32.523 -19.634 -21.161  0.00  0.00    +0.032 C 
ATOM     18  C   UNL     1      37.297 -18.104 -21.642  0.00  0.00    +0.032 C 
ATOM     19  C   UNL     1      35.653 -20.513 -19.245  0.00  0.00    -0.001 C 
ENDBRANCH   2  12
BRANCH   7  20
ATOM     20  C   UNL     1      32.739 -12.732 -22.041  0.00  0.00    +0.016 C 
ATOM     21  C   UNL     1      33.049 -11.766 -22.999  0.00  0.00    +0.001 C 
ATOM     22  C   UNL     1      32.000 -12.383 -20.912  0.00  0.00    +0.001 C 
ATOM     23  C   UNL     1      32.619 -10.450 -22.826  0.00  0.00    +0.000 C 
ATOM     24  C   UNL     1      31.570 -11.068 -20.739  0.00  0.00    +0.000 C 
ATOM     25  C   UNL     1      31.879 -10.101 -21.695  0.00  0.00    +0.000 C 
ENDBRANCH   7  20
TORSDOF 2
ENDMDL
MODEL 6
REMARK VINA RESULT:     -10.9      2.145      8.026
REMARK  Name = 44422489
REMARK  2 active torsions:
REMARK  status: ('A' for Active; 'I' for Inactive)
REMARK    1  A    between atoms: N_2  and  C_12
REMARK    2  A    between atoms: C_7  and  C_20
REMARK                            x       y       z     vdW  Elec       q    Type
REMARK                         _______ _______ _______ _____ _____    ______ ____
ROOT
ATOM      1  N   UNL     1      33.307 -14.721 -23.472  0.00  0.00    -0.243 N 
ATOM      2  N   UNL     1      34.554 -18.065 -22.450  0.00  0.00    -0.297 N 
ATOM      3  N   UNL     1      33.991 -16.175 -21.206  0.00  0.00    -0.226 NA
ATOM      4  N   UNL     1      33.302 -15.221 -25.642  0.00  0.00    -0.224 NA
ATOM      5  C   UNL     1      33.752 -16.019 -23.574  0.00  0.00    +0.108 C 
ATOM      6  C   UNL     1      34.106 -16.765 -22.378  0.00  0.00    +0.148 C 
ATOM      7  C   UNL     1      33.193 -14.117 -22.223  0.00  0.00    +0.076 C 
ATOM      8  C   UNL     1      33.539 -14.866 -21.152  0.00  0.00    +0.115 C 
ATOM      9  C   UNL     1      33.743 -16.302 -24.920  0.00  0.00    +0.118 C 
ATOM     10  C   UNL     1      33.044 -14.290 -24.747  0.00  0.00    +0.172 C 
ATOM     11  H   UNL     1      34.621 -18.460 -23.350  0.00  0.00    +0.154 HD
ENDROOT
BRANCH   2  12
ATOM     12  C   UNL     1      34.922 -18.878 -21.383  0.00  0.00    +0.041 C 
ATOM     13  C   UNL     1      36.251 -18.921 -20.964  0.00  0.00    -0.009 C 
ATOM     14  C   UNL     1      33.960 -19.650 -20.731  0.00  0.00    -0.009 C 
ATOM     15  C   UNL     1      36.620 -19.736 -19.894  0.00  0.00    -0.003 C 
ATOM     16  C   UNL     1      34.328 -20.465 -19.661  0.00  0.00    -0.003 C 
ATOM     17  C   UNL     1      37.303 -18.105 -21.643  0.00  0.00    +0.032 C 
ATOM     18  C   UNL     1      32.527 -19.625 -21.157  0.00  0.00    +0.032 C 
ATOM     19  C   UNL     1      35.658 -20.508 -19.242  0.00  0.00    -0.001 C 
ENDBRANCH   2  12
BRANCH   7  20
ATOM     20  C   UNL     1      32.737 -12.731 -22.041  0.00  0.00    +0.016 C 
ATOM     21  C   UNL     1      33.045 -11.764 -22.998  0.00  0.00    +0.001 C 
ATOM     22  C   UNL     1      31.997 -12.383 -20.912  0.00  0.00    +0.001 C 
ATOM     23  C   UNL     1      32.613 -10.449 -22.825  0.00  0.00    +0.000 C 
ATOM     24  C   UNL     1      31.564 -11.069 -20.738  0.00  0.00    +0.000 C 
ATOM     25  C   UNL     1      31.872 -10.101 -21.695  0.00  0.00    +0.000 C 
ENDBRANCH   7  20
TORSDOF 2
ENDMDL
MODEL 7
REMARK VINA RESULT:     -10.3      2.207      4.068
REMARK  Name = 44422489
REMARK  2 active torsions:
REMARK  status: ('A' for Active; 'I' for Inactive)
REMARK    1  A    between atoms: N_2  and  C_12
REMARK    2  A    between atoms: C_7  and  C_20
REMARK                            x       y       z     vdW  Elec       q    Type
REMARK                         _______ _______ _______ _____ _____    ______ ____
ROOT
ATOM      1  N   UNL     1      31.968 -11.128 -21.964  0.00  0.00    -0.243 N 
ATOM      2  N   UNL     1      31.935  -7.578 -23.046  0.00  0.00    -0.297 N 
ATOM      3  N   UNL     1      33.169  -9.412 -23.788  0.00  0.00    -0.226 NA
ATOM      4  N   UNL     1      30.407 -10.823 -20.406  0.00  0.00    -0.224 NA
ATOM      5  C   UNL     1      31.623  -9.797 -22.014  0.00  0.00    +0.108 C 
ATOM      6  C   UNL     1      32.261  -8.913 -22.974  0.00  0.00    +0.148 C 
ATOM      7  C   UNL     1      32.930 -11.634 -22.834  0.00  0.00    +0.076 C 
ATOM      8  C   UNL     1      33.485 -10.758 -23.702  0.00  0.00    +0.115 C 
ATOM      9  C   UNL     1      30.663  -9.634 -21.042  0.00  0.00    +0.118 C 
ATOM     10  C   UNL     1      31.201 -11.701 -20.982  0.00  0.00    +0.172 C 
ATOM     11  H   UNL     1      31.251  -7.256 -22.416  0.00  0.00    +0.154 HD
ENDROOT
BRANCH   2  12
ATOM     12  C   UNL     1      32.474  -6.637 -23.918  0.00  0.00    +0.041 C 
ATOM     13  C   UNL     1      31.829  -6.351 -25.121  0.00  0.00    -0.009 C 
ATOM     14  C   UNL     1      33.658  -5.977 -23.587  0.00  0.00    -0.009 C 
ATOM     15  C   UNL     1      32.369  -5.408 -25.995  0.00  0.00    -0.003 C 
ATOM     16  C   UNL     1      34.198  -5.034 -24.461  0.00  0.00    -0.003 C 
ATOM     17  C   UNL     1      30.560  -7.040 -25.502  0.00  0.00    +0.032 C 
ATOM     18  C   UNL     1      34.371  -6.262 -22.305  0.00  0.00    +0.032 C 
ATOM     19  C   UNL     1      33.553  -4.749 -25.665  0.00  0.00    -0.001 C 
ENDBRANCH   2  12
BRANCH   7  20
ATOM     20  C   UNL     1      33.356 -13.041 -22.828  0.00  0.00    +0.016 C 
ATOM     21  C   UNL     1      33.339 -13.780 -24.011  0.00  0.00    +0.001 C 
ATOM     22  C   UNL     1      33.780 -13.637 -21.640  0.00  0.00    +0.001 C 
ATOM     23  C   UNL     1      33.744 -15.115 -24.006  0.00  0.00    +0.000 C 
ATOM     24  C   UNL     1      34.185 -14.972 -21.635  0.00  0.00    +0.000 C 
ATOM     25  C   UNL     1      34.168 -15.711 -22.817  0.00  0.00    +0.000 C 
ENDBRANCH   7  20
TORSDOF 2
ENDMDL
MODEL 8
REMARK VINA RESULT:     -10.2      2.200      4.199
REMARK  Name = 44422489
REMARK  2 active torsions:
REMARK  status: ('A' for Active; 'I' for Inactive)
REMARK    1  A    between atoms: N_2  and  C_12
REMARK    2  A    between atoms: C_7  and  C_20
REMARK                            x       y       z     vdW  Elec       q    Type
REMARK                         _______ _______ _______ _____ _____    ______ ____
ROOT
ATOM      1  N   UNL     1      31.947 -11.152 -21.880  0.00  0.00    -0.243 N 
ATOM      2  N   UNL     1      31.866  -7.597 -22.946  0.00  0.00    -0.297 N 
ATOM      3  N   UNL     1      33.115  -9.414 -23.706  0.00  0.00    -0.226 NA
ATOM      4  N   UNL     1      30.394 -10.871 -20.310  0.00  0.00    -0.224 NA
ATOM      5  C   UNL     1      31.586  -9.824 -21.922  0.00  0.00    +0.108 C 
ATOM      6  C   UNL     1      32.207  -8.929 -22.883  0.00  0.00    +0.148 C 
ATOM      7  C   UNL     1      32.908 -11.642 -22.760  0.00  0.00    +0.076 C 
ATOM      8  C   UNL     1      33.446 -10.756 -23.628  0.00  0.00    +0.115 C 
ATOM      9  C   UNL     1      30.631  -9.677 -20.943  0.00  0.00    +0.118 C 
ATOM     10  C   UNL     1      31.194 -11.737 -20.896  0.00  0.00    +0.172 C 
ATOM     11  H   UNL     1      31.182  -7.285 -22.310  0.00  0.00    +0.154 HD
ENDROOT
BRANCH   2  12
ATOM     12  C   UNL     1      32.387  -6.645 -23.817  0.00  0.00    +0.041 C 
ATOM     13  C   UNL     1      33.576  -5.989 -23.502  0.00  0.00    -0.009 C 
ATOM     14  C   UNL     1      31.720  -6.349 -25.006  0.00  0.00    -0.009 C 
ATOM     15  C   UNL     1      34.099  -5.035 -24.375  0.00  0.00    -0.003 C 
ATOM     16  C   UNL     1      32.243  -5.395 -25.879  0.00  0.00    -0.003 C 
ATOM     17  C   UNL     1      34.313  -6.285 -22.236  0.00  0.00    +0.032 C 
ATOM     18  C   UNL     1      30.444  -7.036 -25.370  0.00  0.00    +0.032 C 
ATOM     19  C   UNL     1      33.433  -4.738 -25.564  0.00  0.00    -0.001 C 
ENDBRANCH   2  12
BRANCH   7  20
ATOM     20  C   UNL     1      33.351 -13.044 -22.764  0.00  0.00    +0.016 C 
ATOM     21  C   UNL     1      33.349 -13.773 -23.954  0.00  0.00    +0.001 C 
ATOM     22  C   UNL     1      33.774 -13.646 -21.579  0.00  0.00    +0.001 C 
ATOM     23  C   UNL     1      33.770 -15.103 -23.958  0.00  0.00    +0.000 C 
ATOM     24  C   UNL     1      34.194 -14.976 -21.583  0.00  0.00    +0.000 C 
ATOM     25  C   UNL     1      34.193 -15.704 -22.772  0.00  0.00    +0.000 C 
ENDBRANCH   7  20
TORSDOF 2
ENDMDL
MODEL 9
REMARK VINA RESULT:     -10.1     11.501     14.954
REMARK  Name = 44422489
REMARK  2 active torsions:
REMARK  status: ('A' for Active; 'I' for Inactive)
REMARK    1  A    between atoms: N_2  and  C_12
REMARK    2  A    between atoms: C_7  and  C_20
REMARK                            x       y       z     vdW  Elec       q    Type
REMARK                         _______ _______ _______ _____ _____    ______ ____
ROOT
ATOM      1  N   UNL     1      32.414 -22.681 -16.512  0.00  0.00    -0.243 N 
ATOM      2  N   UNL     1      35.725 -23.664 -15.151  0.00  0.00    -0.297 N 
ATOM      3  N   UNL     1      33.563 -23.951 -14.325  0.00  0.00    -0.226 NA
ATOM      4  N   UNL     1      33.275 -21.763 -18.348  0.00  0.00    -0.224 NA
ATOM      5  C   UNL     1      33.779 -22.832 -16.420  0.00  0.00    +0.108 C 
ATOM      6  C   UNL     1      34.363 -23.499 -15.269  0.00  0.00    +0.148 C 
ATOM      7  C   UNL     1      31.588 -23.166 -15.502  0.00  0.00    +0.076 C 
ATOM      8  C   UNL     1      32.196 -23.775 -14.459  0.00  0.00    +0.115 C 
ATOM      9  C   UNL     1      34.285 -22.256 -17.561  0.00  0.00    +0.118 C 
ATOM     10  C   UNL     1      32.165 -22.036 -17.695  0.00  0.00    +0.172 C 
ATOM     11  H   UNL     1      36.278 -23.309 -15.884  0.00  0.00    +0.154 HD
ENDROOT
BRANCH   2  12
ATOM     12  C   UNL     1      36.400 -24.281 -14.103  0.00  0.00    +0.041 C 
ATOM     13  C   UNL     1      36.892 -23.518 -13.045  0.00  0.00    -0.009 C 
ATOM     14  C   UNL     1      36.584 -25.664 -14.110  0.00  0.00    -0.009 C 
ATOM     15  C   UNL     1      37.569 -24.137 -11.994  0.00  0.00    -0.003 C 
ATOM     16  C   UNL     1      37.261 -26.283 -13.059  0.00  0.00    -0.003 C 
ATOM     17  C   UNL     1      36.710 -22.035 -13.009  0.00  0.00    +0.032 C 
ATOM     18  C   UNL     1      36.069 -26.508 -15.231  0.00  0.00    +0.032 C 
ATOM     19  C   UNL     1      37.753 -25.519 -12.001  0.00  0.00    -0.001 C 
ENDBRANCH   2  12
BRANCH   7  20
ATOM     20  C   UNL     1      30.124 -23.029 -15.527  0.00  0.00    +0.016 C 
ATOM     21  C   UNL     1      29.340 -24.029 -16.102  0.00  0.00    +0.001 C 
ATOM     22  C   UNL     1      29.520 -21.899 -14.976  0.00  0.00    +0.001 C 
ATOM     23  C   UNL     1      27.951 -23.899 -16.126  0.00  0.00    +0.000 C 
ATOM     24  C   UNL     1      28.131 -21.769 -15.000  0.00  0.00    +0.000 C 
ATOM     25  C   UNL     1      27.347 -22.769 -15.575  0.00  0.00    +0.000 C 
ENDBRANCH   7  20
TORSDOF 2
ENDMDL
