MODEL 1
REMARK VINA RESULT:     -11.6      0.000      0.000
REMARK  Name = 10317619
REMARK  4 active torsions:
REMARK  status: ('A' for Active; 'I' for Inactive)
REMARK    1  A    between atoms: C_4  and  N_17
REMARK    2  A    between atoms: C_6  and  C_11
REMARK    3  A    between atoms: N_17  and  C_19
REMARK    4  A    between atoms: C_19  and  C_22
REMARK                            x       y       z     vdW  Elec       q    Type
REMARK                         _______ _______ _______ _____ _____    ______ ____
ROOT
ATOM      1 BR   UNL     1      28.230 -22.684 -15.961  0.00  0.00    -0.046 Br
ATOM      2  N   UNL     1      31.977 -23.786 -14.819  0.00  0.00    -0.176 N 
ATOM      3  N   UNL     1      31.251 -24.390 -13.833  0.00  0.00    -0.171 NA
ATOM      4  C   UNL     1      33.377 -23.797 -14.983  0.00  0.00    +0.121 C 
ATOM      5  C   UNL     1      31.128 -23.112 -15.704  0.00  0.00    +0.083 C 
ATOM      6  C   UNL     1      33.044 -22.415 -16.978  0.00  0.00    +0.004 C 
ATOM      7  C   UNL     1      33.901 -23.132 -16.033  0.00  0.00    +0.032 C 
ATOM      8  C   UNL     1      31.703 -22.418 -16.803  0.00  0.00    +0.017 C 
ATOM      9  C   UNL     1      29.843 -23.301 -15.259  0.00  0.00    +0.071 C 
ATOM     10  C   UNL     1      29.983 -24.090 -14.110  0.00  0.00    +0.126 C 
ENDROOT
BRANCH   6  11
ATOM     11  C   UNL     1      33.595 -21.687 -18.138  0.00  0.00    +0.000 C 
ATOM     12  C   UNL     1      34.975 -21.635 -18.335  0.00  0.00    +0.000 C 
ATOM     13  C   UNL     1      32.736 -21.054 -19.034  0.00  0.00    +0.000 C 
ATOM     14  C   UNL     1      35.495 -20.947 -19.430  0.00  0.00    +0.000 C 
ATOM     15  C   UNL     1      33.257 -20.367 -20.130  0.00  0.00    +0.000 C 
ATOM     16  C   UNL     1      34.636 -20.313 -20.328  0.00  0.00    +0.000 C 
ENDBRANCH   6  11
BRANCH   4  17
ATOM     17  N   UNL     1      34.117 -24.485 -14.064  0.00  0.00    -0.316 N 
ATOM     18  H   UNL     1      34.028 -25.464 -14.021  0.00  0.00    +0.148 HD
BRANCH  17  19
ATOM     19  C   UNL     1      35.018 -23.834 -13.159  0.00  0.00    +0.118 C 
BRANCH  19  22
ATOM     20  N   UNL     1      38.252 -25.750 -12.955  0.00  0.00    -0.223 NA
ATOM     21  N   UNL     1      38.548 -23.896 -14.465  0.00  0.00    -0.223 NA
ATOM     22  C   UNL     1      36.445 -24.252 -13.391  0.00  0.00    +0.036 C 
ATOM     23  C   UNL     1      36.977 -25.348 -12.770  0.00  0.00    +0.100 C 
ATOM     24  C   UNL     1      37.264 -23.550 -14.232  0.00  0.00    +0.100 C 
ATOM     25  C   UNL     1      38.970 -24.991 -13.802  0.00  0.00    +0.199 C 
ENDBRANCH  19  22
ENDBRANCH  17  19
ENDBRANCH   4  17
TORSDOF 4
ENDMDL
MODEL 2
REMARK VINA RESULT:     -11.2      3.784      7.239
REMARK  Name = 10317619
REMARK  4 active torsions:
REMARK  status: ('A' for Active; 'I' for Inactive)
REMARK    1  A    between atoms: C_4  and  N_17
REMARK    2  A    between atoms: C_6  and  C_11
REMARK    3  A    between atoms: N_17  and  C_19
REMARK    4  A    between atoms: C_19  and  C_22
REMARK                            x       y       z     vdW  Elec       q    Type
REMARK                         _______ _______ _______ _____ _____    ______ ____
ROOT
ATOM      1 BR   UNL     1      36.448 -22.784 -13.329  0.00  0.00    -0.046 Br
ATOM      2  N   UNL     1      34.962 -22.093 -17.053  0.00  0.00    -0.176 N 
ATOM      3  N   UNL     1      36.275 -21.792 -17.272  0.00  0.00    -0.171 NA
ATOM      4  C   UNL     1      33.905 -22.048 -17.985  0.00  0.00    +0.121 C 
ATOM      5  C   UNL     1      34.767 -22.476 -15.722  0.00  0.00    +0.083 C 
ATOM      6  C   UNL     1      32.427 -22.790 -16.178  0.00  0.00    +0.004 C 
ATOM      7  C   UNL     1      32.669 -22.387 -17.564  0.00  0.00    +0.032 C 
ATOM      8  C   UNL     1      33.456 -22.829 -15.301  0.00  0.00    +0.017 C 
ATOM      9  C   UNL     1      35.987 -22.411 -15.095  0.00  0.00    +0.071 C 
ATOM     10  C   UNL     1      36.871 -21.986 -16.096  0.00  0.00    +0.126 C 
ENDROOT
BRANCH   6  11
ATOM     11  C   UNL     1      31.085 -23.173 -15.697  0.00  0.00    +0.000 C 
ATOM     12  C   UNL     1      29.951 -22.603 -16.274  0.00  0.00    +0.000 C 
ATOM     13  C   UNL     1      30.954 -24.104 -14.668  0.00  0.00    +0.000 C 
ATOM     14  C   UNL     1      28.683 -22.964 -15.819  0.00  0.00    +0.000 C 
ATOM     15  C   UNL     1      29.686 -24.465 -14.214  0.00  0.00    +0.000 C 
ATOM     16  C   UNL     1      28.551 -23.895 -14.790  0.00  0.00    +0.000 C 
ENDBRANCH   6  11
BRANCH   4  17
ATOM     17  N   UNL     1      34.202 -21.661 -19.261  0.00  0.00    -0.316 N 
ATOM     18  H   UNL     1      34.918 -22.133 -19.744  0.00  0.00    +0.148 HD
BRANCH  17  19
ATOM     19  C   UNL     1      33.509 -20.596 -19.922  0.00  0.00    +0.118 C 
BRANCH  19  22
ATOM     20  N   UNL     1      34.938 -18.209 -22.459  0.00  0.00    -0.223 NA
ATOM     21  N   UNL     1      36.573 -18.562 -20.724  0.00  0.00    -0.223 NA
ATOM     22  C   UNL     1      34.457 -19.663 -20.627  0.00  0.00    +0.036 C 
ATOM     23  C   UNL     1      34.113 -19.050 -21.801  0.00  0.00    +0.100 C 
ATOM     24  C   UNL     1      35.698 -19.393 -20.120  0.00  0.00    +0.100 C 
ATOM     25  C   UNL     1      36.134 -18.013 -21.874  0.00  0.00    +0.199 C 
ENDBRANCH  19  22
ENDBRANCH  17  19
ENDBRANCH   4  17
TORSDOF 4
ENDMDL
MODEL 3
REMARK VINA RESULT:     -11.1      3.056      5.419
REMARK  Name = 10317619
REMARK  4 active torsions:
REMARK  status: ('A' for Active; 'I' for Inactive)
REMARK    1  A    between atoms: C_4  and  N_17
REMARK    2  A    between atoms: C_6  and  C_11
REMARK    3  A    between atoms: N_17  and  C_19
REMARK    4  A    between atoms: C_19  and  C_22
REMARK                            x       y       z     vdW  Elec       q    Type
REMARK                         _______ _______ _______ _____ _____    ______ ____
ROOT
ATOM      1 BR   UNL     1      37.840 -22.273 -15.719  0.00  0.00    -0.046 Br
ATOM      2  N   UNL     1      33.955 -22.568 -16.889  0.00  0.00    -0.176 N 
ATOM      3  N   UNL     1      33.917 -23.357 -15.776  0.00  0.00    -0.171 NA
ATOM      4  C   UNL     1      32.888 -22.264 -17.761  0.00  0.00    +0.121 C 
ATOM      5  C   UNL     1      35.244 -22.062 -17.084  0.00  0.00    +0.083 C 
ATOM      6  C   UNL     1      34.474 -20.912 -19.049  0.00  0.00    +0.004 C 
ATOM      7  C   UNL     1      33.136 -21.458 -18.813  0.00  0.00    +0.032 C 
ATOM      8  C   UNL     1      35.481 -21.214 -18.200  0.00  0.00    +0.017 C 
ATOM      9  C   UNL     1      36.030 -22.547 -16.068  0.00  0.00    +0.071 C 
ATOM     10  C   UNL     1      35.162 -23.334 -15.299  0.00  0.00    +0.126 C 
ENDROOT
BRANCH   6  11
ATOM     11  C   UNL     1      34.765 -20.022 -20.190  0.00  0.00    +0.000 C 
ATOM     12  C   UNL     1      36.019 -19.421 -20.301  0.00  0.00    +0.000 C 
ATOM     13  C   UNL     1      33.788 -19.784 -21.154  0.00  0.00    +0.000 C 
ATOM     14  C   UNL     1      36.294 -18.580 -21.378  0.00  0.00    +0.000 C 
ATOM     15  C   UNL     1      34.064 -18.943 -22.231  0.00  0.00    +0.000 C 
ATOM     16  C   UNL     1      35.317 -18.340 -22.343  0.00  0.00    +0.000 C 
ENDBRANCH   6  11
BRANCH   4  17
ATOM     17  N   UNL     1      31.667 -22.809 -17.482  0.00  0.00    -0.316 N 
ATOM     18  H   UNL     1      31.422 -23.663 -17.904  0.00  0.00    +0.148 HD
BRANCH  17  19
ATOM     19  C   UNL     1      30.730 -22.183 -16.597  0.00  0.00    +0.118 C 
BRANCH  19  22
ATOM     20  N   UNL     1      29.790 -24.914 -14.182  0.00  0.00    -0.223 NA
ATOM     21  N   UNL     1      30.861 -23.136 -12.958  0.00  0.00    -0.223 NA
ATOM     22  C   UNL     1      30.559 -22.961 -15.320  0.00  0.00    +0.036 C 
ATOM     23  C   UNL     1      29.960 -24.190 -15.309  0.00  0.00    +0.100 C 
ATOM     24  C   UNL     1      30.996 -22.466 -14.121  0.00  0.00    +0.100 C 
ATOM     25  C   UNL     1      30.256 -24.336 -13.060  0.00  0.00    +0.199 C 
ENDBRANCH  19  22
ENDBRANCH  17  19
ENDBRANCH   4  17
TORSDOF 4
ENDMDL
MODEL 4
REMARK VINA RESULT:     -11.1      1.675      2.137
REMARK  Name = 10317619
REMARK  4 active torsions:
REMARK  status: ('A' for Active; 'I' for Inactive)
REMARK    1  A    between atoms: C_4  and  N_17
REMARK    2  A    between atoms: C_6  and  C_11
REMARK    3  A    between atoms: N_17  and  C_19
REMARK    4  A    between atoms: C_19  and  C_22
REMARK                            x       y       z     vdW  Elec       q    Type
REMARK                         _______ _______ _______ _____ _____    ______ ____
ROOT
ATOM      1 BR   UNL     1      28.446 -22.912 -16.049  0.00  0.00    -0.046 Br
ATOM      2  N   UNL     1      32.395 -23.485 -15.254  0.00  0.00    -0.176 N 
ATOM      3  N   UNL     1      31.850 -24.163 -14.202  0.00  0.00    -0.171 NA
ATOM      4  C   UNL     1      33.764 -23.312 -15.547  0.00  0.00    +0.121 C 
ATOM      5  C   UNL     1      31.387 -22.946 -16.059  0.00  0.00    +0.083 C 
ATOM      6  C   UNL     1      33.067 -22.021 -17.508  0.00  0.00    +0.004 C 
ATOM      7  C   UNL     1      34.096 -22.602 -16.644  0.00  0.00    +0.032 C 
ATOM      8  C   UNL     1      31.761 -22.200 -17.210  0.00  0.00    +0.017 C 
ATOM      9  C   UNL     1      30.184 -23.296 -15.496  0.00  0.00    +0.071 C 
ATOM     10  C   UNL     1      30.533 -24.041 -14.361  0.00  0.00    +0.126 C 
ENDROOT
BRANCH   6  11
ATOM     11  C   UNL     1      33.408 -21.246 -18.718  0.00  0.00    +0.000 C 
ATOM     12  C   UNL     1      34.738 -21.138 -19.123  0.00  0.00    +0.000 C 
ATOM     13  C   UNL     1      32.400 -20.625 -19.452  0.00  0.00    +0.000 C 
ATOM     14  C   UNL     1      35.059 -20.406 -20.265  0.00  0.00    +0.000 C 
ATOM     15  C   UNL     1      32.722 -19.893 -20.594  0.00  0.00    +0.000 C 
ATOM     16  C   UNL     1      34.051 -19.783 -21.001  0.00  0.00    +0.000 C 
ENDBRANCH   6  11
BRANCH   4  17
ATOM     17  N   UNL     1      34.670 -23.880 -14.696  0.00  0.00    -0.316 N 
ATOM     18  H   UNL     1      34.643 -24.853 -14.557  0.00  0.00    +0.148 HD
BRANCH  17  19
ATOM     19  C   UNL     1      35.658 -23.110 -14.000  0.00  0.00    +0.118 C 
BRANCH  19  22
ATOM     20  N   UNL     1      36.506 -22.960 -10.335  0.00  0.00    -0.223 NA
ATOM     21  N   UNL     1      34.685 -24.508 -10.643  0.00  0.00    -0.223 NA
ATOM     22  C   UNL     1      35.632 -23.373 -12.518  0.00  0.00    +0.036 C 
ATOM     23  C   UNL     1      36.502 -22.747 -11.668  0.00  0.00    +0.100 C 
ATOM     24  C   UNL     1      34.738 -24.248 -11.966  0.00  0.00    +0.100 C 
ATOM     25  C   UNL     1      35.586 -23.839  -9.897  0.00  0.00    +0.199 C 
ENDBRANCH  19  22
ENDBRANCH  17  19
ENDBRANCH   4  17
TORSDOF 4
ENDMDL
MODEL 5
REMARK VINA RESULT:     -11.0      2.792      6.059
REMARK  Name = 10317619
REMARK  4 active torsions:
REMARK  status: ('A' for Active; 'I' for Inactive)
REMARK    1  A    between atoms: C_4  and  N_17
REMARK    2  A    between atoms: C_6  and  C_11
REMARK    3  A    between atoms: N_17  and  C_19
REMARK    4  A    between atoms: C_19  and  C_22
REMARK                            x       y       z     vdW  Elec       q    Type
REMARK                         _______ _______ _______ _____ _____    ______ ____
ROOT
ATOM      1 BR   UNL     1      37.484 -23.892 -13.067  0.00  0.00    -0.046 Br
ATOM      2  N   UNL     1      33.474 -23.529 -13.651  0.00  0.00    -0.176 N 
ATOM      3  N   UNL     1      33.474 -24.058 -12.393  0.00  0.00    -0.171 NA
ATOM      4  C   UNL     1      32.355 -23.168 -14.431  0.00  0.00    +0.121 C 
ATOM      5  C   UNL     1      34.785 -23.373 -14.113  0.00  0.00    +0.083 C 
ATOM      6  C   UNL     1      33.931 -22.483 -16.176  0.00  0.00    +0.004 C 
ATOM      7  C   UNL     1      32.573 -22.658 -15.660  0.00  0.00    +0.032 C 
ATOM      8  C   UNL     1      34.990 -22.832 -15.412  0.00  0.00    +0.017 C 
ATOM      9  C   UNL     1      35.623 -23.815 -13.119  0.00  0.00    +0.071 C 
ATOM     10  C   UNL     1      34.761 -24.223 -12.091  0.00  0.00    +0.126 C 
ENDROOT
BRANCH   6  11
ATOM     11  C   UNL     1      34.193 -21.919 -17.516  0.00  0.00    +0.000 C 
ATOM     12  C   UNL     1      35.487 -21.536 -17.868  0.00  0.00    +0.000 C 
ATOM     13  C   UNL     1      33.147 -21.772 -18.424  0.00  0.00    +0.000 C 
ATOM     14  C   UNL     1      35.733 -21.003 -19.133  0.00  0.00    +0.000 C 
ATOM     15  C   UNL     1      33.395 -21.239 -19.689  0.00  0.00    +0.000 C 
ATOM     16  C   UNL     1      34.687 -20.854 -20.043  0.00  0.00    +0.000 C 
ENDBRANCH   6  11
BRANCH   4  17
ATOM     17  N   UNL     1      31.117 -23.360 -13.888  0.00  0.00    -0.316 N 
ATOM     18  H   UNL     1      30.864 -22.841 -13.091  0.00  0.00    +0.148 HD
BRANCH  17  19
ATOM     19  C   UNL     1      30.173 -24.289 -14.435  0.00  0.00    +0.118 C 
BRANCH  19  22
ATOM     20  N   UNL     1      27.952 -21.607 -15.866  0.00  0.00    -0.223 NA
ATOM     21  N   UNL     1      27.413 -23.702 -16.926  0.00  0.00    -0.223 NA
ATOM     22  C   UNL     1      29.122 -23.599 -15.262  0.00  0.00    +0.036 C 
ATOM     23  C   UNL     1      28.886 -22.257 -15.140  0.00  0.00    +0.100 C 
ATOM     24  C   UNL     1      28.363 -24.288 -16.167  0.00  0.00    +0.100 C 
ATOM     25  C   UNL     1      27.263 -22.378 -16.726  0.00  0.00    +0.199 C 
ENDBRANCH  19  22
ENDBRANCH  17  19
ENDBRANCH   4  17
TORSDOF 4
ENDMDL
MODEL 6
REMARK VINA RESULT:     -10.9      2.755      4.846
REMARK  Name = 10317619
REMARK  4 active torsions:
REMARK  status: ('A' for Active; 'I' for Inactive)
REMARK    1  A    between atoms: C_4  and  N_17
REMARK    2  A    between atoms: C_6  and  C_11
REMARK    3  A    between atoms: N_17  and  C_19
REMARK    4  A    between atoms: C_19  and  C_22
REMARK                            x       y       z     vdW  Elec       q    Type
REMARK                         _______ _______ _______ _____ _____    ______ ____
ROOT
ATOM      1 BR   UNL     1      35.239 -21.315 -18.734  0.00  0.00    -0.046 Br
ATOM      2  N   UNL     1      35.570 -22.557 -14.873  0.00  0.00    -0.176 N 
ATOM      3  N   UNL     1      36.860 -22.170 -15.100  0.00  0.00    -0.171 NA
ATOM      4  C   UNL     1      35.031 -23.093 -13.685  0.00  0.00    +0.121 C 
ATOM      5  C   UNL     1      34.793 -22.352 -16.018  0.00  0.00    +0.083 C 
ATOM      6  C   UNL     1      32.879 -23.214 -14.848  0.00  0.00    +0.004 C 
ATOM      7  C   UNL     1      33.721 -23.414 -13.668  0.00  0.00    +0.032 C 
ATOM      8  C   UNL     1      33.415 -22.697 -15.976  0.00  0.00    +0.017 C 
ATOM      9  C   UNL     1      35.617 -21.824 -16.981  0.00  0.00    +0.071 C 
ATOM     10  C   UNL     1      36.870 -21.737 -16.360  0.00  0.00    +0.126 C 
ENDROOT
BRANCH   6  11
ATOM     11  C   UNL     1      31.441 -23.551 -14.848  0.00  0.00    +0.000 C 
ATOM     12  C   UNL     1      30.565 -22.859 -15.685  0.00  0.00    +0.000 C 
ATOM     13  C   UNL     1      30.963 -24.559 -14.014  0.00  0.00    +0.000 C 
ATOM     14  C   UNL     1      29.208 -23.177 -15.685  0.00  0.00    +0.000 C 
ATOM     15  C   UNL     1      29.605 -24.876 -14.015  0.00  0.00    +0.000 C 
ATOM     16  C   UNL     1      28.727 -24.185 -14.850  0.00  0.00    +0.000 C 
ENDBRANCH   6  11
BRANCH   4  17
ATOM     17  N   UNL     1      35.875 -23.254 -12.623  0.00  0.00    -0.316 N 
ATOM     18  H   UNL     1      36.147 -22.460 -12.110  0.00  0.00    +0.148 HD
BRANCH  17  19
ATOM     19  C   UNL     1      36.380 -24.536 -12.230  0.00  0.00    +0.118 C 
BRANCH  19  22
ATOM     20  N   UNL     1      38.746 -26.399 -14.490  0.00  0.00    -0.223 NA
ATOM     21  N   UNL     1      39.877 -24.457 -13.619  0.00  0.00    -0.223 NA
ATOM     22  C   UNL     1      37.617 -24.913 -13.000  0.00  0.00    +0.036 C 
ATOM     23  C   UNL     1      37.654 -26.032 -13.786  0.00  0.00    +0.100 C 
ATOM     24  C   UNL     1      38.751 -24.151 -12.942  0.00  0.00    +0.100 C 
ATOM     25  C   UNL     1      39.806 -25.579 -14.363  0.00  0.00    +0.199 C 
ENDBRANCH  19  22
ENDBRANCH  17  19
ENDBRANCH   4  17
TORSDOF 4
ENDMDL
MODEL 7
REMARK VINA RESULT:     -10.6      2.175      4.766
REMARK  Name = 10317619
REMARK  4 active torsions:
REMARK  status: ('A' for Active; 'I' for Inactive)
REMARK    1  A    between atoms: C_4  and  N_17
REMARK    2  A    between atoms: C_6  and  C_11
REMARK    3  A    between atoms: N_17  and  C_19
REMARK    4  A    between atoms: C_19  and  C_22
REMARK                            x       y       z     vdW  Elec       q    Type
REMARK                         _______ _______ _______ _____ _____    ______ ____
ROOT
ATOM      1 BR   UNL     1      32.827 -20.445 -20.301  0.00  0.00    -0.046 Br
ATOM      2  N   UNL     1      34.525 -22.225 -17.061  0.00  0.00    -0.176 N 
ATOM      3  N   UNL     1      35.650 -21.774 -17.689  0.00  0.00    -0.171 NA
ATOM      4  C   UNL     1      34.448 -22.943 -15.849  0.00  0.00    +0.121 C 
ATOM      5  C   UNL     1      33.387 -21.877 -17.795  0.00  0.00    +0.083 C 
ATOM      6  C   UNL     1      32.016 -22.952 -16.138  0.00  0.00    +0.004 C 
ATOM      7  C   UNL     1      33.229 -23.298 -15.395  0.00  0.00    +0.032 C 
ATOM      8  C   UNL     1      32.112 -22.262 -17.296  0.00  0.00    +0.017 C 
ATOM      9  C   UNL     1      33.811 -21.193 -18.907  0.00  0.00    +0.071 C 
ATOM     10  C   UNL     1      35.207 -21.162 -18.787  0.00  0.00    +0.126 C 
ENDROOT
BRANCH   6  11
ATOM     11  C   UNL     1      30.671 -23.324 -15.656  0.00  0.00    +0.000 C 
ATOM     12  C   UNL     1      30.524 -24.362 -14.736  0.00  0.00    +0.000 C 
ATOM     13  C   UNL     1      29.552 -22.637 -16.120  0.00  0.00    +0.000 C 
ATOM     14  C   UNL     1      29.254 -24.713 -14.282  0.00  0.00    +0.000 C 
ATOM     15  C   UNL     1      28.281 -22.989 -15.665  0.00  0.00    +0.000 C 
ATOM     16  C   UNL     1      28.132 -24.027 -14.746  0.00  0.00    +0.000 C 
ENDBRANCH   6  11
BRANCH   4  17
ATOM     17  N   UNL     1      35.620 -23.233 -15.210  0.00  0.00    -0.316 N 
ATOM     18  H   UNL     1      36.334 -22.556 -15.199  0.00  0.00    +0.148 HD
BRANCH  17  19
ATOM     19  C   UNL     1      35.848 -24.487 -14.555  0.00  0.00    +0.118 C 
BRANCH  19  22
ATOM     20  N   UNL     1      39.596 -24.133 -14.520  0.00  0.00    -0.223 NA
ATOM     21  N   UNL     1      39.039 -26.468 -14.301  0.00  0.00    -0.223 NA
ATOM     22  C   UNL     1      37.313 -24.830 -14.494  0.00  0.00    +0.036 C 
ATOM     23  C   UNL     1      38.275 -23.861 -14.570  0.00  0.00    +0.100 C 
ATOM     24  C   UNL     1      37.736 -26.124 -14.360  0.00  0.00    +0.100 C 
ATOM     25  C   UNL     1      39.903 -25.437 -14.386  0.00  0.00    +0.199 C 
ENDBRANCH  19  22
ENDBRANCH  17  19
ENDBRANCH   4  17
TORSDOF 4
ENDMDL
MODEL 8
REMARK VINA RESULT:     -10.5      2.810      5.807
REMARK  Name = 10317619
REMARK  4 active torsions:
REMARK  status: ('A' for Active; 'I' for Inactive)
REMARK    1  A    between atoms: C_4  and  N_17
REMARK    2  A    between atoms: C_6  and  C_11
REMARK    3  A    between atoms: N_17  and  C_19
REMARK    4  A    between atoms: C_19  and  C_22
REMARK                            x       y       z     vdW  Elec       q    Type
REMARK                         _______ _______ _______ _____ _____    ______ ____
ROOT
ATOM      1 BR   UNL     1      38.933 -24.617 -13.771  0.00  0.00    -0.046 Br
ATOM      2  N   UNL     1      34.976 -23.794 -13.306  0.00  0.00    -0.176 N 
ATOM      3  N   UNL     1      35.227 -24.390 -12.104  0.00  0.00    -0.171 NA
ATOM      4  C   UNL     1      33.749 -23.272 -13.764  0.00  0.00    +0.121 C 
ATOM      5  C   UNL     1      36.139 -23.754 -14.081  0.00  0.00    +0.083 C 
ATOM      6  C   UNL     1      34.908 -22.662 -15.834  0.00  0.00    +0.004 C 
ATOM      7  C   UNL     1      33.711 -22.719 -14.994  0.00  0.00    +0.032 C 
ATOM      8  C   UNL     1      36.075 -23.165 -15.374  0.00  0.00    +0.017 C 
ATOM      9  C   UNL     1      37.140 -24.339 -13.346  0.00  0.00    +0.071 C 
ATOM     10  C   UNL     1      36.521 -24.709 -12.144  0.00  0.00    +0.126 C 
ENDROOT
BRANCH   6  11
ATOM     11  C   UNL     1      34.892 -22.054 -17.179  0.00  0.00    +0.000 C 
ATOM     12  C   UNL     1      33.725 -22.086 -17.942  0.00  0.00    +0.000 C 
ATOM     13  C   UNL     1      36.042 -21.450 -17.683  0.00  0.00    +0.000 C 
ATOM     14  C   UNL     1      33.710 -21.512 -19.213  0.00  0.00    +0.000 C 
ATOM     15  C   UNL     1      36.026 -20.876 -18.954  0.00  0.00    +0.000 C 
ATOM     16  C   UNL     1      34.860 -20.907 -19.719  0.00  0.00    +0.000 C 
ENDBRANCH   6  11
BRANCH   4  17
ATOM     17  N   UNL     1      32.671 -23.361 -12.929  0.00  0.00    -0.316 N 
ATOM     18  H   UNL     1      32.689 -24.024 -12.202  0.00  0.00    +0.148 HD
BRANCH  17  19
ATOM     19  C   UNL     1      31.517 -22.525 -13.072  0.00  0.00    +0.118 C 
BRANCH  19  22
ATOM     20  N   UNL     1      29.266 -25.235 -14.402  0.00  0.00    -0.223 NA
ATOM     21  N   UNL     1      28.514 -23.114 -15.265  0.00  0.00    -0.223 NA
ATOM     22  C   UNL     1      30.408 -23.222 -13.816  0.00  0.00    +0.036 C 
ATOM     23  C   UNL     1      30.248 -24.579 -13.748  0.00  0.00    +0.100 C 
ATOM     24  C   UNL     1      29.520 -22.524 -14.586  0.00  0.00    +0.100 C 
ATOM     25  C   UNL     1      28.448 -24.454 -15.130  0.00  0.00    +0.199 C 
ENDBRANCH  19  22
ENDBRANCH  17  19
ENDBRANCH   4  17
TORSDOF 4
ENDMDL
MODEL 9
REMARK VINA RESULT:     -10.3      2.935      6.314
REMARK  Name = 10317619
REMARK  4 active torsions:
REMARK  status: ('A' for Active; 'I' for Inactive)
REMARK    1  A    between atoms: C_4  and  N_17
REMARK    2  A    between atoms: C_6  and  C_11
REMARK    3  A    between atoms: N_17  and  C_19
REMARK    4  A    between atoms: C_19  and  C_22
REMARK                            x       y       z     vdW  Elec       q    Type
REMARK                         _______ _______ _______ _____ _____    ______ ____
ROOT
ATOM      1 BR   UNL     1      29.899 -24.045 -13.503  0.00  0.00    -0.046 Br
ATOM      2  N   UNL     1      32.176 -22.612 -16.555  0.00  0.00    -0.176 N 
ATOM      3  N   UNL     1      30.936 -22.290 -17.026  0.00  0.00    -0.171 NA
ATOM      4  C   UNL     1      33.419 -22.369 -17.176  0.00  0.00    +0.121 C 
ATOM      5  C   UNL     1      32.075 -23.247 -15.313  0.00  0.00    +0.083 C 
ATOM      6  C   UNL     1      34.470 -23.438 -15.239  0.00  0.00    +0.004 C 
ATOM      7  C   UNL     1      34.538 -22.769 -16.539  0.00  0.00    +0.032 C 
ATOM      8  C   UNL     1      33.269 -23.659 -14.661  0.00  0.00    +0.017 C 
ATOM      9  C   UNL     1      30.740 -23.324 -15.002  0.00  0.00    +0.071 C 
ATOM     10  C   UNL     1      30.092 -22.722 -16.089  0.00  0.00    +0.126 C 
ENDROOT
BRANCH   6  11
ATOM     11  C   UNL     1      35.683 -23.877 -14.521  0.00  0.00    +0.000 C 
ATOM     12  C   UNL     1      36.211 -25.146 -14.759  0.00  0.00    +0.000 C 
ATOM     13  C   UNL     1      36.297 -23.023 -13.608  0.00  0.00    +0.000 C 
ATOM     14  C   UNL     1      37.357 -25.560 -14.080  0.00  0.00    +0.000 C 
ATOM     15  C   UNL     1      37.442 -23.438 -12.929  0.00  0.00    +0.000 C 
ATOM     16  C   UNL     1      37.972 -24.707 -13.165  0.00  0.00    +0.000 C 
ENDBRANCH   6  11
BRANCH   4  17
ATOM     17  N   UNL     1      33.408 -21.741 -18.390  0.00  0.00    -0.316 N 
ATOM     18  H   UNL     1      32.616 -21.216 -18.644  0.00  0.00    +0.148 HD
BRANCH  17  19
ATOM     19  C   UNL     1      34.507 -21.820 -19.305  0.00  0.00    +0.118 C 
BRANCH  19  22
ATOM     20  N   UNL     1      36.377 -18.732 -20.376  0.00  0.00    -0.223 NA
ATOM     21  N   UNL     1      34.108 -18.575 -21.170  0.00  0.00    -0.223 NA
ATOM     22  C   UNL     1      34.818 -20.483 -19.924  0.00  0.00    +0.036 C 
ATOM     23  C   UNL     1      36.065 -19.928 -19.833  0.00  0.00    +0.100 C 
ATOM     24  C   UNL     1      33.865 -19.774 -20.602  0.00  0.00    +0.100 C 
ATOM     25  C   UNL     1      35.367 -18.119 -21.020  0.00  0.00    +0.199 C 
ENDBRANCH  19  22
ENDBRANCH  17  19
ENDBRANCH   4  17
TORSDOF 4
ENDMDL
