MODEL 1
REMARK VINA RESULT:     -10.9      0.000      0.000
REMARK  Name = 11696113
REMARK  4 active torsions:
REMARK  status: ('A' for Active; 'I' for Inactive)
REMARK    1  A    between atoms: C_5  and  C_17
REMARK    2  A    between atoms: C_5  and  C_25
REMARK    3  A    between atoms: C_17  and  C_19
REMARK    4  A    between atoms: C_25  and  N_26
REMARK                            x       y       z     vdW  Elec       q    Type
REMARK                         _______ _______ _______ _____ _____    ______ ____
ROOT
ATOM      1  N   UNL     1      34.517 -20.387 -19.757  0.00  0.00    -0.296 N 
ATOM      2  N   UNL     1      32.996 -21.921 -18.706  0.00  0.00    -0.233 NA
ATOM      3  N   UNL     1      35.723 -22.570 -15.797  0.00  0.00    -0.300 N 
ATOM      4  N   UNL     1      33.531 -23.104 -16.647  0.00  0.00    -0.233 NA
ATOM      5  C   UNL     1      35.092 -18.567 -21.980  0.00  0.00    -0.013 C 
ATOM      6  C   UNL     1      33.906 -18.357 -21.016  0.00  0.00    +0.020 C 
ATOM      7  C   UNL     1      36.193 -19.352 -21.239  0.00  0.00    +0.020 C 
ATOM      8  C   UNL     1      33.407 -19.654 -20.379  0.00  0.00    +0.092 C 
ATOM      9  C   UNL     1      35.688 -20.647 -20.599  0.00  0.00    +0.092 C 
ATOM     10  C   UNL     1      34.201 -21.281 -18.726  0.00  0.00    +0.116 C 
ATOM     11  C   UNL     1      35.106 -21.551 -17.684  0.00  0.00    +0.131 C 
ATOM     12  C   UNL     1      34.705 -22.453 -16.706  0.00  0.00    +0.117 C 
ATOM     13  C   UNL     1      36.411 -21.119 -17.338  0.00  0.00    +0.004 C 
ATOM     14  C   UNL     1      32.741 -22.775 -17.689  0.00  0.00    +0.252 C 
ATOM     15  C   UNL     1      36.766 -21.762 -16.171  0.00  0.00    +0.059 C 
ATOM     16  H   UNL     1      35.708 -23.144 -14.997  0.00  0.00    +0.153 HD
ENDROOT
BRANCH   5  17
ATOM     17  C   UNL     1      35.648 -17.195 -22.404  0.00  0.00    +0.024 C 
BRANCH  17  19
ATOM     18 CL   UNL     1      31.934 -12.760 -20.806  0.00  0.00    -0.082 Cl
ATOM     19  C   UNL     1      34.720 -16.088 -22.005  0.00  0.00    -0.022 C 
ATOM     20  C   UNL     1      34.392 -15.912 -20.665  0.00  0.00    -0.003 C 
ATOM     21  C   UNL     1      34.194 -15.244 -22.978  0.00  0.00    -0.003 C 
ATOM     22  C   UNL     1      33.528 -14.883 -20.293  0.00  0.00    +0.011 C 
ATOM     23  C   UNL     1      33.331 -14.214 -22.606  0.00  0.00    +0.011 C 
ATOM     24  C   UNL     1      32.997 -14.033 -21.264  0.00  0.00    +0.058 C 
ENDBRANCH  17  19
ENDBRANCH   5  17
BRANCH   5  25
ATOM     25  C   UNL     1      34.644 -19.314 -23.251  0.00  0.00    -0.086 C 
BRANCH  25  26
ATOM     26  N   UNL     1      33.566 -18.597 -23.904  0.00  0.00    +0.380 N 
ATOM     27  H   UNL     1      33.649 -17.600 -23.703  0.00  0.00    -0.089 HD
ATOM     28  H   UNL     1      32.670 -18.940 -23.557  0.00  0.00    -0.089 HD
ATOM     29  H   UNL     1      33.620 -18.746 -24.912  0.00  0.00    -0.089 HD
ENDBRANCH  25  26
ENDBRANCH   5  25
TORSDOF 4
ENDMDL
MODEL 2
REMARK VINA RESULT:     -10.2      3.736      8.252
REMARK  Name = 11696113
REMARK  4 active torsions:
REMARK  status: ('A' for Active; 'I' for Inactive)
REMARK    1  A    between atoms: C_5  and  C_17
REMARK    2  A    between atoms: C_5  and  C_25
REMARK    3  A    between atoms: C_17  and  C_19
REMARK    4  A    between atoms: C_25  and  N_26
REMARK                            x       y       z     vdW  Elec       q    Type
REMARK                         _______ _______ _______ _____ _____    ______ ____
ROOT
ATOM      1  N   UNL     1      34.183 -15.618 -22.196  0.00  0.00    -0.296 N 
ATOM      2  N   UNL     1      33.964 -13.351 -21.432  0.00  0.00    -0.233 NA
ATOM      3  N   UNL     1      32.551 -12.304 -25.069  0.00  0.00    -0.300 N 
ATOM      4  N   UNL     1      33.126 -11.558 -22.850  0.00  0.00    -0.233 NA
ATOM      5  C   UNL     1      34.986 -18.378 -21.631  0.00  0.00    -0.013 C 
ATOM      6  C   UNL     1      33.881 -17.653 -20.837  0.00  0.00    +0.020 C 
ATOM      7  C   UNL     1      35.063 -17.760 -23.041  0.00  0.00    +0.020 C 
ATOM      8  C   UNL     1      34.041 -16.132 -20.828  0.00  0.00    +0.092 C 
ATOM      9  C   UNL     1      35.219 -16.237 -23.028  0.00  0.00    +0.092 C 
ATOM     10  C   UNL     1      33.831 -14.281 -22.422  0.00  0.00    +0.116 C 
ATOM     11  C   UNL     1      33.333 -13.852 -23.665  0.00  0.00    +0.131 C 
ATOM     12  C   UNL     1      33.011 -12.506 -23.795  0.00  0.00    +0.117 C 
ATOM     13  C   UNL     1      33.050 -14.467 -24.910  0.00  0.00    +0.004 C 
ATOM     14  C   UNL     1      33.611 -12.073 -21.702  0.00  0.00    +0.252 C 
ATOM     15  C   UNL     1      32.569 -13.491 -25.757  0.00  0.00    +0.059 C 
ATOM     16  H   UNL     1      32.251 -11.440 -25.434  0.00  0.00    +0.153 HD
ENDROOT
BRANCH   5  17
ATOM     17  C   UNL     1      34.624 -19.871 -21.753  0.00  0.00    +0.024 C 
BRANCH  17  19
ATOM     18 CL   UNL     1      34.225 -22.451 -16.349  0.00  0.00    -0.082 Cl
ATOM     19  C   UNL     1      34.525 -20.515 -20.403  0.00  0.00    -0.022 C 
ATOM     20  C   UNL     1      35.681 -20.769 -19.673  0.00  0.00    -0.003 C 
ATOM     21  C   UNL     1      33.277 -20.855 -19.892  0.00  0.00    -0.003 C 
ATOM     22  C   UNL     1      35.588 -21.369 -18.418  0.00  0.00    +0.011 C 
ATOM     23  C   UNL     1      33.184 -21.455 -18.637  0.00  0.00    +0.011 C 
ATOM     24  C   UNL     1      34.340 -21.712 -17.899  0.00  0.00    +0.058 C 
ENDBRANCH  17  19
ENDBRANCH   5  17
BRANCH   5  25
ATOM     25  C   UNL     1      36.343 -18.274 -20.910  0.00  0.00    -0.086 C 
BRANCH  25  26
ATOM     26  N   UNL     1      37.422 -18.183 -21.874  0.00  0.00    +0.380 N 
ATOM     27  H   UNL     1      38.271 -18.582 -21.472  0.00  0.00    -0.089 HD
ATOM     28  H   UNL     1      37.586 -17.204 -22.111  0.00  0.00    -0.089 HD
ATOM     29  H   UNL     1      37.170 -18.699 -22.717  0.00  0.00    -0.089 HD
ENDBRANCH  25  26
ENDBRANCH   5  25
TORSDOF 4
ENDMDL
MODEL 3
REMARK VINA RESULT:      -9.7      3.634      6.371
REMARK  Name = 11696113
REMARK  4 active torsions:
REMARK  status: ('A' for Active; 'I' for Inactive)
REMARK    1  A    between atoms: C_5  and  C_17
REMARK    2  A    between atoms: C_5  and  C_25
REMARK    3  A    between atoms: C_17  and  C_19
REMARK    4  A    between atoms: C_25  and  N_26
REMARK                            x       y       z     vdW  Elec       q    Type
REMARK                         _______ _______ _______ _____ _____    ______ ____
ROOT
ATOM      1  N   UNL     1      35.354 -23.167 -14.872  0.00  0.00    -0.296 N 
ATOM      2  N   UNL     1      36.413 -22.401 -12.856  0.00  0.00    -0.233 NA
ATOM      3  N   UNL     1      38.785 -25.671 -12.909  0.00  0.00    -0.300 N 
ATOM      4  N   UNL     1      38.205 -23.633 -11.760  0.00  0.00    -0.233 NA
ATOM      5  C   UNL     1      33.320 -22.749 -16.939  0.00  0.00    -0.013 C 
ATOM      6  C   UNL     1      34.466 -21.749 -16.684  0.00  0.00    +0.020 C 
ATOM      7  C   UNL     1      33.786 -24.152 -16.499  0.00  0.00    +0.020 C 
ATOM      8  C   UNL     1      34.999 -21.793 -15.252  0.00  0.00    +0.092 C 
ATOM      9  C   UNL     1      34.323 -24.190 -15.066  0.00  0.00    +0.092 C 
ATOM     10  C   UNL     1      36.299 -23.329 -13.850  0.00  0.00    +0.116 C 
ATOM     11  C   UNL     1      37.153 -24.445 -13.811  0.00  0.00    +0.131 C 
ATOM     12  C   UNL     1      38.058 -24.521 -12.758  0.00  0.00    +0.117 C 
ATOM     13  C   UNL     1      37.357 -25.595 -14.615  0.00  0.00    +0.004 C 
ATOM     14  C   UNL     1      37.340 -22.607 -11.893  0.00  0.00    +0.252 C 
ATOM     15  C   UNL     1      38.368 -26.333 -14.036  0.00  0.00    +0.059 C 
ATOM     16  H   UNL     1      39.499 -25.975 -12.303  0.00  0.00    +0.153 HD
ENDROOT
BRANCH   5  17
ATOM     17  C   UNL     1      32.997 -22.774 -18.445  0.00  0.00    +0.024 C 
BRANCH  17  19
ATOM     18 CL   UNL     1      35.746 -18.285 -21.328  0.00  0.00    -0.082 Cl
ATOM     19  C   UNL     1      33.683 -21.653 -19.164  0.00  0.00    -0.022 C 
ATOM     20  C   UNL     1      35.073 -21.610 -19.210  0.00  0.00    -0.003 C 
ATOM     21  C   UNL     1      32.926 -20.663 -19.782  0.00  0.00    -0.003 C 
ATOM     22  C   UNL     1      35.711 -20.567 -19.879  0.00  0.00    +0.011 C 
ATOM     23  C   UNL     1      33.564 -19.620 -20.451  0.00  0.00    +0.011 C 
ATOM     24  C   UNL     1      34.958 -19.571 -20.500  0.00  0.00    +0.058 C 
ENDBRANCH  17  19
ENDBRANCH   5  17
BRANCH   5  25
ATOM     25  C   UNL     1      32.044 -22.331 -16.184  0.00  0.00    -0.086 C 
BRANCH  25  26
ATOM     26  N   UNL     1      30.917 -22.268 -17.094  0.00  0.00    +0.380 N 
ATOM     27  H   UNL     1      31.233 -22.478 -18.042  0.00  0.00    -0.089 HD
ATOM     28  H   UNL     1      30.512 -21.332 -17.070  0.00  0.00    -0.089 HD
ATOM     29  H   UNL     1      30.213 -22.950 -16.812  0.00  0.00    -0.089 HD
ENDBRANCH  25  26
ENDBRANCH   5  25
TORSDOF 4
ENDMDL
MODEL 4
REMARK VINA RESULT:      -9.5      8.413     12.279
REMARK  Name = 11696113
REMARK  4 active torsions:
REMARK  status: ('A' for Active; 'I' for Inactive)
REMARK    1  A    between atoms: C_5  and  C_17
REMARK    2  A    between atoms: C_5  and  C_25
REMARK    3  A    between atoms: C_17  and  C_19
REMARK    4  A    between atoms: C_25  and  N_26
REMARK                            x       y       z     vdW  Elec       q    Type
REMARK                         _______ _______ _______ _____ _____    ______ ____
ROOT
ATOM      1  N   UNL     1      31.731  -8.686 -21.839  0.00  0.00    -0.296 N 
ATOM      2  N   UNL     1      31.286 -10.563 -20.408  0.00  0.00    -0.233 NA
ATOM      3  N   UNL     1      32.707 -13.032 -23.272  0.00  0.00    -0.300 N 
ATOM      4  N   UNL     1      31.758 -12.860 -21.063  0.00  0.00    -0.233 NA
ATOM      5  C   UNL     1      31.621  -5.789 -22.268  0.00  0.00    -0.013 C 
ATOM      6  C   UNL     1      32.424  -6.431 -21.119  0.00  0.00    +0.020 C 
ATOM      7  C   UNL     1      31.516  -6.807 -23.421  0.00  0.00    +0.020 C 
ATOM      8  C   UNL     1      31.876  -7.791 -20.684  0.00  0.00    +0.092 C 
ATOM      9  C   UNL     1      30.971  -8.168 -22.981  0.00  0.00    +0.092 C 
ATOM     10  C   UNL     1      31.745 -10.064 -21.592  0.00  0.00    +0.116 C 
ATOM     11  C   UNL     1      32.226 -10.977 -22.548  0.00  0.00    +0.131 C 
ATOM     12  C   UNL     1      32.200 -12.326 -22.214  0.00  0.00    +0.117 C 
ATOM     13  C   UNL     1      32.771 -10.884 -23.854  0.00  0.00    +0.004 C 
ATOM     14  C   UNL     1      31.320 -11.902 -20.221  0.00  0.00    +0.252 C 
ATOM     15  C   UNL     1      33.059 -12.165 -24.275  0.00  0.00    +0.059 C 
ATOM     16  H   UNL     1      32.806 -14.011 -23.307  0.00  0.00    +0.153 HD
ENDROOT
BRANCH   5  17
ATOM     17  C   UNL     1      32.366  -4.537 -22.767  0.00  0.00    +0.024 C 
BRANCH  17  19
ATOM     18 CL   UNL     1      34.067  -5.158 -28.489  0.00  0.00    -0.082 Cl
ATOM     19  C   UNL     1      32.790  -4.692 -24.196  0.00  0.00    -0.022 C 
ATOM     20  C   UNL     1      31.932  -4.300 -25.217  0.00  0.00    -0.003 C 
ATOM     21  C   UNL     1      34.040  -5.227 -24.489  0.00  0.00    -0.003 C 
ATOM     22  C   UNL     1      32.326  -4.445 -26.547  0.00  0.00    +0.011 C 
ATOM     23  C   UNL     1      34.435  -5.372 -25.819  0.00  0.00    +0.011 C 
ATOM     24  C   UNL     1      33.578  -4.981 -26.848  0.00  0.00    +0.058 C 
ENDBRANCH  17  19
ENDBRANCH   5  17
BRANCH   5  25
ATOM     25  C   UNL     1      30.223  -5.354 -21.789  0.00  0.00    -0.086 C 
BRANCH  25  26
ATOM     26  N   UNL     1      30.332  -4.269 -20.833  0.00  0.00    +0.380 N 
ATOM     27  H   UNL     1      30.527  -4.652 -19.907  0.00  0.00    -0.089 HD
ATOM     28  H   UNL     1      29.455  -3.748 -20.808  0.00  0.00    -0.089 HD
ATOM     29  H   UNL     1      31.090  -3.646 -21.109  0.00  0.00    -0.089 HD
ENDBRANCH  25  26
ENDBRANCH   5  25
TORSDOF 4
ENDMDL
MODEL 5
REMARK VINA RESULT:      -9.4      3.927      8.441
REMARK  Name = 11696113
REMARK  4 active torsions:
REMARK  status: ('A' for Active; 'I' for Inactive)
REMARK    1  A    between atoms: C_5  and  C_17
REMARK    2  A    between atoms: C_5  and  C_25
REMARK    3  A    between atoms: C_17  and  C_19
REMARK    4  A    between atoms: C_25  and  N_26
REMARK                            x       y       z     vdW  Elec       q    Type
REMARK                         _______ _______ _______ _____ _____    ______ ____
ROOT
ATOM      1  N   UNL     1      34.348 -22.018 -17.260  0.00  0.00    -0.296 N 
ATOM      2  N   UNL     1      36.074 -20.916 -18.517  0.00  0.00    -0.233 NA
ATOM      3  N   UNL     1      33.276 -19.574 -21.104  0.00  0.00    -0.300 N 
ATOM      4  N   UNL     1      35.617 -19.623 -20.528  0.00  0.00    -0.233 NA
ATOM      5  C   UNL     1      33.607 -23.712 -14.988  0.00  0.00    -0.013 C 
ATOM      6  C   UNL     1      34.306 -22.349 -14.816  0.00  0.00    +0.020 C 
ATOM      7  C   UNL     1      32.811 -23.694 -16.309  0.00  0.00    +0.020 C 
ATOM      8  C   UNL     1      35.145 -21.943 -16.029  0.00  0.00    +0.092 C 
ATOM      9  C   UNL     1      33.654 -23.282 -17.518  0.00  0.00    +0.092 C 
ATOM     10  C   UNL     1      34.757 -21.226 -18.341  0.00  0.00    +0.116 C 
ATOM     11  C   UNL     1      33.833 -20.728 -19.277  0.00  0.00    +0.131 C 
ATOM     12  C   UNL     1      34.331 -19.952 -20.317  0.00  0.00    +0.117 C 
ATOM     13  C   UNL     1      32.429 -20.809 -19.458  0.00  0.00    +0.004 C 
ATOM     14  C   UNL     1      36.415 -20.150 -19.578  0.00  0.00    +0.252 C 
ATOM     15  C   UNL     1      32.113 -20.089 -20.590  0.00  0.00    +0.059 C 
ATOM     16  H   UNL     1      33.342 -19.016 -21.913  0.00  0.00    +0.153 HD
ENDROOT
BRANCH   5  17
ATOM     17  C   UNL     1      32.634 -23.932 -13.815  0.00  0.00    +0.024 C 
BRANCH  17  19
ATOM     18 CL   UNL     1      27.005 -22.564 -15.385  0.00  0.00    -0.082 Cl
ATOM     19  C   UNL     1      31.228 -23.590 -14.206  0.00  0.00    -0.022 C 
ATOM     20  C   UNL     1      30.857 -22.258 -14.354  0.00  0.00    -0.003 C 
ATOM     21  C   UNL     1      30.305 -24.608 -14.420  0.00  0.00    -0.003 C 
ATOM     22  C   UNL     1      29.550 -21.940 -14.717  0.00  0.00    +0.011 C 
ATOM     23  C   UNL     1      28.997 -24.291 -14.785  0.00  0.00    +0.011 C 
ATOM     24  C   UNL     1      28.618 -22.955 -14.933  0.00  0.00    +0.058 C 
ENDBRANCH  17  19
ENDBRANCH   5  17
BRANCH   5  25
ATOM     25  C   UNL     1      34.631 -24.863 -14.979  0.00  0.00    -0.086 C 
BRANCH  25  26
ATOM     26  N   UNL     1      35.307 -24.928 -13.697  0.00  0.00    +0.380 N 
ATOM     27  H   UNL     1      35.026 -25.778 -13.208  0.00  0.00    -0.089 HD
ATOM     28  H   UNL     1      35.053 -24.114 -13.137  0.00  0.00    -0.089 HD
ATOM     29  H   UNL     1      36.316 -24.938 -13.844  0.00  0.00    -0.089 HD
ENDBRANCH  25  26
ENDBRANCH   5  25
TORSDOF 4
ENDMDL
MODEL 6
REMARK VINA RESULT:      -8.9      5.056      7.543
REMARK  Name = 11696113
REMARK  4 active torsions:
REMARK  status: ('A' for Active; 'I' for Inactive)
REMARK    1  A    between atoms: C_5  and  C_17
REMARK    2  A    between atoms: C_5  and  C_25
REMARK    3  A    between atoms: C_17  and  C_19
REMARK    4  A    between atoms: C_25  and  N_26
REMARK                            x       y       z     vdW  Elec       q    Type
REMARK                         _______ _______ _______ _____ _____    ______ ____
ROOT
ATOM      1  N   UNL     1      33.797 -23.548 -13.556  0.00  0.00    -0.296 N 
ATOM      2  N   UNL     1      34.474 -23.717 -11.257  0.00  0.00    -0.233 NA
ATOM      3  N   UNL     1      38.291 -24.260 -12.463  0.00  0.00    -0.300 N 
ATOM      4  N   UNL     1      36.786 -24.087 -10.588  0.00  0.00    -0.233 NA
ATOM      5  C   UNL     1      31.637 -23.206 -15.506  0.00  0.00    -0.013 C 
ATOM      6  C   UNL     1      31.976 -22.141 -14.443  0.00  0.00    +0.020 C 
ATOM      7  C   UNL     1      32.910 -24.022 -15.807  0.00  0.00    +0.020 C 
ATOM      8  C   UNL     1      32.637 -22.724 -13.193  0.00  0.00    +0.092 C 
ATOM      9  C   UNL     1      33.571 -24.598 -14.553  0.00  0.00    +0.092 C 
ATOM     10  C   UNL     1      34.790 -23.726 -12.584  0.00  0.00    +0.116 C 
ATOM     11  C   UNL     1      36.137 -23.920 -12.938  0.00  0.00    +0.131 C 
ATOM     12  C   UNL     1      37.052 -24.088 -11.906  0.00  0.00    +0.117 C 
ATOM     13  C   UNL     1      36.866 -23.994 -14.152  0.00  0.00    +0.004 C 
ATOM     14  C   UNL     1      35.471 -23.895 -10.360  0.00  0.00    +0.252 C 
ATOM     15  C   UNL     1      38.190 -24.204 -13.830  0.00  0.00    +0.059 C 
ATOM     16  H   UNL     1      39.126 -24.400 -11.961  0.00  0.00    +0.153 HD
ENDROOT
BRANCH   5  17
ATOM     17  C   UNL     1      31.170 -22.503 -16.794  0.00  0.00    +0.024 C 
BRANCH  17  19
ATOM     18 CL   UNL     1      35.845 -20.543 -20.008  0.00  0.00    -0.082 Cl
ATOM     19  C   UNL     1      32.338 -22.013 -17.596  0.00  0.00    -0.022 C 
ATOM     20  C   UNL     1      33.632 -22.329 -17.195  0.00  0.00    -0.003 C 
ATOM     21  C   UNL     1      32.118 -21.247 -18.736  0.00  0.00    -0.003 C 
ATOM     22  C   UNL     1      34.718 -21.873 -17.941  0.00  0.00    +0.011 C 
ATOM     23  C   UNL     1      33.204 -20.791 -19.483  0.00  0.00    +0.011 C 
ATOM     24  C   UNL     1      34.505 -21.104 -19.085  0.00  0.00    +0.058 C 
ENDBRANCH  17  19
ENDBRANCH   5  17
BRANCH   5  25
ATOM     25  C   UNL     1      30.497 -24.124 -15.024  0.00  0.00    -0.086 C 
BRANCH  25  26
ATOM     26  N   UNL     1      29.324 -23.339 -14.689  0.00  0.00    +0.380 N 
ATOM     27  H   UNL     1      29.181 -23.357 -13.679  0.00  0.00    -0.089 HD
ATOM     28  H   UNL     1      28.506 -23.734 -15.155  0.00  0.00    -0.089 HD
ATOM     29  H   UNL     1      29.459 -22.376 -14.996  0.00  0.00    -0.089 HD
ENDBRANCH  25  26
ENDBRANCH   5  25
TORSDOF 4
ENDMDL
MODEL 7
REMARK VINA RESULT:      -8.7      9.094     14.536
REMARK  Name = 11696113
REMARK  4 active torsions:
REMARK  status: ('A' for Active; 'I' for Inactive)
REMARK    1  A    between atoms: C_5  and  C_17
REMARK    2  A    between atoms: C_5  and  C_25
REMARK    3  A    between atoms: C_17  and  C_19
REMARK    4  A    between atoms: C_25  and  N_26
REMARK                            x       y       z     vdW  Elec       q    Type
REMARK                         _______ _______ _______ _____ _____    ______ ____
ROOT
ATOM      1  N   UNL     1      32.005  -5.902 -23.963  0.00  0.00    -0.296 N 
ATOM      2  N   UNL     1      32.368  -3.534 -24.138  0.00  0.00    -0.233 NA
ATOM      3  N   UNL     1      33.336  -4.011 -28.030  0.00  0.00    -0.300 N 
ATOM      4  N   UNL     1      33.062  -2.457 -26.208  0.00  0.00    -0.233 NA
ATOM      5  C   UNL     1      31.298  -8.205 -22.295  0.00  0.00    -0.013 C 
ATOM      6  C   UNL     1      30.337  -7.023 -22.533  0.00  0.00    +0.020 C 
ATOM      7  C   UNL     1      32.254  -8.311 -23.500  0.00  0.00    +0.020 C 
ATOM      8  C   UNL     1      31.058  -5.714 -22.857  0.00  0.00    +0.092 C 
ATOM      9  C   UNL     1      32.970  -6.997 -23.823  0.00  0.00    +0.092 C 
ATOM     10  C   UNL     1      32.354  -4.772 -24.712  0.00  0.00    +0.116 C 
ATOM     11  C   UNL     1      32.702  -4.870 -26.071  0.00  0.00    +0.131 C 
ATOM     12  C   UNL     1      33.034  -3.694 -26.733  0.00  0.00    +0.117 C 
ATOM     13  C   UNL     1      32.811  -5.922 -27.016  0.00  0.00    +0.004 C 
ATOM     14  C   UNL     1      32.714  -2.476 -24.905  0.00  0.00    +0.252 C 
ATOM     15  C   UNL     1      33.203  -5.364 -28.215  0.00  0.00    +0.059 C 
ATOM     16  H   UNL     1      33.606  -3.367 -28.725  0.00  0.00    +0.153 HD
ENDROOT
BRANCH   5  17
ATOM     17  C   UNL     1      30.480  -9.506 -22.183  0.00  0.00    +0.024 C 
BRANCH  17  19
ATOM     18 CL   UNL     1      34.063 -14.253 -21.376  0.00  0.00    -0.082 Cl
ATOM     19  C   UNL     1      31.375 -10.691 -21.982  0.00  0.00    -0.022 C 
ATOM     20  C   UNL     1      32.296 -11.036 -22.965  0.00  0.00    -0.003 C 
ATOM     21  C   UNL     1      31.277 -11.439 -20.813  0.00  0.00    -0.003 C 
ATOM     22  C   UNL     1      33.128 -12.139 -22.778  0.00  0.00    +0.011 C 
ATOM     23  C   UNL     1      32.109 -12.542 -20.625  0.00  0.00    +0.011 C 
ATOM     24  C   UNL     1      33.035 -12.893 -21.608  0.00  0.00    +0.058 C 
ENDBRANCH  17  19
ENDBRANCH   5  17
BRANCH   5  25
ATOM     25  C   UNL     1      32.084  -8.022 -20.983  0.00  0.00    -0.086 C 
BRANCH  25  26
ATOM     26  N   UNL     1      31.173  -7.842 -19.869  0.00  0.00    +0.380 N 
ATOM     27  H   UNL     1      31.683  -7.458 -19.072  0.00  0.00    -0.089 HD
ATOM     28  H   UNL     1      30.769  -8.743 -19.611  0.00  0.00    -0.089 HD
ATOM     29  H   UNL     1      30.428  -7.200 -20.138  0.00  0.00    -0.089 HD
ENDBRANCH  25  26
ENDBRANCH   5  25
TORSDOF 4
ENDMDL
MODEL 8
REMARK VINA RESULT:      -8.6      6.236     11.021
REMARK  Name = 11696113
REMARK  4 active torsions:
REMARK  status: ('A' for Active; 'I' for Inactive)
REMARK    1  A    between atoms: C_5  and  C_17
REMARK    2  A    between atoms: C_5  and  C_25
REMARK    3  A    between atoms: C_17  and  C_19
REMARK    4  A    between atoms: C_25  and  N_26
REMARK                            x       y       z     vdW  Elec       q    Type
REMARK                         _______ _______ _______ _____ _____    ______ ____
ROOT
ATOM      1  N   UNL     1      32.083  -9.979 -22.382  0.00  0.00    -0.296 N 
ATOM      2  N   UNL     1      31.264  -8.392 -23.989  0.00  0.00    -0.233 NA
ATOM      3  N   UNL     1      30.846  -5.673 -21.032  0.00  0.00    -0.300 N 
ATOM      4  N   UNL     1      30.595  -6.131 -23.385  0.00  0.00    -0.233 NA
ATOM      5  C   UNL     1      33.061 -12.682 -21.814  0.00  0.00    -0.013 C 
ATOM      6  C   UNL     1      33.779 -11.724 -22.785  0.00  0.00    +0.020 C 
ATOM      7  C   UNL     1      32.284 -11.841 -20.780  0.00  0.00    +0.020 C 
ATOM      8  C   UNL     1      32.845 -10.690 -23.416  0.00  0.00    +0.092 C 
ATOM      9  C   UNL     1      31.354 -10.806 -21.416  0.00  0.00    +0.092 C 
ATOM     10  C   UNL     1      31.594  -8.706 -22.703  0.00  0.00    +0.116 C 
ATOM     11  C   UNL     1      31.425  -7.715 -21.720  0.00  0.00    +0.131 C 
ATOM     12  C   UNL     1      30.933  -6.482 -22.133  0.00  0.00    +0.117 C 
ATOM     13  C   UNL     1      31.638  -7.628 -20.321  0.00  0.00    +0.004 C 
ATOM     14  C   UNL     1      30.794  -7.150 -24.245  0.00  0.00    +0.252 C 
ATOM     15  C   UNL     1      31.274  -6.358 -19.923  0.00  0.00    +0.059 C 
ATOM     16  H   UNL     1      30.528  -4.740 -21.035  0.00  0.00    +0.153 HD
ENDROOT
BRANCH   5  17
ATOM     17  C   UNL     1      34.110 -13.540 -21.082  0.00  0.00    +0.024 C 
BRANCH  17  19
ATOM     18 CL   UNL     1      34.545 -18.995 -23.545  0.00  0.00    -0.082 Cl
ATOM     19  C   UNL     1      34.219 -14.902 -21.697  0.00  0.00    -0.022 C 
ATOM     20  C   UNL     1      34.202 -16.030 -20.883  0.00  0.00    -0.003 C 
ATOM     21  C   UNL     1      34.337 -15.028 -23.077  0.00  0.00    -0.003 C 
ATOM     22  C   UNL     1      34.304 -17.297 -21.455  0.00  0.00    +0.011 C 
ATOM     23  C   UNL     1      34.438 -16.295 -23.650  0.00  0.00    +0.011 C 
ATOM     24  C   UNL     1      34.422 -17.431 -22.839  0.00  0.00    +0.058 C 
ENDBRANCH  17  19
ENDBRANCH   5  17
BRANCH   5  25
ATOM     25  C   UNL     1      32.114 -13.631 -22.573  0.00  0.00    -0.086 C 
BRANCH  25  26
ATOM     26  N   UNL     1      32.170 -13.366 -23.998  0.00  0.00    +0.380 N 
ATOM     27  H   UNL     1      32.404 -12.385 -24.152  0.00  0.00    -0.089 HD
ATOM     28  H   UNL     1      31.262 -13.569 -24.417  0.00  0.00    -0.089 HD
ATOM     29  H   UNL     1      32.882 -13.956 -24.426  0.00  0.00    -0.089 HD
ENDBRANCH  25  26
ENDBRANCH   5  25
TORSDOF 4
ENDMDL
MODEL 9
REMARK VINA RESULT:      -8.4      8.823     12.677
REMARK  Name = 11696113
REMARK  4 active torsions:
REMARK  status: ('A' for Active; 'I' for Inactive)
REMARK    1  A    between atoms: C_5  and  C_17
REMARK    2  A    between atoms: C_5  and  C_25
REMARK    3  A    between atoms: C_17  and  C_19
REMARK    4  A    between atoms: C_25  and  N_26
REMARK                            x       y       z     vdW  Elec       q    Type
REMARK                         _______ _______ _______ _____ _____    ______ ____
ROOT
ATOM      1  N   UNL     1      31.856  -8.681 -22.042  0.00  0.00    -0.296 N 
ATOM      2  N   UNL     1      31.204 -10.556 -20.689  0.00  0.00    -0.233 NA
ATOM      3  N   UNL     1      32.821 -13.044 -23.430  0.00  0.00    -0.300 N 
ATOM      4  N   UNL     1      31.660 -12.861 -21.325  0.00  0.00    -0.233 NA
ATOM      5  C   UNL     1      31.889  -5.778 -22.439  0.00  0.00    -0.013 C 
ATOM      6  C   UNL     1      32.550  -6.460 -21.224  0.00  0.00    +0.020 C 
ATOM      7  C   UNL     1      31.866  -6.780 -23.611  0.00  0.00    +0.020 C 
ATOM      8  C   UNL     1      31.914  -7.804 -20.865  0.00  0.00    +0.092 C 
ATOM      9  C   UNL     1      31.233  -8.125 -23.246  0.00  0.00    +0.092 C 
ATOM     10  C   UNL     1      31.797 -10.062 -21.814  0.00  0.00    +0.116 C 
ATOM     11  C   UNL     1      32.340 -10.981 -22.729  0.00  0.00    +0.131 C 
ATOM     12  C   UNL     1      32.235 -12.331 -22.418  0.00  0.00    +0.117 C 
ATOM     13  C   UNL     1      33.017 -10.894 -23.972  0.00  0.00    +0.004 C 
ATOM     14  C   UNL     1      31.173 -11.897 -20.518  0.00  0.00    +0.252 C 
ATOM     15  C   UNL     1      33.302 -12.180 -24.380  0.00  0.00    +0.059 C 
ATOM     16  H   UNL     1      32.889 -14.026 -23.468  0.00  0.00    +0.153 HD
ENDROOT
BRANCH   5  17
ATOM     17  C   UNL     1      32.723  -4.548 -22.843  0.00  0.00    +0.024 C 
BRANCH  17  19
ATOM     18 CL   UNL     1      30.345  -1.786 -27.611  0.00  0.00    -0.082 Cl
ATOM     19  C   UNL     1      32.129  -3.858 -24.034  0.00  0.00    -0.022 C 
ATOM     20  C   UNL     1      31.183  -2.855 -23.849  0.00  0.00    -0.003 C 
ATOM     21  C   UNL     1      32.527  -4.227 -25.314  0.00  0.00    -0.003 C 
ATOM     22  C   UNL     1      30.630  -2.214 -24.957  0.00  0.00    +0.011 C 
ATOM     23  C   UNL     1      31.975  -3.585 -26.422  0.00  0.00    +0.011 C 
ATOM     24  C   UNL     1      31.025  -2.578 -26.244  0.00  0.00    +0.058 C 
ENDBRANCH  17  19
ENDBRANCH   5  17
BRANCH   5  25
ATOM     25  C   UNL     1      30.466  -5.298 -22.097  0.00  0.00    -0.086 C 
BRANCH  25  26
ATOM     26  N   UNL     1      30.470  -4.552 -20.853  0.00  0.00    +0.380 N 
ATOM     27  H   UNL     1      30.134  -3.604 -21.025  0.00  0.00    -0.089 HD
ATOM     28  H   UNL     1      31.420  -4.514 -20.482  0.00  0.00    -0.089 HD
ATOM     29  H   UNL     1      29.859  -5.012 -20.179  0.00  0.00    -0.089 HD
ENDBRANCH  25  26
ENDBRANCH   5  25
TORSDOF 4
ENDMDL
