MODEL 1
REMARK VINA RESULT:     -13.5      0.000      0.000
REMARK  Name = 5289109
REMARK  6 active torsions:
REMARK  status: ('A' for Active; 'I' for Inactive)
REMARK    1  A    between atoms: C_3  and  C_9
REMARK    2  A    between atoms: C_4  and  C_21
REMARK    3  A    between atoms: N_8  and  C_11
REMARK    4  A    between atoms: C_11  and  C_12
REMARK    5  A    between atoms: N_20  and  C_23
REMARK    6  A    between atoms: C_23  and  C_24
REMARK                            x       y       z     vdW  Elec       q    Type
REMARK                         _______ _______ _______ _____ _____    ______ ____
ROOT
ATOM      1  N   UNL     1      33.041 -17.093 -24.985  0.00  0.00    -0.244 NA
ATOM      2  N   UNL     1      33.879 -18.701 -23.399  0.00  0.00    -0.244 NA
ATOM      3  C   UNL     1      33.549 -16.116 -24.205  0.00  0.00    +0.115 C 
ATOM      4  C   UNL     1      34.345 -17.667 -22.695  0.00  0.00    +0.115 C 
ATOM      5  C   UNL     1      34.223 -16.349 -23.024  0.00  0.00    +0.100 C 
ATOM      6  C   UNL     1      33.241 -18.344 -24.528  0.00  0.00    +0.250 C 
ENDROOT
BRANCH   3   9
ATOM      7  O   UNL     1      33.171 -14.529 -25.890  0.00  0.00    -0.269 OA
ATOM      8  N   UNL     1      33.332 -13.742 -23.715  0.00  0.00    -0.296 N 
ATOM      9  C   UNL     1      33.345 -14.758 -24.680  0.00  0.00    +0.260 C 
ATOM     10  H   UNL     1      33.477 -13.991 -22.774  0.00  0.00    +0.150 HD
BRANCH   8  11
ATOM     11  C   UNL     1      33.118 -12.347 -24.026  0.00  0.00    +0.117 C 
BRANCH  11  12
ATOM     12  C   UNL     1      32.405 -11.627 -22.918  0.00  0.00    -0.003 C 
ATOM     13  C   UNL     1      32.121 -10.274 -23.049  0.00  0.00    -0.007 C 
ATOM     14  C   UNL     1      31.456  -9.606 -22.020  0.00  0.00    -0.022 C 
ATOM     15  C   UNL     1      32.037 -12.323 -21.772  0.00  0.00    -0.003 C 
ATOM     16  C   UNL     1      31.083 -10.295 -20.867  0.00  0.00    -0.004 C 
ATOM     17  C   UNL     1      31.373 -11.655 -20.743  0.00  0.00    -0.001 C 
ATOM     18  C   UNL     1      31.147  -8.152 -22.152  0.00  0.00    +0.031 C 
ENDBRANCH  11  12
ENDBRANCH   8  11
ENDBRANCH   3   9
BRANCH   4  21
ATOM     19  O   UNL     1      35.316 -17.167 -20.620  0.00  0.00    -0.269 OA
ATOM     20  N   UNL     1      35.347 -19.387 -21.290  0.00  0.00    -0.296 N 
ATOM     21  C   UNL     1      35.052 -18.040 -21.444  0.00  0.00    +0.260 C 
ATOM     22  H   UNL     1      35.095 -20.012 -22.007  0.00  0.00    +0.150 HD
BRANCH  20  23
ATOM     23  C   UNL     1      36.008 -19.908 -20.120  0.00  0.00    +0.117 C 
BRANCH  23  24
ATOM     24  C   UNL     1      35.094 -20.724 -19.269  0.00  0.00    -0.003 C 
ATOM     25  C   UNL     1      35.566 -21.289 -18.084  0.00  0.00    -0.007 C 
ATOM     26  C   UNL     1      34.711 -22.052 -17.286  0.00  0.00    -0.022 C 
ATOM     27  C   UNL     1      33.769 -20.921 -19.656  0.00  0.00    -0.003 C 
ATOM     28  C   UNL     1      33.386 -22.248 -17.675  0.00  0.00    -0.004 C 
ATOM     29  C   UNL     1      32.915 -21.683 -18.860  0.00  0.00    -0.001 C 
ATOM     30  C   UNL     1      35.214 -22.658 -16.020  0.00  0.00    +0.031 C 
ENDBRANCH  23  24
ENDBRANCH  20  23
ENDBRANCH   4  21
TORSDOF 6
ENDMDL
MODEL 2
REMARK VINA RESULT:     -13.5      0.041      9.461
REMARK  Name = 5289109
REMARK  6 active torsions:
REMARK  status: ('A' for Active; 'I' for Inactive)
REMARK    1  A    between atoms: C_3  and  C_9
REMARK    2  A    between atoms: C_4  and  C_21
REMARK    3  A    between atoms: N_8  and  C_11
REMARK    4  A    between atoms: C_11  and  C_12
REMARK    5  A    between atoms: N_20  and  C_23
REMARK    6  A    between atoms: C_23  and  C_24
REMARK                            x       y       z     vdW  Elec       q    Type
REMARK                         _______ _______ _______ _____ _____    ______ ____
ROOT
ATOM      1  N   UNL     1      33.900 -18.674 -23.451  0.00  0.00    -0.244 NA
ATOM      2  N   UNL     1      33.062 -17.058 -25.029  0.00  0.00    -0.244 NA
ATOM      3  C   UNL     1      34.356 -17.648 -22.701  0.00  0.00    +0.115 C 
ATOM      4  C   UNL     1      33.548 -16.114 -24.222  0.00  0.00    +0.115 C 
ATOM      5  C   UNL     1      34.206 -16.320 -23.045  0.00  0.00    +0.100 C 
ATOM      6  C   UNL     1      33.271 -18.311 -24.585  0.00  0.00    +0.250 C 
ENDROOT
BRANCH   3   9
ATOM      7  O   UNL     1      35.291 -17.160 -20.607  0.00  0.00    -0.269 OA
ATOM      8  N   UNL     1      35.367 -19.369 -21.308  0.00  0.00    -0.296 N 
ATOM      9  C   UNL     1      35.038 -18.017 -21.472  0.00  0.00    +0.260 C 
ATOM     10  H   UNL     1      35.139 -19.995 -22.032  0.00  0.00    +0.150 HD
BRANCH   8  11
ATOM     11  C   UNL     1      36.024 -19.895 -20.133  0.00  0.00    +0.117 C 
BRANCH  11  12
ATOM     12  C   UNL     1      35.093 -20.716 -19.289  0.00  0.00    -0.003 C 
ATOM     13  C   UNL     1      35.554 -21.278 -18.105  0.00  0.00    -0.007 C 
ATOM     14  C   UNL     1      34.689 -22.039 -17.320  0.00  0.00    -0.022 C 
ATOM     15  C   UNL     1      33.779 -20.906 -19.701  0.00  0.00    -0.003 C 
ATOM     16  C   UNL     1      33.369 -22.235 -17.725  0.00  0.00    -0.004 C 
ATOM     17  C   UNL     1      32.914 -21.668 -18.916  0.00  0.00    -0.001 C 
ATOM     18  C   UNL     1      35.175 -22.647 -16.047  0.00  0.00    +0.031 C 
ENDBRANCH  11  12
ENDBRANCH   8  11
ENDBRANCH   3   9
BRANCH   4  21
ATOM     19  O   UNL     1      33.146 -14.518 -25.892  0.00  0.00    -0.269 OA
ATOM     20  N   UNL     1      33.321 -13.741 -23.714  0.00  0.00    -0.296 N 
ATOM     21  C   UNL     1      33.327 -14.723 -24.694  0.00  0.00    +0.260 C 
ATOM     22  H   UNL     1      33.476 -14.006 -22.778  0.00  0.00    +0.150 HD
BRANCH  20  23
ATOM     23  C   UNL     1      33.095 -12.349 -24.011  0.00  0.00    +0.117 C 
BRANCH  23  24
ATOM     24  C   UNL     1      32.400 -11.638 -22.899  0.00  0.00    -0.003 C 
ATOM     25  C   UNL     1      32.111 -10.278 -23.016  0.00  0.00    -0.007 C 
ATOM     26  C   UNL     1      31.461  -9.611 -21.976  0.00  0.00    -0.022 C 
ATOM     27  C   UNL     1      32.040 -12.331 -21.744  0.00  0.00    -0.003 C 
ATOM     28  C   UNL     1      31.101 -10.306 -20.821  0.00  0.00    -0.004 C 
ATOM     29  C   UNL     1      31.390 -11.665 -20.705  0.00  0.00    -0.001 C 
ATOM     30  C   UNL     1      31.152  -8.158 -22.099  0.00  0.00    +0.031 C 
ENDBRANCH  23  24
ENDBRANCH  20  23
ENDBRANCH   4  21
TORSDOF 6
ENDMDL
MODEL 3
REMARK VINA RESULT:     -13.1      2.057      3.489
REMARK  Name = 5289109
REMARK  6 active torsions:
REMARK  status: ('A' for Active; 'I' for Inactive)
REMARK    1  A    between atoms: C_3  and  C_9
REMARK    2  A    between atoms: C_4  and  C_21
REMARK    3  A    between atoms: N_8  and  C_11
REMARK    4  A    between atoms: C_11  and  C_12
REMARK    5  A    between atoms: N_20  and  C_23
REMARK    6  A    between atoms: C_23  and  C_24
REMARK                            x       y       z     vdW  Elec       q    Type
REMARK                         _______ _______ _______ _____ _____    ______ ____
ROOT
ATOM      1  N   UNL     1      32.463 -13.070 -23.405  0.00  0.00    -0.244 NA
ATOM      2  N   UNL     1      33.823 -15.055 -23.530  0.00  0.00    -0.244 NA
ATOM      3  C   UNL     1      32.578 -13.122 -22.061  0.00  0.00    +0.115 C 
ATOM      4  C   UNL     1      33.878 -15.022 -22.197  0.00  0.00    +0.115 C 
ATOM      5  C   UNL     1      33.287 -14.096 -21.389  0.00  0.00    +0.100 C 
ATOM      6  C   UNL     1      33.103 -14.054 -24.067  0.00  0.00    +0.250 C 
ENDROOT
BRANCH   3   9
ATOM      7  O   UNL     1      31.866 -12.082 -20.084  0.00  0.00    -0.269 OA
ATOM      8  N   UNL     1      31.307 -11.047 -22.082  0.00  0.00    -0.296 N 
ATOM      9  C   UNL     1      31.896 -12.069 -21.327  0.00  0.00    +0.260 C 
ATOM     10  H   UNL     1      31.367 -11.098 -23.063  0.00  0.00    +0.150 HD
BRANCH   8  11
ATOM     11  C   UNL     1      30.614  -9.920 -21.498  0.00  0.00    +0.117 C 
BRANCH  11  12
ATOM     12  C   UNL     1      31.473  -8.689 -21.465  0.00  0.00    -0.003 C 
ATOM     13  C   UNL     1      32.227  -8.347 -22.580  0.00  0.00    -0.007 C 
ATOM     14  C   UNL     1      33.023  -7.201 -22.549  0.00  0.00    -0.022 C 
ATOM     15  C   UNL     1      31.504  -7.904 -20.317  0.00  0.00    -0.003 C 
ATOM     16  C   UNL     1      33.060  -6.408 -21.402  0.00  0.00    -0.004 C 
ATOM     17  C   UNL     1      32.300  -6.759 -20.287  0.00  0.00    -0.001 C 
ATOM     18  C   UNL     1      33.837  -6.826 -23.741  0.00  0.00    +0.031 C 
ENDBRANCH  11  12
ENDBRANCH   8  11
ENDBRANCH   3   9
BRANCH   4  21
ATOM     19  O   UNL     1      34.725 -16.208 -20.359  0.00  0.00    -0.269 OA
ATOM     20  N   UNL     1      35.279 -16.998 -22.468  0.00  0.00    -0.296 N 
ATOM     21  C   UNL     1      34.669 -16.120 -21.583  0.00  0.00    +0.260 C 
ATOM     22  H   UNL     1      35.175 -16.843 -23.435  0.00  0.00    +0.150 HD
BRANCH  20  23
ATOM     23  C   UNL     1      36.059 -18.127 -22.027  0.00  0.00    +0.117 C 
BRANCH  23  24
ATOM     24  C   UNL     1      35.271 -19.059 -21.169  0.00  0.00    -0.003 C 
ATOM     25  C   UNL     1      35.900 -19.759 -20.140  0.00  0.00    -0.007 C 
ATOM     26  C   UNL     1      35.164 -20.631 -19.337  0.00  0.00    -0.022 C 
ATOM     27  C   UNL     1      33.905 -19.230 -21.395  0.00  0.00    -0.003 C 
ATOM     28  C   UNL     1      33.798 -20.801 -19.564  0.00  0.00    -0.004 C 
ATOM     29  C   UNL     1      33.169 -20.101 -20.593  0.00  0.00    -0.001 C 
ATOM     30  C   UNL     1      35.836 -21.380 -18.237  0.00  0.00    +0.031 C 
ENDBRANCH  23  24
ENDBRANCH  20  23
ENDBRANCH   4  21
TORSDOF 6
ENDMDL
MODEL 4
REMARK VINA RESULT:     -13.0      1.992     10.023
REMARK  Name = 5289109
REMARK  6 active torsions:
REMARK  status: ('A' for Active; 'I' for Inactive)
REMARK    1  A    between atoms: C_3  and  C_9
REMARK    2  A    between atoms: C_4  and  C_21
REMARK    3  A    between atoms: N_8  and  C_11
REMARK    4  A    between atoms: C_11  and  C_12
REMARK    5  A    between atoms: N_20  and  C_23
REMARK    6  A    between atoms: C_23  and  C_24
REMARK                            x       y       z     vdW  Elec       q    Type
REMARK                         _______ _______ _______ _____ _____    ______ ____
ROOT
ATOM      1  N   UNL     1      34.086 -15.076 -23.495  0.00  0.00    -0.244 NA
ATOM      2  N   UNL     1      32.684 -13.123 -23.342  0.00  0.00    -0.244 NA
ATOM      3  C   UNL     1      34.039 -15.170 -22.149  0.00  0.00    +0.115 C 
ATOM      4  C   UNL     1      32.697 -13.297 -22.019  0.00  0.00    +0.115 C 
ATOM      5  C   UNL     1      33.346 -14.289 -21.343  0.00  0.00    +0.100 C 
ATOM      6  C   UNL     1      33.396 -14.045 -24.017  0.00  0.00    +0.250 C 
ENDROOT
BRANCH   3   9
ATOM      7  O   UNL     1      34.870 -16.393 -20.330  0.00  0.00    -0.269 OA
ATOM      8  N   UNL     1      35.346 -17.199 -22.452  0.00  0.00    -0.296 N 
ATOM      9  C   UNL     1      34.777 -16.276 -21.565  0.00  0.00    +0.260 C 
ATOM     10  H   UNL     1      35.235 -17.047 -23.418  0.00  0.00    +0.150 HD
BRANCH   8  11
ATOM     11  C   UNL     1      36.088 -18.364 -22.025  0.00  0.00    +0.117 C 
BRANCH  11  12
ATOM     12  C   UNL     1      35.275 -19.251 -21.128  0.00  0.00    -0.003 C 
ATOM     13  C   UNL     1      35.891 -19.910 -20.071  0.00  0.00    -0.007 C 
ATOM     14  C   UNL     1      35.135 -20.732 -19.235  0.00  0.00    -0.022 C 
ATOM     15  C   UNL     1      33.913 -19.404 -21.363  0.00  0.00    -0.003 C 
ATOM     16  C   UNL     1      33.768 -20.892 -19.464  0.00  0.00    -0.004 C 
ATOM     17  C   UNL     1      33.158 -20.227 -20.528  0.00  0.00    -0.001 C 
ATOM     18  C   UNL     1      35.788 -21.444 -18.099  0.00  0.00    +0.031 C 
ENDBRANCH  11  12
ENDBRANCH   8  11
ENDBRANCH   3   9
BRANCH   4  21
ATOM     19  O   UNL     1      31.982 -12.286 -20.028  0.00  0.00    -0.269 OA
ATOM     20  N   UNL     1      31.178 -11.392 -22.011  0.00  0.00    -0.296 N 
ATOM     21  C   UNL     1      31.919 -12.290 -21.255  0.00  0.00    +0.260 C 
ATOM     22  H   UNL     1      31.191 -11.476 -22.992  0.00  0.00    +0.150 HD
BRANCH  20  23
ATOM     23  C   UNL     1      30.391 -10.341 -21.417  0.00  0.00    +0.117 C 
BRANCH  23  24
ATOM     24  C   UNL     1      31.180  -9.092 -21.208  0.00  0.00    -0.003 C 
ATOM     25  C   UNL     1      31.892  -8.532 -22.268  0.00  0.00    -0.007 C 
ATOM     26  C   UNL     1      32.629  -7.363 -22.074  0.00  0.00    -0.022 C 
ATOM     27  C   UNL     1      31.204  -8.483 -19.953  0.00  0.00    -0.003 C 
ATOM     28  C   UNL     1      32.652  -6.755 -20.818  0.00  0.00    -0.004 C 
ATOM     29  C   UNL     1      31.940  -7.315 -19.758  0.00  0.00    -0.001 C 
ATOM     30  C   UNL     1      33.392  -6.764 -23.207  0.00  0.00    +0.031 C 
ENDBRANCH  23  24
ENDBRANCH  20  23
ENDBRANCH   4  21
TORSDOF 6
ENDMDL
MODEL 5
REMARK VINA RESULT:     -12.7      2.143      9.793
REMARK  Name = 5289109
REMARK  6 active torsions:
REMARK  status: ('A' for Active; 'I' for Inactive)
REMARK    1  A    between atoms: C_3  and  C_9
REMARK    2  A    between atoms: C_4  and  C_21
REMARK    3  A    between atoms: N_8  and  C_11
REMARK    4  A    between atoms: C_11  and  C_12
REMARK    5  A    between atoms: N_20  and  C_23
REMARK    6  A    between atoms: C_23  and  C_24
REMARK                            x       y       z     vdW  Elec       q    Type
REMARK                         _______ _______ _______ _____ _____    ______ ____
ROOT
ATOM      1  N   UNL     1      35.581 -19.886 -19.861  0.00  0.00    -0.244 NA
ATOM      2  N   UNL     1      36.158 -18.013 -21.263  0.00  0.00    -0.244 NA
ATOM      3  C   UNL     1      34.316 -19.794 -20.324  0.00  0.00    +0.115 C 
ATOM      4  C   UNL     1      34.884 -18.001 -21.660  0.00  0.00    +0.115 C 
ATOM      5  C   UNL     1      33.902 -18.850 -21.243  0.00  0.00    +0.100 C 
ATOM      6  C   UNL     1      36.437 -18.978 -20.367  0.00  0.00    +0.250 C 
ENDROOT
BRANCH   3   9
ATOM      7  O   UNL     1      32.150 -20.598 -19.925  0.00  0.00    -0.269 OA
ATOM      8  N   UNL     1      33.915 -21.889 -19.153  0.00  0.00    -0.296 N 
ATOM      9  C   UNL     1      33.375 -20.765 -19.792  0.00  0.00    +0.260 C 
ATOM     10  H   UNL     1      34.894 -21.959 -19.081  0.00  0.00    +0.150 HD
BRANCH   8  11
ATOM     11  C   UNL     1      33.111 -22.953 -18.594  0.00  0.00    +0.117 C 
BRANCH  11  12
ATOM     12  C   UNL     1      32.958 -22.819 -17.107  0.00  0.00    -0.003 C 
ATOM     13  C   UNL     1      31.687 -22.759 -16.550  0.00  0.00    -0.007 C 
ATOM     14  C   UNL     1      31.544 -22.637 -15.167  0.00  0.00    -0.022 C 
ATOM     15  C   UNL     1      34.090 -22.757 -16.302  0.00  0.00    -0.003 C 
ATOM     16  C   UNL     1      32.675 -22.574 -14.352  0.00  0.00    -0.004 C 
ATOM     17  C   UNL     1      33.948 -22.634 -14.920  0.00  0.00    -0.001 C 
ATOM     18  C   UNL     1      30.183 -22.571 -14.560  0.00  0.00    +0.031 C 
ENDBRANCH  11  12
ENDBRANCH   8  11
ENDBRANCH   3   9
BRANCH   4  21
ATOM     19  O   UNL     1      34.301 -17.263 -23.808  0.00  0.00    -0.269 OA
ATOM     20  N   UNL     1      34.537 -15.643 -22.165  0.00  0.00    -0.296 N 
ATOM     21  C   UNL     1      34.555 -16.944 -22.649  0.00  0.00    +0.260 C 
ATOM     22  H   UNL     1      34.756 -15.487 -21.218  0.00  0.00    +0.150 HD
BRANCH  20  23
ATOM     23  C   UNL     1      34.212 -14.511 -22.996  0.00  0.00    +0.117 C 
BRANCH  23  24
ATOM     24  C   UNL     1      33.318 -13.538 -22.303  0.00  0.00    -0.003 C 
ATOM     25  C   UNL     1      33.019 -12.316 -22.904  0.00  0.00    -0.007 C 
ATOM     26  C   UNL     1      32.182 -11.405 -22.256  0.00  0.00    -0.022 C 
ATOM     27  C   UNL     1      32.780 -13.851 -21.055  0.00  0.00    -0.003 C 
ATOM     28  C   UNL     1      31.645 -11.720 -21.009  0.00  0.00    -0.004 C 
ATOM     29  C   UNL     1      31.943 -12.942 -20.407  0.00  0.00    -0.001 C 
ATOM     30  C   UNL     1      31.863 -10.098 -22.898  0.00  0.00    +0.031 C 
ENDBRANCH  23  24
ENDBRANCH  20  23
ENDBRANCH   4  21
TORSDOF 6
ENDMDL
MODEL 6
REMARK VINA RESULT:     -12.7      2.142      3.523
REMARK  Name = 5289109
REMARK  6 active torsions:
REMARK  status: ('A' for Active; 'I' for Inactive)
REMARK    1  A    between atoms: C_3  and  C_9
REMARK    2  A    between atoms: C_4  and  C_21
REMARK    3  A    between atoms: N_8  and  C_11
REMARK    4  A    between atoms: C_11  and  C_12
REMARK    5  A    between atoms: N_20  and  C_23
REMARK    6  A    between atoms: C_23  and  C_24
REMARK                            x       y       z     vdW  Elec       q    Type
REMARK                         _______ _______ _______ _____ _____    ______ ____
ROOT
ATOM      1  N   UNL     1      36.157 -18.008 -21.270  0.00  0.00    -0.244 NA
ATOM      2  N   UNL     1      35.549 -19.890 -19.894  0.00  0.00    -0.244 NA
ATOM      3  C   UNL     1      34.877 -17.953 -21.694  0.00  0.00    +0.115 C 
ATOM      4  C   UNL     1      34.310 -19.755 -20.371  0.00  0.00    +0.115 C 
ATOM      5  C   UNL     1      33.890 -18.820 -21.270  0.00  0.00    +0.100 C 
ATOM      6  C   UNL     1      36.419 -18.987 -20.383  0.00  0.00    +0.250 C 
ENDROOT
BRANCH   3   9
ATOM      7  O   UNL     1      34.360 -17.180 -23.847  0.00  0.00    -0.269 OA
ATOM      8  N   UNL     1      34.511 -15.593 -22.163  0.00  0.00    -0.296 N 
ATOM      9  C   UNL     1      34.573 -16.904 -22.653  0.00  0.00    +0.260 C 
ATOM     10  H   UNL     1      34.691 -15.444 -21.207  0.00  0.00    +0.150 HD
BRANCH   8  11
ATOM     11  C   UNL     1      34.196 -14.447 -22.984  0.00  0.00    +0.117 C 
BRANCH  11  12
ATOM     12  C   UNL     1      33.291 -13.480 -22.278  0.00  0.00    -0.003 C 
ATOM     13  C   UNL     1      32.980 -12.266 -22.877  0.00  0.00    -0.007 C 
ATOM     14  C   UNL     1      32.136 -11.368 -22.221  0.00  0.00    -0.022 C 
ATOM     15  C   UNL     1      32.773 -13.809 -21.030  0.00  0.00    -0.003 C 
ATOM     16  C   UNL     1      31.613 -11.691 -20.969  0.00  0.00    -0.004 C 
ATOM     17  C   UNL     1      31.930 -12.912 -20.374  0.00  0.00    -0.001 C 
ATOM     18  C   UNL     1      31.798 -10.062 -22.857  0.00  0.00    +0.031 C 
ENDBRANCH  11  12
ENDBRANCH   8  11
ENDBRANCH   3   9
BRANCH   4  21
ATOM     19  O   UNL     1      32.138 -20.586 -20.073  0.00  0.00    -0.269 OA
ATOM     20  N   UNL     1      33.870 -21.808 -19.134  0.00  0.00    -0.296 N 
ATOM     21  C   UNL     1      33.334 -20.743 -19.844  0.00  0.00    +0.260 C 
ATOM     22  H   UNL     1      34.845 -21.846 -19.002  0.00  0.00    +0.150 HD
BRANCH  20  23
ATOM     23  C   UNL     1      33.055 -22.861 -18.582  0.00  0.00    +0.117 C 
BRANCH  23  24
ATOM     24  C   UNL     1      32.939 -22.768 -17.098  0.00  0.00    -0.003 C 
ATOM     25  C   UNL     1      31.681 -22.750 -16.497  0.00  0.00    -0.007 C 
ATOM     26  C   UNL     1      31.571 -22.663 -15.108  0.00  0.00    -0.022 C 
ATOM     27  C   UNL     1      34.089 -22.700 -16.310  0.00  0.00    -0.003 C 
ATOM     28  C   UNL     1      32.721 -22.596 -14.322  0.00  0.00    -0.004 C 
ATOM     29  C   UNL     1      33.980 -22.614 -14.922  0.00  0.00    -0.001 C 
ATOM     30  C   UNL     1      30.226 -22.643 -14.465  0.00  0.00    +0.031 C 
ENDBRANCH  23  24
ENDBRANCH  20  23
ENDBRANCH   4  21
TORSDOF 6
ENDMDL
MODEL 7
REMARK VINA RESULT:     -12.6      2.051      3.329
REMARK  Name = 5289109
REMARK  6 active torsions:
REMARK  status: ('A' for Active; 'I' for Inactive)
REMARK    1  A    between atoms: C_3  and  C_9
REMARK    2  A    between atoms: C_4  and  C_21
REMARK    3  A    between atoms: N_8  and  C_11
REMARK    4  A    between atoms: C_11  and  C_12
REMARK    5  A    between atoms: N_20  and  C_23
REMARK    6  A    between atoms: C_23  and  C_24
REMARK                            x       y       z     vdW  Elec       q    Type
REMARK                         _______ _______ _______ _____ _____    ______ ____
ROOT
ATOM      1  N   UNL     1      33.427 -12.805 -21.119  0.00  0.00    -0.244 NA
ATOM      2  N   UNL     1      34.155 -15.051 -20.641  0.00  0.00    -0.244 NA
ATOM      3  C   UNL     1      33.434 -13.122 -22.431  0.00  0.00    +0.115 C 
ATOM      4  C   UNL     1      34.132 -15.269 -21.958  0.00  0.00    +0.115 C 
ATOM      5  C   UNL     1      33.786 -14.365 -22.918  0.00  0.00    +0.100 C 
ATOM      6  C   UNL     1      33.792 -13.803 -20.292  0.00  0.00    +0.250 C 
ENDROOT
BRANCH   3   9
ATOM      7  O   UNL     1      33.095 -12.229 -24.573  0.00  0.00    -0.269 OA
ATOM      8  N   UNL     1      32.591 -10.864 -22.767  0.00  0.00    -0.296 N 
ATOM      9  C   UNL     1      33.043 -12.059 -23.341  0.00  0.00    +0.260 C 
ATOM     10  H   UNL     1      32.576 -10.795 -21.785  0.00  0.00    +0.150 HD
BRANCH   8  11
ATOM     11  C   UNL     1      32.146  -9.725 -23.538  0.00  0.00    +0.117 C 
BRANCH  11  12
ATOM     12  C   UNL     1      32.527  -8.425 -22.891  0.00  0.00    -0.003 C 
ATOM     13  C   UNL     1      31.891  -8.026 -21.723  0.00  0.00    -0.007 C 
ATOM     14  C   UNL     1      32.247  -6.819 -21.120  0.00  0.00    -0.022 C 
ATOM     15  C   UNL     1      33.514  -7.634 -23.468  0.00  0.00    -0.003 C 
ATOM     16  C   UNL     1      33.236  -6.019 -21.693  0.00  0.00    -0.004 C 
ATOM     17  C   UNL     1      33.870  -6.427 -22.867  0.00  0.00    -0.001 C 
ATOM     18  C   UNL     1      31.568  -6.381 -19.866  0.00  0.00    +0.031 C 
ENDBRANCH  11  12
ENDBRANCH   8  11
ENDBRANCH   3   9
BRANCH   4  21
ATOM     19  O   UNL     1      34.519 -16.941 -23.555  0.00  0.00    -0.269 OA
ATOM     20  N   UNL     1      34.915 -17.492 -21.337  0.00  0.00    -0.296 N 
ATOM     21  C   UNL     1      34.529 -16.641 -22.364  0.00  0.00    +0.260 C 
ATOM     22  H   UNL     1      34.889 -17.158 -20.411  0.00  0.00    +0.150 HD
BRANCH  20  23
ATOM     23  C   UNL     1      35.351 -18.845 -21.574  0.00  0.00    +0.117 C 
BRANCH  23  24
ATOM     24  C   UNL     1      34.878 -19.785 -20.517  0.00  0.00    -0.003 C 
ATOM     25  C   UNL     1      35.777 -20.280 -19.572  0.00  0.00    -0.007 C 
ATOM     26  C   UNL     1      35.336 -21.160 -18.582  0.00  0.00    -0.022 C 
ATOM     27  C   UNL     1      33.539 -20.170 -20.472  0.00  0.00    -0.003 C 
ATOM     28  C   UNL     1      33.996 -21.543 -18.539  0.00  0.00    -0.004 C 
ATOM     29  C   UNL     1      33.097 -21.048 -19.483  0.00  0.00    -0.001 C 
ATOM     30  C   UNL     1      36.297 -21.690 -17.573  0.00  0.00    +0.031 C 
ENDBRANCH  23  24
ENDBRANCH  20  23
ENDBRANCH   4  21
TORSDOF 6
ENDMDL
MODEL 8
REMARK VINA RESULT:     -12.6      2.045     10.481
REMARK  Name = 5289109
REMARK  6 active torsions:
REMARK  status: ('A' for Active; 'I' for Inactive)
REMARK    1  A    between atoms: C_3  and  C_9
REMARK    2  A    between atoms: C_4  and  C_21
REMARK    3  A    between atoms: N_8  and  C_11
REMARK    4  A    between atoms: C_11  and  C_12
REMARK    5  A    between atoms: N_20  and  C_23
REMARK    6  A    between atoms: C_23  and  C_24
REMARK                            x       y       z     vdW  Elec       q    Type
REMARK                         _______ _______ _______ _____ _____    ______ ____
ROOT
ATOM      1  N   UNL     1      34.130 -14.993 -20.684  0.00  0.00    -0.244 NA
ATOM      2  N   UNL     1      33.386 -12.756 -21.182  0.00  0.00    -0.244 NA
ATOM      3  C   UNL     1      34.132 -15.247 -22.010  0.00  0.00    +0.115 C 
ATOM      4  C   UNL     1      33.418 -13.102 -22.471  0.00  0.00    +0.115 C 
ATOM      5  C   UNL     1      33.777 -14.320 -22.969  0.00  0.00    +0.100 C 
ATOM      6  C   UNL     1      33.753 -13.745 -20.346  0.00  0.00    +0.250 C 
ENDROOT
BRANCH   3   9
ATOM      7  O   UNL     1      34.543 -16.926 -23.594  0.00  0.00    -0.269 OA
ATOM      8  N   UNL     1      34.934 -17.454 -21.370  0.00  0.00    -0.296 N 
ATOM      9  C   UNL     1      34.537 -16.588 -22.397  0.00  0.00    +0.260 C 
ATOM     10  H   UNL     1      34.904 -17.122 -20.443  0.00  0.00    +0.150 HD
BRANCH   8  11
ATOM     11  C   UNL     1      35.385 -18.808 -21.596  0.00  0.00    +0.117 C 
BRANCH  11  12
ATOM     12  C   UNL     1      34.877 -19.752 -20.545  0.00  0.00    -0.003 C 
ATOM     13  C   UNL     1      35.757 -20.270 -19.603  0.00  0.00    -0.007 C 
ATOM     14  C   UNL     1      35.284 -21.146 -18.626  0.00  0.00    -0.022 C 
ATOM     15  C   UNL     1      33.530 -20.098 -20.525  0.00  0.00    -0.003 C 
ATOM     16  C   UNL     1      33.935 -21.499 -18.598  0.00  0.00    -0.004 C 
ATOM     17  C   UNL     1      33.058 -20.974 -19.548  0.00  0.00    -0.001 C 
ATOM     18  C   UNL     1      36.222 -21.708 -17.611  0.00  0.00    +0.031 C 
ENDBRANCH  11  12
ENDBRANCH   8  11
ENDBRANCH   3   9
BRANCH   4  21
ATOM     19  O   UNL     1      33.019 -12.249 -24.618  0.00  0.00    -0.269 OA
ATOM     20  N   UNL     1      32.635 -10.823 -22.830  0.00  0.00    -0.296 N 
ATOM     21  C   UNL     1      33.016 -12.025 -23.410  0.00  0.00    +0.260 C 
ATOM     22  H   UNL     1      32.667 -10.739 -21.850  0.00  0.00    +0.150 HD
BRANCH  20  23
ATOM     23  C   UNL     1      32.195  -9.691 -23.607  0.00  0.00    +0.117 C 
BRANCH  23  24
ATOM     24  C   UNL     1      32.549  -8.392 -22.966  0.00  0.00    -0.003 C 
ATOM     25  C   UNL     1      31.907  -7.996 -21.793  0.00  0.00    -0.007 C 
ATOM     26  C   UNL     1      32.238  -6.780 -21.193  0.00  0.00    -0.022 C 
ATOM     27  C   UNL     1      33.522  -7.573 -23.539  0.00  0.00    -0.003 C 
ATOM     28  C   UNL     1      33.211  -5.962 -21.766  0.00  0.00    -0.004 C 
ATOM     29  C   UNL     1      33.854  -6.358 -22.939  0.00  0.00    -0.001 C 
ATOM     30  C   UNL     1      31.551  -6.356 -19.939  0.00  0.00    +0.031 C 
ENDBRANCH  23  24
ENDBRANCH  20  23
ENDBRANCH   4  21
TORSDOF 6
ENDMDL
MODEL 9
REMARK VINA RESULT:     -12.5      1.894      9.956
REMARK  Name = 5289109
REMARK  6 active torsions:
REMARK  status: ('A' for Active; 'I' for Inactive)
REMARK    1  A    between atoms: C_3  and  C_9
REMARK    2  A    between atoms: C_4  and  C_21
REMARK    3  A    between atoms: N_8  and  C_11
REMARK    4  A    between atoms: C_11  and  C_12
REMARK    5  A    between atoms: N_20  and  C_23
REMARK    6  A    between atoms: C_23  and  C_24
REMARK                            x       y       z     vdW  Elec       q    Type
REMARK                         _______ _______ _______ _____ _____    ______ ____
ROOT
ATOM      1  N   UNL     1      35.558 -19.815 -20.042  0.00  0.00    -0.244 NA
ATOM      2  N   UNL     1      36.137 -17.997 -21.514  0.00  0.00    -0.244 NA
ATOM      3  C   UNL     1      34.268 -19.646 -20.401  0.00  0.00    +0.115 C 
ATOM      4  C   UNL     1      34.837 -17.907 -21.806  0.00  0.00    +0.115 C 
ATOM      5  C   UNL     1      33.841 -18.686 -21.297  0.00  0.00    +0.100 C 
ATOM      6  C   UNL     1      36.426 -18.969 -20.629  0.00  0.00    +0.250 C 
ENDROOT
BRANCH   3   9
ATOM      7  O   UNL     1      32.116 -20.531 -20.112  0.00  0.00    -0.269 OA
ATOM      8  N   UNL     1      33.814 -21.438 -18.819  0.00  0.00    -0.296 N 
ATOM      9  C   UNL     1      33.315 -20.548 -19.779  0.00  0.00    +0.260 C 
ATOM     10  H   UNL     1      34.773 -21.399 -18.601  0.00  0.00    +0.150 HD
BRANCH   8  11
ATOM     11  C   UNL     1      32.997 -22.412 -18.130  0.00  0.00    +0.117 C 
BRANCH  11  12
ATOM     12  C   UNL     1      33.474 -22.654 -16.728  0.00  0.00    -0.003 C 
ATOM     13  C   UNL     1      34.810 -22.443 -16.410  0.00  0.00    -0.007 C 
ATOM     14  C   UNL     1      35.253 -22.666 -15.106  0.00  0.00    -0.022 C 
ATOM     15  C   UNL     1      32.574 -23.087 -15.760  0.00  0.00    -0.003 C 
ATOM     16  C   UNL     1      34.356 -23.101 -14.130  0.00  0.00    -0.004 C 
ATOM     17  C   UNL     1      33.017 -23.310 -14.457  0.00  0.00    -0.001 C 
ATOM     18  C   UNL     1      36.686 -22.443 -14.756  0.00  0.00    +0.031 C 
ENDBRANCH  11  12
ENDBRANCH   8  11
ENDBRANCH   3   9
BRANCH   4  21
ATOM     19  O   UNL     1      34.201 -17.150 -23.932  0.00  0.00    -0.269 OA
ATOM     20  N   UNL     1      34.516 -15.541 -22.292  0.00  0.00    -0.296 N 
ATOM     21  C   UNL     1      34.496 -16.840 -22.780  0.00  0.00    +0.260 C 
ATOM     22  H   UNL     1      34.766 -15.393 -21.351  0.00  0.00    +0.150 HD
BRANCH  20  23
ATOM     23  C   UNL     1      34.184 -14.400 -23.107  0.00  0.00    +0.117 C 
BRANCH  23  24
ATOM     24  C   UNL     1      33.290 -13.438 -22.400  0.00  0.00    -0.003 C 
ATOM     25  C   UNL     1      33.001 -12.202 -22.977  0.00  0.00    -0.007 C 
ATOM     26  C   UNL     1      32.163 -11.301 -22.316  0.00  0.00    -0.022 C 
ATOM     27  C   UNL     1      32.742 -13.774 -21.162  0.00  0.00    -0.003 C 
ATOM     28  C   UNL     1      31.617 -11.639 -21.078  0.00  0.00    -0.004 C 
ATOM     29  C   UNL     1      31.906 -12.875 -20.501  0.00  0.00    -0.001 C 
ATOM     30  C   UNL     1      31.855  -9.979 -22.932  0.00  0.00    +0.031 C 
ENDBRANCH  23  24
ENDBRANCH  20  23
ENDBRANCH   4  21
TORSDOF 6
ENDMDL
