MODEL 1
REMARK VINA RESULT:     -14.1      0.000      0.000
REMARK  Name = 24780387
REMARK  3 active torsions:
REMARK  status: ('A' for Active; 'I' for Inactive)
REMARK    1  A    between atoms: N_3  and  C_25
REMARK    2  A    between atoms: C_18  and  O_23
REMARK    3  A    between atoms: C_25  and  N_26
REMARK                            x       y       z     vdW  Elec       q    Type
REMARK                         _______ _______ _______ _____ _____    ______ ____
ROOT
ATOM      1  O   UNL     1      32.136 -24.513 -12.549  0.00  0.00    -0.270 OA
ATOM      2  O   UNL     1      35.614 -22.999 -15.187  0.00  0.00    -0.270 OA
ATOM      3  N   UNL     1      34.147 -23.884 -13.592  0.00  0.00    -0.244 N 
ATOM      4  N   UNL     1      31.623 -21.602 -18.301  0.00  0.00    -0.353 N 
ATOM      5  C   UNL     1      30.903 -23.332 -15.059  0.00  0.00    -0.020 A 
ATOM      6  C   UNL     1      30.613 -22.711 -16.283  0.00  0.00    -0.010 A 
ATOM      7  C   UNL     1      32.209 -23.452 -14.669  0.00  0.00    +0.054 A 
ATOM      8  C   UNL     1      29.649 -23.729 -14.351  0.00  0.00    +0.027 C 
ATOM      9  C   UNL     1      29.127 -22.634 -16.495  0.00  0.00    +0.028 C 
ATOM     10  C   UNL     1      31.660 -22.238 -17.087  0.00  0.00    +0.052 A 
ATOM     11  C   UNL     1      33.249 -22.986 -15.475  0.00  0.00    +0.059 A 
ATOM     12  C   UNL     1      28.630 -23.692 -15.500  0.00  0.00    +0.009 C 
ATOM     13  C   UNL     1      33.011 -22.363 -16.714  0.00  0.00    +0.024 A 
ATOM     14  C   UNL     1      32.786 -24.027 -13.456  0.00  0.00    +0.253 C 
ATOM     15  C   UNL     1      34.502 -23.269 -14.775  0.00  0.00    +0.253 C 
ATOM     16  C   UNL     1      33.789 -21.778 -17.772  0.00  0.00    +0.051 A 
ATOM     17  C   UNL     1      32.892 -21.315 -18.741  0.00  0.00    +0.060 A 
ATOM     18  C   UNL     1      35.167 -21.588 -18.014  0.00  0.00    +0.140 C 
ATOM     19  C   UNL     1      33.301 -20.682 -19.921  0.00  0.00    +0.017 C 
ATOM     20  C   UNL     1      35.591 -20.957 -19.190  0.00  0.00    +0.037 C 
ATOM     21  C   UNL     1      34.669 -20.510 -20.130  0.00  0.00    +0.005 C 
ATOM     22  H   UNL     1      30.799 -21.381 -18.792  0.00  0.00    +0.166 HD
ENDROOT
BRANCH  18  23
ATOM     23  O   UNL     1      36.174 -21.985 -17.180  0.00  0.00    -0.471 OA
ATOM     24  C   UNL     1      36.994 -20.960 -16.627  0.00  0.00    +0.252 C 
ENDBRANCH  18  23
BRANCH   3  25
ATOM     25  C   UNL     1      35.116 -24.325 -12.606  0.00  0.00    +0.028 C 
BRANCH  25  26
ATOM     26  N   UNL     1      36.398 -24.560 -13.268  0.00  0.00    +0.396 N 
ATOM     27  N   UNL     1      39.016 -25.772 -13.456  0.00  0.00    +0.383 N 
ATOM     28  C   UNL     1      37.511 -24.105 -12.425  0.00  0.00    -0.098 C 
ATOM     29  C   UNL     1      36.558 -25.980 -13.606  0.00  0.00    -0.098 C 
ATOM     30  C   UNL     1      38.856 -24.353 -13.117  0.00  0.00    -0.101 C 
ATOM     31  C   UNL     1      37.903 -26.226 -14.299  0.00  0.00    -0.101 C 
ATOM     32  C   UNL     1      40.298 -26.005 -14.119  0.00  0.00    -0.101 C 
ATOM     33  H   UNL     1      36.409 -24.020 -14.133  0.00  0.00    -0.077 HD
ATOM     34  H   UNL     1      39.006 -26.312 -12.591  0.00  0.00    -0.080 HD
ENDBRANCH  25  26
ENDBRANCH   3  25
TORSDOF 3
ENDMDL
MODEL 2
REMARK VINA RESULT:     -12.4      2.247      6.622
REMARK  Name = 24780387
REMARK  3 active torsions:
REMARK  status: ('A' for Active; 'I' for Inactive)
REMARK    1  A    between atoms: N_3  and  C_25
REMARK    2  A    between atoms: C_18  and  O_23
REMARK    3  A    between atoms: C_25  and  N_26
REMARK                            x       y       z     vdW  Elec       q    Type
REMARK                         _______ _______ _______ _____ _____    ______ ____
ROOT
ATOM      1  O   UNL     1      32.071 -21.926 -18.886  0.00  0.00    -0.270 OA
ATOM      2  O   UNL     1      36.211 -22.308 -16.870  0.00  0.00    -0.270 OA
ATOM      3  N   UNL     1      34.327 -22.028 -18.231  0.00  0.00    -0.244 N 
ATOM      4  N   UNL     1      33.219 -23.380 -12.690  0.00  0.00    -0.353 N 
ATOM      5  C   UNL     1      31.583 -22.599 -15.967  0.00  0.00    -0.020 A 
ATOM      6  C   UNL     1      31.653 -22.932 -14.606  0.00  0.00    -0.010 A 
ATOM      7  C   UNL     1      32.745 -22.418 -16.666  0.00  0.00    +0.054 A 
ATOM      8  C   UNL     1      30.164 -22.545 -16.431  0.00  0.00    +0.027 C 
ATOM      9  C   UNL     1      30.274 -23.136 -14.042  0.00  0.00    +0.028 C 
ATOM     10  C   UNL     1      32.904 -23.061 -13.986  0.00  0.00    +0.052 A 
ATOM     11  C   UNL     1      33.988 -22.541 -16.044  0.00  0.00    +0.059 A 
ATOM     12  C   UNL     1      29.415 -22.424 -15.096  0.00  0.00    +0.009 C 
ATOM     13  C   UNL     1      34.112 -22.866 -14.680  0.00  0.00    +0.024 A 
ATOM     14  C   UNL     1      32.963 -22.091 -18.074  0.00  0.00    +0.253 C 
ATOM     15  C   UNL     1      35.010 -22.286 -17.060  0.00  0.00    +0.253 C 
ATOM     16  C   UNL     1      35.173 -23.074 -13.733  0.00  0.00    +0.051 A 
ATOM     17  C   UNL     1      34.580 -23.392 -12.507  0.00  0.00    +0.060 A 
ATOM     18  C   UNL     1      36.583 -23.028 -13.783  0.00  0.00    +0.140 C 
ATOM     19  C   UNL     1      35.317 -23.662 -11.347  0.00  0.00    +0.017 C 
ATOM     20  C   UNL     1      37.335 -23.295 -12.632  0.00  0.00    +0.037 C 
ATOM     21  C   UNL     1      36.708 -23.607 -11.430  0.00  0.00    +0.005 C 
ATOM     22  H   UNL     1      32.559 -23.574 -11.985  0.00  0.00    +0.166 HD
ENDROOT
BRANCH  18  23
ATOM     23  O   UNL     1      37.321 -22.726 -14.893  0.00  0.00    -0.471 OA
ATOM     24  C   UNL     1      38.500 -23.496 -15.111  0.00  0.00    +0.252 C 
ENDBRANCH  18  23
BRANCH   3  25
ATOM     25  C   UNL     1      34.991 -21.727 -19.485  0.00  0.00    +0.028 C 
BRANCH  25  26
ATOM     26  N   UNL     1      34.840 -20.303 -19.776  0.00  0.00    +0.396 N 
ATOM     27  N   UNL     1      34.946 -18.007 -21.529  0.00  0.00    +0.383 N 
ATOM     28  C   UNL     1      36.122 -19.716 -20.186  0.00  0.00    -0.098 C 
ATOM     29  C   UNL     1      33.822 -20.088 -20.813  0.00  0.00    -0.098 C 
ATOM     30  C   UNL     1      35.964 -18.222 -20.494  0.00  0.00    -0.101 C 
ATOM     31  C   UNL     1      33.665 -18.594 -21.119  0.00  0.00    -0.101 C 
ATOM     32  C   UNL     1      34.795 -16.582 -21.819  0.00  0.00    -0.101 C 
ATOM     33  H   UNL     1      34.532 -19.838 -18.922  0.00  0.00    -0.077 HD
ATOM     34  H   UNL     1      35.254 -18.470 -22.384  0.00  0.00    -0.080 HD
ENDBRANCH  25  26
ENDBRANCH   3  25
TORSDOF 3
ENDMDL
MODEL 3
REMARK VINA RESULT:     -11.3      1.051      4.560
REMARK  Name = 24780387
REMARK  3 active torsions:
REMARK  status: ('A' for Active; 'I' for Inactive)
REMARK    1  A    between atoms: N_3  and  C_25
REMARK    2  A    between atoms: C_18  and  O_23
REMARK    3  A    between atoms: C_25  and  N_26
REMARK                            x       y       z     vdW  Elec       q    Type
REMARK                         _______ _______ _______ _____ _____    ______ ____
ROOT
ATOM      1  O   UNL     1      36.720 -22.588 -15.802  0.00  0.00    -0.270 OA
ATOM      2  O   UNL     1      32.971 -23.645 -13.316  0.00  0.00    -0.270 OA
ATOM      3  N   UNL     1      35.080 -23.231 -14.245  0.00  0.00    -0.244 N 
ATOM      4  N   UNL     1      30.561 -22.024 -17.691  0.00  0.00    -0.353 N 
ATOM      5  C   UNL     1      34.301 -21.951 -17.522  0.00  0.00    -0.020 A 
ATOM      6  C   UNL     1      33.031 -21.775 -18.091  0.00  0.00    -0.010 A 
ATOM      7  C   UNL     1      34.395 -22.453 -16.252  0.00  0.00    +0.054 A 
ATOM      8  C   UNL     1      35.376 -21.574 -18.488  0.00  0.00    +0.027 C 
ATOM      9  C   UNL     1      33.151 -21.268 -19.501  0.00  0.00    +0.028 C 
ATOM     10  C   UNL     1      31.886 -22.103 -17.350  0.00  0.00    +0.052 A 
ATOM     11  C   UNL     1      33.254 -22.771 -15.515  0.00  0.00    +0.059 A 
ATOM     12  C   UNL     1      34.588 -20.729 -19.500  0.00  0.00    +0.009 C 
ATOM     13  C   UNL     1      31.957 -22.607 -16.038  0.00  0.00    +0.024 A 
ATOM     14  C   UNL     1      35.570 -22.752 -15.436  0.00  0.00    +0.253 C 
ATOM     15  C   UNL     1      33.701 -23.273 -14.215  0.00  0.00    +0.253 C 
ATOM     16  C   UNL     1      30.605 -22.818 -15.601  0.00  0.00    +0.051 A 
ATOM     17  C   UNL     1      29.764 -22.445 -16.654  0.00  0.00    +0.060 A 
ATOM     18  C   UNL     1      29.997 -23.290 -14.417  0.00  0.00    +0.140 C 
ATOM     19  C   UNL     1      28.367 -22.520 -16.583  0.00  0.00    +0.017 C 
ATOM     20  C   UNL     1      28.601 -23.371 -14.329  0.00  0.00    +0.037 C 
ATOM     21  C   UNL     1      27.798 -22.990 -15.399  0.00  0.00    +0.005 C 
ATOM     22  H   UNL     1      30.224 -21.708 -18.561  0.00  0.00    +0.166 HD
ENDROOT
BRANCH  18  23
ATOM     23  O   UNL     1      30.666 -23.686 -13.293  0.00  0.00    -0.471 OA
ATOM     24  C   UNL     1      30.042 -24.683 -12.489  0.00  0.00    +0.252 C 
ENDBRANCH  18  23
BRANCH   3  25
ATOM     25  C   UNL     1      35.909 -23.653 -13.132  0.00  0.00    +0.028 C 
BRANCH  25  26
ATOM     26  N   UNL     1      37.141 -24.242 -13.650  0.00  0.00    +0.396 N 
ATOM     27  N   UNL     1      39.443 -25.981 -13.462  0.00  0.00    +0.383 N 
ATOM     28  C   UNL     1      38.282 -23.907 -12.788  0.00  0.00    -0.098 C 
ATOM     29  C   UNL     1      37.009 -25.698 -13.781  0.00  0.00    -0.098 C 
ATOM     30  C   UNL     1      39.576 -24.525 -13.329  0.00  0.00    -0.101 C 
ATOM     31  C   UNL     1      38.303 -26.316 -14.324  0.00  0.00    -0.101 C 
ATOM     32  C   UNL     1      40.677 -26.568 -13.982  0.00  0.00    -0.101 C 
ATOM     33  H   UNL     1      37.313 -23.850 -14.576  0.00  0.00    -0.077 HD
ATOM     34  H   UNL     1      39.273 -26.374 -12.537  0.00  0.00    -0.080 HD
ENDBRANCH  25  26
ENDBRANCH   3  25
TORSDOF 3
ENDMDL
