MODEL 1
REMARK VINA RESULT:     -11.3      0.000      0.000
REMARK  Name = 10182969
REMARK  5 active torsions:
REMARK  status: ('A' for Active; 'I' for Inactive)
REMARK    1  A    between atoms: N_2  and  C_11
REMARK    2  A    between atoms: N_3  and  C_24
REMARK    3  A    between atoms: C_10  and  C_34
REMARK    4  A    between atoms: C_12  and  N_18
REMARK    5  A    between atoms: C_29  and  O_30
REMARK                            x       y       z     vdW  Elec       q    Type
REMARK                         _______ _______ _______ _____ _____    ______ ____
ROOT
ATOM      1  O   UNL     1      32.128 -22.189 -17.126  0.00  0.00    -0.268 OA
ATOM      2  N   UNL     1      34.468 -22.304 -17.405  0.00  0.00    -0.254 N 
ATOM      3  N   UNL     1      32.413 -23.805 -14.692  0.00  0.00    -0.225 N 
ATOM      4  N   UNL     1      32.896 -24.464 -13.620  0.00  0.00    -0.161 NA
ATOM      5  C   UNL     1      35.867 -23.258 -15.512  0.00  0.00    +0.052 C 
ATOM      6  C   UNL     1      35.693 -23.067 -17.029  0.00  0.00    +0.103 C 
ATOM      7  C   UNL     1      34.576 -23.652 -14.923  0.00  0.00    +0.026 A 
ATOM      8  C   UNL     1      33.384 -23.304 -15.510  0.00  0.00    +0.134 A 
ATOM      9  C   UNL     1      33.234 -22.548 -16.731  0.00  0.00    +0.270 C 
ATOM     10  C   UNL     1      34.221 -24.365 -13.766  0.00  0.00    +0.152 A 
ENDROOT
BRANCH   2  11
ATOM     11  C   UNL     1      34.523 -21.469 -18.579  0.00  0.00    +0.054 C 
ATOM     12  C   UNL     1      34.630 -19.853 -20.844  0.00  0.00    +0.054 C 
ATOM     13  C   UNL     1      35.757 -21.070 -19.086  0.00  0.00    +0.016 C 
ATOM     14  C   UNL     1      33.343 -21.066 -19.196  0.00  0.00    +0.016 C 
ATOM     15  C   UNL     1      35.811 -20.261 -20.221  0.00  0.00    +0.016 C 
ATOM     16  C   UNL     1      33.396 -20.256 -20.331  0.00  0.00    +0.016 C 
BRANCH  12  18
ATOM     17  O   UNL     1      35.330 -17.062 -20.887  0.00  0.00    -0.275 OA
ATOM     18  N   UNL     1      34.685 -19.015 -22.020  0.00  0.00    -0.259 N 
ATOM     19  C   UNL     1      34.066 -19.533 -23.252  0.00  0.00    +0.098 C 
ATOM     20  C   UNL     1      34.601 -18.910 -24.530  0.00  0.00    +0.022 C 
ATOM     21  C   UNL     1      34.554 -17.403 -24.406  0.00  0.00    +0.011 C 
ATOM     22  C   UNL     1      35.433 -16.984 -23.248  0.00  0.00    +0.086 C 
ATOM     23  C   UNL     1      35.123 -17.681 -21.934  0.00  0.00    +0.229 C 
ENDBRANCH  12  18
ENDBRANCH   2  11
BRANCH   3  24
ATOM     24  C   UNL     1      31.033 -23.709 -14.867  0.00  0.00    +0.083 C 
ATOM     25  C   UNL     1      30.337 -24.770 -15.432  0.00  0.00    +0.022 C 
ATOM     26  C   UNL     1      30.370 -22.551 -14.476  0.00  0.00    +0.022 C 
ATOM     27  C   UNL     1      28.957 -24.673 -15.609  0.00  0.00    +0.038 C 
ATOM     28  C   UNL     1      28.990 -22.455 -14.652  0.00  0.00    +0.038 C 
ATOM     29  C   UNL     1      28.283 -23.516 -15.220  0.00  0.00    +0.139 C 
BRANCH  29  30
ATOM     30  O   UNL     1      26.936 -23.421 -15.391  0.00  0.00    -0.471 OA
ATOM     31  C   UNL     1      26.422 -22.159 -15.815  0.00  0.00    +0.252 C 
ENDBRANCH  29  30
ENDBRANCH   3  24
BRANCH  10  34
ATOM     32  O   UNL     1      34.974 -24.758 -11.561  0.00  0.00    -0.269 OA
ATOM     33  N   UNL     1      36.103 -25.798 -13.246  0.00  0.00    -0.324 N 
ATOM     34  C   UNL     1      35.091 -24.951 -12.788  0.00  0.00    +0.262 C 
ATOM     35  H   UNL     1      36.720 -26.218 -12.605  0.00  0.00    +0.145 HD
ATOM     36  H   UNL     1      36.199 -25.973 -14.210  0.00  0.00    +0.145 HD
ENDBRANCH  10  34
TORSDOF 5
ENDMDL
MODEL 2
REMARK VINA RESULT:     -10.7      0.873      1.240
REMARK  Name = 10182969
REMARK  5 active torsions:
REMARK  status: ('A' for Active; 'I' for Inactive)
REMARK    1  A    between atoms: N_2  and  C_11
REMARK    2  A    between atoms: N_3  and  C_24
REMARK    3  A    between atoms: C_10  and  C_34
REMARK    4  A    between atoms: C_12  and  N_18
REMARK    5  A    between atoms: C_29  and  O_30
REMARK                            x       y       z     vdW  Elec       q    Type
REMARK                         _______ _______ _______ _____ _____    ______ ____
ROOT
ATOM      1  O   UNL     1      32.917 -22.235 -16.968  0.00  0.00    -0.268 OA
ATOM      2  N   UNL     1      35.236 -22.158 -17.394  0.00  0.00    -0.254 N 
ATOM      3  N   UNL     1      33.484 -23.823 -14.565  0.00  0.00    -0.225 N 
ATOM      4  N   UNL     1      34.086 -24.441 -13.530  0.00  0.00    -0.161 NA
ATOM      5  C   UNL     1      36.824 -22.995 -15.597  0.00  0.00    +0.052 C 
ATOM      6  C   UNL     1      36.541 -22.818 -17.099  0.00  0.00    +0.103 C 
ATOM      7  C   UNL     1      35.609 -23.493 -14.930  0.00  0.00    +0.026 A 
ATOM      8  C   UNL     1      34.358 -23.244 -15.439  0.00  0.00    +0.134 A 
ATOM      9  C   UNL     1      34.071 -22.503 -16.645  0.00  0.00    +0.270 C 
ATOM     10  C   UNL     1      35.386 -24.233 -13.757  0.00  0.00    +0.152 A 
ENDROOT
BRANCH   2  11
ATOM     11  C   UNL     1      35.149 -21.321 -18.564  0.00  0.00    +0.054 C 
ATOM     12  C   UNL     1      34.980 -19.705 -20.825  0.00  0.00    +0.054 C 
ATOM     13  C   UNL     1      33.915 -21.110 -19.172  0.00  0.00    +0.016 C 
ATOM     14  C   UNL     1      36.299 -20.729 -19.077  0.00  0.00    +0.016 C 
ATOM     15  C   UNL     1      33.830 -20.301 -20.305  0.00  0.00    +0.016 C 
ATOM     16  C   UNL     1      36.215 -19.920 -20.210  0.00  0.00    +0.016 C 
BRANCH  12  18
ATOM     17  O   UNL     1      35.369 -16.854 -20.885  0.00  0.00    -0.275 OA
ATOM     18  N   UNL     1      34.894 -18.866 -21.999  0.00  0.00    -0.259 N 
ATOM     19  C   UNL     1      34.284 -19.449 -23.206  0.00  0.00    +0.098 C 
ATOM     20  C   UNL     1      34.694 -18.771 -24.503  0.00  0.00    +0.022 C 
ATOM     21  C   UNL     1      34.489 -17.279 -24.370  0.00  0.00    +0.011 C 
ATOM     22  C   UNL     1      35.365 -16.766 -23.248  0.00  0.00    +0.086 C 
ATOM     23  C   UNL     1      35.187 -17.492 -21.925  0.00  0.00    +0.229 C 
ENDBRANCH  12  18
ENDBRANCH   2  11
BRANCH   3  24
ATOM     24  C   UNL     1      32.092 -23.840 -14.653  0.00  0.00    +0.083 C 
ATOM     25  C   UNL     1      31.448 -24.977 -15.125  0.00  0.00    +0.022 C 
ATOM     26  C   UNL     1      31.367 -22.719 -14.270  0.00  0.00    +0.022 C 
ATOM     27  C   UNL     1      30.057 -24.993 -15.215  0.00  0.00    +0.038 C 
ATOM     28  C   UNL     1      29.975 -22.735 -14.360  0.00  0.00    +0.038 C 
ATOM     29  C   UNL     1      29.320 -23.873 -14.833  0.00  0.00    +0.139 C 
BRANCH  29  30
ATOM     30  O   UNL     1      27.962 -23.889 -14.919  0.00  0.00    -0.471 OA
ATOM     31  C   UNL     1      27.329 -22.718 -15.434  0.00  0.00    +0.252 C 
ENDBRANCH  29  30
ENDBRANCH   3  24
BRANCH  10  34
ATOM     32  O   UNL     1      37.002 -24.028 -12.044  0.00  0.00    -0.269 OA
ATOM     33  N   UNL     1      36.577 -26.126 -12.828  0.00  0.00    -0.324 N 
ATOM     34  C   UNL     1      36.361 -24.747 -12.838  0.00  0.00    +0.262 C 
ATOM     35  H   UNL     1      37.239 -26.515 -12.212  0.00  0.00    +0.145 HD
ATOM     36  H   UNL     1      36.069 -26.708 -13.437  0.00  0.00    +0.145 HD
ENDBRANCH  10  34
TORSDOF 5
ENDMDL
MODEL 3
REMARK VINA RESULT:     -10.3      2.127      5.109
REMARK  Name = 10182969
REMARK  5 active torsions:
REMARK  status: ('A' for Active; 'I' for Inactive)
REMARK    1  A    between atoms: N_2  and  C_11
REMARK    2  A    between atoms: N_3  and  C_24
REMARK    3  A    between atoms: C_10  and  C_34
REMARK    4  A    between atoms: C_12  and  N_18
REMARK    5  A    between atoms: C_29  and  O_30
REMARK                            x       y       z     vdW  Elec       q    Type
REMARK                         _______ _______ _______ _____ _____    ______ ____
ROOT
ATOM      1  O   UNL     1      35.157 -22.949 -16.556  0.00  0.00    -0.268 OA
ATOM      2  N   UNL     1      32.970 -22.303 -17.161  0.00  0.00    -0.254 N 
ATOM      3  N   UNL     1      34.010 -24.474 -14.326  0.00  0.00    -0.225 N 
ATOM      4  N   UNL     1      33.174 -25.113 -13.484  0.00  0.00    -0.161 NA
ATOM      5  C   UNL     1      31.011 -23.433 -16.006  0.00  0.00    +0.052 C 
ATOM      6  C   UNL     1      31.572 -22.160 -16.663  0.00  0.00    +0.103 C 
ATOM      7  C   UNL     1      32.030 -24.004 -15.109  0.00  0.00    +0.026 A 
ATOM      8  C   UNL     1      33.371 -23.787 -15.316  0.00  0.00    +0.134 A 
ATOM      9  C   UNL     1      33.942 -23.000 -16.384  0.00  0.00    +0.270 C 
ATOM     10  C   UNL     1      31.963 -24.823 -13.970  0.00  0.00    +0.152 A 
ENDROOT
BRANCH   2  11
ATOM     11  C   UNL     1      33.350 -21.561 -18.338  0.00  0.00    +0.054 C 
ATOM     12  C   UNL     1      34.085 -20.128 -20.608  0.00  0.00    +0.054 C 
ATOM     13  C   UNL     1      34.681 -21.546 -18.745  0.00  0.00    +0.016 C 
ATOM     14  C   UNL     1      32.384 -20.865 -19.058  0.00  0.00    +0.016 C 
ATOM     15  C   UNL     1      35.049 -20.828 -19.883  0.00  0.00    +0.016 C 
ATOM     16  C   UNL     1      32.752 -20.146 -20.195  0.00  0.00    +0.016 C 
BRANCH  12  18
ATOM     17  O   UNL     1      35.527 -17.636 -20.631  0.00  0.00    -0.275 OA
ATOM     18  N   UNL     1      34.466 -19.383 -21.788  0.00  0.00    -0.259 N 
ATOM     19  C   UNL     1      33.832 -19.761 -23.062  0.00  0.00    +0.098 C 
ATOM     20  C   UNL     1      34.622 -19.358 -24.296  0.00  0.00    +0.022 C 
ATOM     21  C   UNL     1      34.981 -17.893 -24.200  0.00  0.00    +0.011 C 
ATOM     22  C   UNL     1      35.843 -17.684 -22.974  0.00  0.00    +0.086 C 
ATOM     23  C   UNL     1      35.245 -18.217 -21.683  0.00  0.00    +0.229 C 
ENDBRANCH  12  18
ENDBRANCH   2  11
BRANCH   3  24
ATOM     24  C   UNL     1      35.386 -24.559 -14.113  0.00  0.00    +0.083 C 
ATOM     25  C   UNL     1      36.029 -23.571 -13.378  0.00  0.00    +0.022 C 
ATOM     26  C   UNL     1      36.097 -25.630 -14.641  0.00  0.00    +0.022 C 
ATOM     27  C   UNL     1      37.405 -23.655 -13.168  0.00  0.00    +0.038 C 
ATOM     28  C   UNL     1      37.473 -25.714 -14.429  0.00  0.00    +0.038 C 
ATOM     29  C   UNL     1      38.127 -24.725 -13.693  0.00  0.00    +0.139 C 
BRANCH  29  30
ATOM     30  O   UNL     1      39.471 -24.807 -13.486  0.00  0.00    -0.471 OA
ATOM     31  C   UNL     1      40.195 -25.743 -14.284  0.00  0.00    +0.252 C 
ENDBRANCH  29  30
ENDBRANCH   3  24
BRANCH  10  34
ATOM     32  O   UNL     1      30.513 -25.137 -12.130  0.00  0.00    -0.269 OA
ATOM     33  N   UNL     1      29.919 -26.115 -14.101  0.00  0.00    -0.324 N 
ATOM     34  C   UNL     1      30.793 -25.349 -13.328  0.00  0.00    +0.262 C 
ATOM     35  H   UNL     1      29.106 -26.493 -13.695  0.00  0.00    +0.145 HD
ATOM     36  H   UNL     1      30.117 -26.278 -15.052  0.00  0.00    +0.145 HD
ENDBRANCH  10  34
TORSDOF 5
ENDMDL
MODEL 4
REMARK VINA RESULT:     -10.0      9.813     16.731
REMARK  Name = 10182969
REMARK  5 active torsions:
REMARK  status: ('A' for Active; 'I' for Inactive)
REMARK    1  A    between atoms: N_2  and  C_11
REMARK    2  A    between atoms: N_3  and  C_24
REMARK    3  A    between atoms: C_10  and  C_34
REMARK    4  A    between atoms: C_12  and  N_18
REMARK    5  A    between atoms: C_29  and  O_30
REMARK                            x       y       z     vdW  Elec       q    Type
REMARK                         _______ _______ _______ _____ _____    ______ ____
ROOT
ATOM      1  O   UNL     1      33.859  -8.634 -24.600  0.00  0.00    -0.268 OA
ATOM      2  N   UNL     1      32.419  -9.416 -22.902  0.00  0.00    -0.254 N 
ATOM      3  N   UNL     1      32.821  -5.928 -24.131  0.00  0.00    -0.225 N 
ATOM      4  N   UNL     1      32.209  -4.844 -23.617  0.00  0.00    -0.161 NA
ATOM      5  C   UNL     1      31.206  -7.710 -21.464  0.00  0.00    +0.052 C 
ATOM      6  C   UNL     1      31.187  -9.101 -22.123  0.00  0.00    +0.103 C 
ATOM      7  C   UNL     1      31.707  -6.722 -22.433  0.00  0.00    +0.026 A 
ATOM      8  C   UNL     1      32.545  -7.083 -23.459  0.00  0.00    +0.134 A 
ATOM      9  C   UNL     1      33.024  -8.420 -23.725  0.00  0.00    +0.270 C 
ATOM     10  C   UNL     1      31.530  -5.335 -22.576  0.00  0.00    +0.152 A 
ENDROOT
BRANCH   2  11
ATOM     11  C   UNL     1      32.858 -10.788 -22.949  0.00  0.00    +0.054 C 
ATOM     12  C   UNL     1      33.708 -13.438 -23.038  0.00  0.00    +0.054 C 
ATOM     13  C   UNL     1      32.327 -11.715 -22.057  0.00  0.00    +0.016 C 
ATOM     14  C   UNL     1      33.810 -11.177 -23.886  0.00  0.00    +0.016 C 
ATOM     15  C   UNL     1      32.753 -13.043 -22.101  0.00  0.00    +0.016 C 
ATOM     16  C   UNL     1      34.237 -12.505 -23.931  0.00  0.00    +0.016 C 
BRANCH  12  18
ATOM     17  O   UNL     1      33.294 -15.262 -25.226  0.00  0.00    -0.275 OA
ATOM     18  N   UNL     1      34.150 -14.814 -23.086  0.00  0.00    -0.259 N 
ATOM     19  C   UNL     1      34.592 -15.428 -21.822  0.00  0.00    +0.098 C 
ATOM     20  C   UNL     1      35.521 -16.618 -21.997  0.00  0.00    +0.022 C 
ATOM     21  C   UNL     1      34.899 -17.594 -22.971  0.00  0.00    +0.011 C 
ATOM     22  C   UNL     1      34.725 -16.905 -24.306  0.00  0.00    +0.086 C 
ATOM     23  C   UNL     1      33.966 -15.590 -24.244  0.00  0.00    +0.229 C 
ENDBRANCH  12  18
ENDBRANCH   2  11
BRANCH   3  24
ATOM     24  C   UNL     1      33.633  -5.783 -25.256  0.00  0.00    +0.083 C 
ATOM     25  C   UNL     1      33.079  -5.911 -26.524  0.00  0.00    +0.022 C 
ATOM     26  C   UNL     1      34.987  -5.513 -25.096  0.00  0.00    +0.022 C 
ATOM     27  C   UNL     1      33.891  -5.768 -27.648  0.00  0.00    +0.038 C 
ATOM     28  C   UNL     1      35.799  -5.369 -26.220  0.00  0.00    +0.038 C 
ATOM     29  C   UNL     1      35.250  -5.497 -27.497  0.00  0.00    +0.139 C 
BRANCH  29  30
ATOM     30  O   UNL     1      36.043  -5.355 -28.595  0.00  0.00    -0.471 OA
ATOM     31  C   UNL     1      36.928  -6.433 -28.901  0.00  0.00    +0.252 C 
ENDBRANCH  29  30
ENDBRANCH   3  24
BRANCH  10  34
ATOM     32  O   UNL     1      29.591  -4.726 -21.369  0.00  0.00    -0.269 OA
ATOM     33  N   UNL     1      31.326  -3.249 -21.364  0.00  0.00    -0.324 N 
ATOM     34  C   UNL     1      30.746  -4.456 -21.758  0.00  0.00    +0.262 C 
ATOM     35  H   UNL     1      30.818  -2.619 -20.803  0.00  0.00    +0.145 HD
ATOM     36  H   UNL     1      32.242  -3.027 -21.649  0.00  0.00    +0.145 HD
ENDBRANCH  10  34
TORSDOF 5
ENDMDL
MODEL 5
REMARK VINA RESULT:      -9.6      9.721     16.612
REMARK  Name = 10182969
REMARK  5 active torsions:
REMARK  status: ('A' for Active; 'I' for Inactive)
REMARK    1  A    between atoms: N_2  and  C_11
REMARK    2  A    between atoms: N_3  and  C_24
REMARK    3  A    between atoms: C_10  and  C_34
REMARK    4  A    between atoms: C_12  and  N_18
REMARK    5  A    between atoms: C_29  and  O_30
REMARK                            x       y       z     vdW  Elec       q    Type
REMARK                         _______ _______ _______ _____ _____    ______ ____
ROOT
ATOM      1  O   UNL     1      33.856  -8.719 -24.445  0.00  0.00    -0.268 OA
ATOM      2  N   UNL     1      32.444  -9.471 -22.712  0.00  0.00    -0.254 N 
ATOM      3  N   UNL     1      32.752  -6.024 -24.076  0.00  0.00    -0.225 N 
ATOM      4  N   UNL     1      32.114  -4.936 -23.602  0.00  0.00    -0.161 NA
ATOM      5  C   UNL     1      31.193  -7.742 -21.335  0.00  0.00    +0.052 C 
ATOM      6  C   UNL     1      31.207  -9.157 -21.940  0.00  0.00    +0.103 C 
ATOM      7  C   UNL     1      31.664  -6.779 -22.344  0.00  0.00    +0.026 A 
ATOM      8  C   UNL     1      32.508  -7.159 -23.359  0.00  0.00    +0.134 A 
ATOM      9  C   UNL     1      33.020  -8.492 -23.575  0.00  0.00    +0.270 C 
ATOM     10  C   UNL     1      31.452  -5.404 -22.539  0.00  0.00    +0.152 A 
ENDROOT
BRANCH   2  11
ATOM     11  C   UNL     1      32.918 -10.832 -22.708  0.00  0.00    +0.054 C 
ATOM     12  C   UNL     1      33.834 -13.461 -22.699  0.00  0.00    +0.054 C 
ATOM     13  C   UNL     1      32.410 -11.738 -21.781  0.00  0.00    +0.016 C 
ATOM     14  C   UNL     1      33.879 -11.232 -23.631  0.00  0.00    +0.016 C 
ATOM     15  C   UNL     1      32.869 -13.055 -21.776  0.00  0.00    +0.016 C 
ATOM     16  C   UNL     1      34.339 -12.549 -23.626  0.00  0.00    +0.016 C 
BRANCH  12  18
ATOM     17  O   UNL     1      34.943 -14.848 -20.433  0.00  0.00    -0.275 OA
ATOM     18  N   UNL     1      34.311 -14.826 -22.695  0.00  0.00    -0.259 N 
ATOM     19  C   UNL     1      34.517 -15.476 -24.000  0.00  0.00    +0.098 C 
ATOM     20  C   UNL     1      34.482 -16.995 -23.955  0.00  0.00    +0.022 C 
ATOM     21  C   UNL     1      35.417 -17.481 -22.871  0.00  0.00    +0.011 C 
ATOM     22  C   UNL     1      34.944 -16.938 -21.541  0.00  0.00    +0.086 C 
ATOM     23  C   UNL     1      34.755 -15.430 -21.505  0.00  0.00    +0.229 C 
ENDBRANCH  12  18
ENDBRANCH   2  11
BRANCH   3  24
ATOM     24  C   UNL     1      33.556  -5.902 -25.210  0.00  0.00    +0.083 C 
ATOM     25  C   UNL     1      34.914  -5.648 -25.064  0.00  0.00    +0.022 C 
ATOM     26  C   UNL     1      32.989  -6.034 -26.471  0.00  0.00    +0.022 C 
ATOM     27  C   UNL     1      35.717  -5.523 -26.198  0.00  0.00    +0.038 C 
ATOM     28  C   UNL     1      33.792  -5.911 -27.605  0.00  0.00    +0.038 C 
ATOM     29  C   UNL     1      35.157  -5.655 -27.467  0.00  0.00    +0.139 C 
BRANCH  29  30
ATOM     30  O   UNL     1      35.941  -5.535 -28.574  0.00  0.00    -0.471 OA
ATOM     31  C   UNL     1      35.701  -6.449 -29.642  0.00  0.00    +0.252 C 
ENDBRANCH  29  30
ENDBRANCH   3  24
BRANCH  10  34
ATOM     32  O   UNL     1      29.490  -4.785 -21.375  0.00  0.00    -0.269 OA
ATOM     33  N   UNL     1      31.213  -3.294 -21.376  0.00  0.00    -0.324 N 
ATOM     34  C   UNL     1      30.648  -4.514 -21.752  0.00  0.00    +0.262 C 
ATOM     35  H   UNL     1      30.692  -2.657 -20.836  0.00  0.00    +0.145 HD
ATOM     36  H   UNL     1      32.132  -3.071 -21.651  0.00  0.00    +0.145 HD
ENDBRANCH  10  34
TORSDOF 5
ENDMDL
MODEL 6
REMARK VINA RESULT:      -9.0     10.425     15.014
REMARK  Name = 10182969
REMARK  5 active torsions:
REMARK  status: ('A' for Active; 'I' for Inactive)
REMARK    1  A    between atoms: N_2  and  C_11
REMARK    2  A    between atoms: N_3  and  C_24
REMARK    3  A    between atoms: C_10  and  C_34
REMARK    4  A    between atoms: C_12  and  N_18
REMARK    5  A    between atoms: C_29  and  O_30
REMARK                            x       y       z     vdW  Elec       q    Type
REMARK                         _______ _______ _______ _____ _____    ______ ____
ROOT
ATOM      1  O   UNL     1      33.601 -10.031 -24.042  0.00  0.00    -0.268 OA
ATOM      2  N   UNL     1      33.283  -7.953 -22.971  0.00  0.00    -0.254 N 
ATOM      3  N   UNL     1      32.578 -11.349 -21.627  0.00  0.00    -0.225 N 
ATOM      4  N   UNL     1      32.006 -11.614 -20.436  0.00  0.00    -0.161 NA
ATOM      5  C   UNL     1      32.010  -7.907 -20.774  0.00  0.00    +0.052 C 
ATOM      6  C   UNL     1      33.118  -7.290 -21.645  0.00  0.00    +0.103 C 
ATOM      7  C   UNL     1      32.113  -9.374 -20.827  0.00  0.00    +0.026 A 
ATOM      8  C   UNL     1      32.672 -10.016 -21.905  0.00  0.00    +0.134 A 
ATOM      9  C   UNL     1      33.220  -9.375 -23.077  0.00  0.00    +0.270 C 
ATOM     10  C   UNL     1      31.721 -10.401 -19.952  0.00  0.00    +0.152 A 
ENDROOT
BRANCH   2  11
ATOM     11  C   UNL     1      33.694  -7.141 -24.089  0.00  0.00    +0.054 C 
ATOM     12  C   UNL     1      34.489  -5.570 -26.246  0.00  0.00    +0.054 C 
ATOM     13  C   UNL     1      35.007  -6.685 -24.166  0.00  0.00    +0.016 C 
ATOM     14  C   UNL     1      32.776  -6.818 -25.083  0.00  0.00    +0.016 C 
ATOM     15  C   UNL     1      35.405  -5.898 -25.247  0.00  0.00    +0.016 C 
ATOM     16  C   UNL     1      33.173  -6.030 -26.164  0.00  0.00    +0.016 C 
BRANCH  12  18
ATOM     17  O   UNL     1      35.332  -6.550 -28.818  0.00  0.00    -0.275 OA
ATOM     18  N   UNL     1      34.900  -4.755 -27.367  0.00  0.00    -0.259 N 
ATOM     19  C   UNL     1      35.188  -3.335 -27.103  0.00  0.00    +0.098 C 
ATOM     20  C   UNL     1      35.080  -2.438 -28.325  0.00  0.00    +0.022 C 
ATOM     21  C   UNL     1      35.895  -3.032 -29.452  0.00  0.00    +0.011 C 
ATOM     22  C   UNL     1      35.334  -4.395 -29.791  0.00  0.00    +0.086 C 
ATOM     23  C   UNL     1      35.211  -5.340 -28.608  0.00  0.00    +0.229 C 
ENDBRANCH  12  18
ENDBRANCH   2  11
BRANCH   3  24
ATOM     24  C   UNL     1      33.013 -12.408 -22.424  0.00  0.00    +0.083 C 
ATOM     25  C   UNL     1      32.297 -12.746 -23.566  0.00  0.00    +0.022 C 
ATOM     26  C   UNL     1      34.156 -13.112 -22.067  0.00  0.00    +0.022 C 
ATOM     27  C   UNL     1      32.731 -13.806 -24.362  0.00  0.00    +0.038 C 
ATOM     28  C   UNL     1      34.590 -14.171 -22.864  0.00  0.00    +0.038 C 
ATOM     29  C   UNL     1      33.876 -14.518 -24.012  0.00  0.00    +0.139 C 
BRANCH  29  30
ATOM     30  O   UNL     1      34.301 -15.552 -24.790  0.00  0.00    -0.471 OA
ATOM     31  C   UNL     1      34.667 -16.759 -24.123  0.00  0.00    +0.252 C 
ENDBRANCH  29  30
ENDBRANCH   3  24
BRANCH  10  34
ATOM     32  O   UNL     1      29.850 -10.115 -18.537  0.00  0.00    -0.269 OA
ATOM     33  N   UNL     1      31.882 -10.366 -17.536  0.00  0.00    -0.324 N 
ATOM     34  C   UNL     1      31.079 -10.277 -18.675  0.00  0.00    +0.262 C 
ATOM     35  H   UNL     1      31.478 -10.285 -16.642  0.00  0.00    +0.145 HD
ATOM     36  H   UNL     1      32.851 -10.510 -17.627  0.00  0.00    +0.145 HD
ENDBRANCH  10  34
TORSDOF 5
ENDMDL
MODEL 7
REMARK VINA RESULT:      -8.9     10.427     15.031
REMARK  Name = 10182969
REMARK  5 active torsions:
REMARK  status: ('A' for Active; 'I' for Inactive)
REMARK    1  A    between atoms: N_2  and  C_11
REMARK    2  A    between atoms: N_3  and  C_24
REMARK    3  A    between atoms: C_10  and  C_34
REMARK    4  A    between atoms: C_12  and  N_18
REMARK    5  A    between atoms: C_29  and  O_30
REMARK                            x       y       z     vdW  Elec       q    Type
REMARK                         _______ _______ _______ _____ _____    ______ ____
ROOT
ATOM      1  O   UNL     1      33.605 -10.054 -24.015  0.00  0.00    -0.268 OA
ATOM      2  N   UNL     1      33.273  -7.985 -22.932  0.00  0.00    -0.254 N 
ATOM      3  N   UNL     1      32.558 -11.392 -21.620  0.00  0.00    -0.225 N 
ATOM      4  N   UNL     1      31.973 -11.666 -20.438  0.00  0.00    -0.161 NA
ATOM      5  C   UNL     1      31.977  -7.956 -20.748  0.00  0.00    +0.052 C 
ATOM      6  C   UNL     1      33.094  -7.332 -21.603  0.00  0.00    +0.103 C 
ATOM      7  C   UNL     1      32.082  -9.423 -20.811  0.00  0.00    +0.026 A 
ATOM      8  C   UNL     1      32.653 -10.057 -21.887  0.00  0.00    +0.134 A 
ATOM      9  C   UNL     1      33.212  -9.405 -23.049  0.00  0.00    +0.270 C 
ATOM     10  C   UNL     1      31.682 -10.457 -19.948  0.00  0.00    +0.152 A 
ENDROOT
BRANCH   2  11
ATOM     11  C   UNL     1      33.695  -7.163 -24.039  0.00  0.00    +0.054 C 
ATOM     12  C   UNL     1      34.510  -5.579 -26.179  0.00  0.00    +0.054 C 
ATOM     13  C   UNL     1      32.798  -6.869 -25.062  0.00  0.00    +0.016 C 
ATOM     14  C   UNL     1      34.996  -6.671 -24.078  0.00  0.00    +0.016 C 
ATOM     15  C   UNL     1      33.206  -6.075 -26.134  0.00  0.00    +0.016 C 
ATOM     16  C   UNL     1      35.405  -5.878 -25.150  0.00  0.00    +0.016 C 
BRANCH  12  18
ATOM     17  O   UNL     1      34.320  -2.710 -26.314  0.00  0.00    -0.275 OA
ATOM     18  N   UNL     1      34.934  -4.757 -27.289  0.00  0.00    -0.259 N 
ATOM     19  C   UNL     1      35.222  -5.435 -28.564  0.00  0.00    +0.098 C 
ATOM     20  C   UNL     1      36.146  -4.660 -29.489  0.00  0.00    +0.022 C 
ATOM     21  C   UNL     1      35.625  -3.250 -29.646  0.00  0.00    +0.011 C 
ATOM     22  C   UNL     1      35.614  -2.581 -28.289  0.00  0.00    +0.086 C 
ATOM     23  C   UNL     1      34.872  -3.354 -27.211  0.00  0.00    +0.229 C 
ENDBRANCH  12  18
ENDBRANCH   2  11
BRANCH   3  24
ATOM     24  C   UNL     1      33.002 -12.444 -22.421  0.00  0.00    +0.083 C 
ATOM     25  C   UNL     1      34.134 -13.157 -22.051  0.00  0.00    +0.022 C 
ATOM     26  C   UNL     1      32.307 -12.764 -23.581  0.00  0.00    +0.022 C 
ATOM     27  C   UNL     1      34.580 -14.208 -22.853  0.00  0.00    +0.038 C 
ATOM     28  C   UNL     1      32.751 -13.816 -24.382  0.00  0.00    +0.038 C 
ATOM     29  C   UNL     1      33.889 -14.537 -24.018  0.00  0.00    +0.139 C 
BRANCH  29  30
ATOM     30  O   UNL     1      34.322 -15.564 -24.800  0.00  0.00    -0.471 OA
ATOM     31  C   UNL     1      34.712 -16.766 -24.138  0.00  0.00    +0.252 C 
ENDBRANCH  29  30
ENDBRANCH   3  24
BRANCH  10  34
ATOM     32  O   UNL     1      29.815 -10.072 -18.550  0.00  0.00    -0.269 OA
ATOM     33  N   UNL     1      31.791 -10.572 -17.531  0.00  0.00    -0.324 N 
ATOM     34  C   UNL     1      31.026 -10.343 -18.677  0.00  0.00    +0.262 C 
ATOM     35  H   UNL     1      31.377 -10.502 -16.642  0.00  0.00    +0.145 HD
ATOM     36  H   UNL     1      32.745 -10.802 -17.614  0.00  0.00    +0.145 HD
ENDBRANCH  10  34
TORSDOF 5
ENDMDL
MODEL 8
REMARK VINA RESULT:      -8.5      1.821      2.443
REMARK  Name = 10182969
REMARK  5 active torsions:
REMARK  status: ('A' for Active; 'I' for Inactive)
REMARK    1  A    between atoms: N_2  and  C_11
REMARK    2  A    between atoms: N_3  and  C_24
REMARK    3  A    between atoms: C_10  and  C_34
REMARK    4  A    between atoms: C_12  and  N_18
REMARK    5  A    between atoms: C_29  and  O_30
REMARK                            x       y       z     vdW  Elec       q    Type
REMARK                         _______ _______ _______ _____ _____    ______ ____
ROOT
ATOM      1  O   UNL     1      33.550 -22.922 -15.587  0.00  0.00    -0.268 OA
ATOM      2  N   UNL     1      35.899 -22.784 -15.755  0.00  0.00    -0.254 N 
ATOM      3  N   UNL     1      33.889 -24.330 -13.034  0.00  0.00    -0.225 N 
ATOM      4  N   UNL     1      34.386 -24.857 -11.898  0.00  0.00    -0.161 NA
ATOM      5  C   UNL     1      37.297 -23.442 -13.739  0.00  0.00    +0.052 C 
ATOM      6  C   UNL     1      37.182 -23.373 -15.272  0.00  0.00    +0.103 C 
ATOM      7  C   UNL     1      36.030 -23.943 -13.180  0.00  0.00    +0.026 A 
ATOM      8  C   UNL     1      34.838 -23.775 -13.842  0.00  0.00    +0.134 A 
ATOM      9  C   UNL     1      34.668 -23.124 -15.120  0.00  0.00    +0.270 C 
ATOM     10  C   UNL     1      35.698 -24.614 -11.992  0.00  0.00    +0.152 A 
ENDROOT
BRANCH   2  11
ATOM     11  C   UNL     1      35.921 -22.027 -16.982  0.00  0.00    +0.054 C 
ATOM     12  C   UNL     1      35.962 -20.563 -19.350  0.00  0.00    +0.054 C 
ATOM     13  C   UNL     1      36.935 -21.099 -17.203  0.00  0.00    +0.016 C 
ATOM     14  C   UNL     1      34.928 -22.229 -17.935  0.00  0.00    +0.016 C 
ATOM     15  C   UNL     1      36.955 -20.366 -18.390  0.00  0.00    +0.016 C 
ATOM     16  C   UNL     1      34.948 -21.495 -19.122  0.00  0.00    +0.016 C 
BRANCH  12  18
ATOM     17  O   UNL     1      33.746 -20.230 -21.156  0.00  0.00    -0.275 OA
ATOM     18  N   UNL     1      35.982 -19.804 -20.580  0.00  0.00    -0.259 N 
ATOM     19  C   UNL     1      37.297 -19.403 -21.107  0.00  0.00    +0.098 C 
ATOM     20  C   UNL     1      37.257 -18.203 -22.039  0.00  0.00    +0.022 C 
ATOM     21  C   UNL     1      36.212 -18.437 -23.106  0.00  0.00    +0.011 C 
ATOM     22  C   UNL     1      34.862 -18.587 -22.439  0.00  0.00    +0.086 C 
ATOM     23  C   UNL     1      34.812 -19.639 -21.343  0.00  0.00    +0.229 C 
ENDBRANCH  12  18
ENDBRANCH   2  11
BRANCH   3  24
ATOM     24  C   UNL     1      32.517 -24.406 -13.276  0.00  0.00    +0.083 C 
ATOM     25  C   UNL     1      31.992 -25.528 -13.903  0.00  0.00    +0.022 C 
ATOM     26  C   UNL     1      31.693 -23.357 -12.888  0.00  0.00    +0.022 C 
ATOM     27  C   UNL     1      30.621 -25.603 -14.147  0.00  0.00    +0.038 C 
ATOM     28  C   UNL     1      30.321 -23.432 -13.131  0.00  0.00    +0.038 C 
ATOM     29  C   UNL     1      29.785 -24.556 -13.761  0.00  0.00    +0.139 C 
BRANCH  29  30
ATOM     30  O   UNL     1      28.447 -24.629 -13.998  0.00  0.00    -0.471 OA
ATOM     31  C   UNL     1      27.989 -24.204 -15.281  0.00  0.00    +0.252 C 
ENDBRANCH  29  30
ENDBRANCH   3  24
BRANCH  10  34
ATOM     32  O   UNL     1      36.546 -24.547  -9.786  0.00  0.00    -0.269 OA
ATOM     33  N   UNL     1      37.494 -26.044 -11.221  0.00  0.00    -0.324 N 
ATOM     34  C   UNL     1      36.576 -25.030 -10.937  0.00  0.00    +0.262 C 
ATOM     35  H   UNL     1      38.113 -26.355 -10.522  0.00  0.00    +0.145 HD
ATOM     36  H   UNL     1      37.520 -26.446 -12.119  0.00  0.00    +0.145 HD
ENDBRANCH  10  34
TORSDOF 5
ENDMDL
