MODEL 1
REMARK VINA RESULT:     -12.2      0.000      0.000
REMARK  Name = 49866474
REMARK  7 active torsions:
REMARK  status: ('A' for Active; 'I' for Inactive)
REMARK    1  A    between atoms: O_1  and  C_3
REMARK    2  A    between atoms: O_1  and  C_18
REMARK    3  A    between atoms: C_4  and  C_10
REMARK    4  A    between atoms: C_18  and  C_19
REMARK    5  A    between atoms: C_19  and  N_20
REMARK    6  A    between atoms: C_19  and  C_24
REMARK    7  A    between atoms: C_24  and  C_26
REMARK                            x       y       z     vdW  Elec       q    Type
REMARK                         _______ _______ _______ _____ _____    ______ ____
ROOT
ATOM      1  O   UNL     1      35.459 -16.956 -22.753  0.00  0.00    -0.476 OA
ENDROOT
BRANCH   1   3
ATOM      2  N   UNL     1      33.514 -15.597 -25.539  0.00  0.00    -0.239 NA
ATOM      3  C   UNL     1      34.678 -16.094 -23.478  0.00  0.00    +0.158 C 
ATOM      4  C   UNL     1      33.461 -14.030 -23.698  0.00  0.00    +0.022 C 
ATOM      5  C   UNL     1      34.255 -14.884 -22.939  0.00  0.00    +0.040 C 
ATOM      6  C   UNL     1      34.284 -16.400 -24.771  0.00  0.00    +0.136 C 
ATOM      7  C   UNL     1      33.122 -14.429 -24.980  0.00  0.00    +0.099 C 
BRANCH   4  10
ATOM      8  N   UNL     1      31.889  -9.053 -21.844  0.00  0.00    -0.236 N 
ATOM      9  N   UNL     1      32.577  -8.189 -22.610  0.00  0.00    -0.180 NA
ATOM     10  C   UNL     1      33.006 -12.767 -23.165  0.00  0.00    +0.002 C 
ATOM     11  C   UNL     1      33.046 -10.356 -23.175  0.00  0.00    +0.035 C 
ATOM     12  C   UNL     1      33.500 -11.573 -23.708  0.00  0.00    +0.003 C 
ATOM     13  C   UNL     1      32.126 -10.370 -22.132  0.00  0.00    +0.067 C 
ATOM     14  C   UNL     1      32.083 -12.752 -22.119  0.00  0.00    +0.001 C 
ATOM     15  C   UNL     1      31.622 -11.548 -21.578  0.00  0.00    +0.016 C 
ATOM     16  C   UNL     1      33.278  -8.985 -23.418  0.00  0.00    +0.119 C 
ATOM     17  H   UNL     1      31.268  -8.764 -21.137  0.00  0.00    +0.174 HD
ENDBRANCH   4  10
ENDBRANCH   1   3
BRANCH   1  18
ATOM     18  C   UNL     1      35.304 -18.343 -23.023  0.00  0.00    +0.184 C 
BRANCH  18  19
ATOM     19  C   UNL     1      35.679 -19.173 -21.790  0.00  0.00    -0.017 C 
BRANCH  19  20
ATOM     20  N   UNL     1      36.961 -18.681 -21.278  0.00  0.00    +0.384 N 
ATOM     21  H   UNL     1      37.242 -17.852 -21.802  0.00  0.00    -0.089 HD
ATOM     22  H   UNL     1      37.670 -19.406 -21.384  0.00  0.00    -0.089 HD
ATOM     23  H   UNL     1      36.864 -18.442 -20.291  0.00  0.00    -0.089 HD
ENDBRANCH  19  20
BRANCH  19  24
ATOM     24  C   UNL     1      34.622 -19.097 -20.661  0.00  0.00    +0.006 C 
BRANCH  24  26
ATOM     25  N   UNL     1      32.773 -21.980 -19.116  0.00  0.00    -0.234 NA
ATOM     26  C   UNL     1      34.304 -20.391 -20.028  0.00  0.00    -0.024 C 
ATOM     27  C   UNL     1      35.007 -21.259 -19.300  0.00  0.00    +0.065 C 
ATOM     28  C   UNL     1      34.158 -22.407 -18.831  0.00  0.00    +0.122 C 
ATOM     29  C   UNL     1      32.943 -20.913 -19.841  0.00  0.00    +0.072 C 
ATOM     30  C   UNL     1      36.352 -21.159 -18.795  0.00  0.00    -0.020 C 
ATOM     31  C   UNL     1      34.426 -22.743 -17.390  0.00  0.00    -0.004 C 
ATOM     32  C   UNL     1      36.642 -21.748 -17.620  0.00  0.00    -0.004 C 
ATOM     33  C   UNL     1      35.619 -22.438 -16.846  0.00  0.00    -0.003 C 
ENDBRANCH  24  26
ENDBRANCH  19  24
ENDBRANCH  18  19
ENDBRANCH   1  18
TORSDOF 7
ENDMDL
MODEL 2
REMARK VINA RESULT:     -12.0      1.720     10.005
REMARK  Name = 49866474
REMARK  7 active torsions:
REMARK  status: ('A' for Active; 'I' for Inactive)
REMARK    1  A    between atoms: O_1  and  C_3
REMARK    2  A    between atoms: O_1  and  C_18
REMARK    3  A    between atoms: C_4  and  C_10
REMARK    4  A    between atoms: C_18  and  C_19
REMARK    5  A    between atoms: C_19  and  N_20
REMARK    6  A    between atoms: C_19  and  C_24
REMARK    7  A    between atoms: C_24  and  C_26
REMARK                            x       y       z     vdW  Elec       q    Type
REMARK                         _______ _______ _______ _____ _____    ______ ____
ROOT
ATOM      1  O   UNL     1      35.211 -14.871 -23.084  0.00  0.00    -0.476 OA
ENDROOT
BRANCH   1   3
ATOM      2  N   UNL     1      34.305 -18.097 -24.554  0.00  0.00    -0.239 NA
ATOM      3  C   UNL     1      35.004 -16.221 -23.197  0.00  0.00    +0.158 C 
ATOM      4  C   UNL     1      35.044 -18.443 -22.278  0.00  0.00    +0.022 C 
ATOM      5  C   UNL     1      35.263 -17.078 -22.133  0.00  0.00    +0.040 C 
ATOM      6  C   UNL     1      34.530 -16.775 -24.376  0.00  0.00    +0.136 C 
ATOM      7  C   UNL     1      34.569 -18.898 -23.497  0.00  0.00    +0.099 C 
BRANCH   4  10
ATOM      8  N   UNL     1      35.764 -22.036 -18.124  0.00  0.00    -0.236 N 
ATOM      9  N   UNL     1      34.559 -22.612 -17.980  0.00  0.00    -0.180 NA
ATOM     10  C   UNL     1      35.304 -19.358 -21.191  0.00  0.00    +0.002 C 
ATOM     11  C   UNL     1      34.543 -21.059 -19.661  0.00  0.00    +0.035 C 
ATOM     12  C   UNL     1      34.270 -20.178 -20.719  0.00  0.00    +0.003 C 
ATOM     13  C   UNL     1      35.822 -21.094 -19.115  0.00  0.00    +0.067 C 
ATOM     14  C   UNL     1      36.578 -19.414 -20.625  0.00  0.00    +0.001 C 
ATOM     15  C   UNL     1      36.865 -20.286 -19.571  0.00  0.00    +0.016 C 
ATOM     16  C   UNL     1      33.819 -22.016 -18.917  0.00  0.00    +0.119 C 
ATOM     17  H   UNL     1      36.539 -22.270 -17.564  0.00  0.00    +0.174 HD
ENDBRANCH   4  10
ENDBRANCH   1   3
BRANCH   1  18
ATOM     18  C   UNL     1      34.368 -14.165 -22.183  0.00  0.00    +0.184 C 
BRANCH  18  19
ATOM     19  C   UNL     1      33.657 -13.015 -22.904  0.00  0.00    -0.017 C 
BRANCH  19  20
ATOM     20  N   UNL     1      33.444 -13.409 -24.300  0.00  0.00    +0.384 N 
ATOM     21  H   UNL     1      32.464 -13.269 -24.548  0.00  0.00    -0.089 HD
ATOM     22  H   UNL     1      33.688 -14.392 -24.416  0.00  0.00    -0.089 HD
ATOM     23  H   UNL     1      34.033 -12.839 -24.908  0.00  0.00    -0.089 HD
ENDBRANCH  19  20
BRANCH  19  24
ATOM     24  C   UNL     1      32.293 -12.650 -22.269  0.00  0.00    +0.006 C 
BRANCH  24  26
ATOM     25  N   UNL     1      32.430  -8.925 -22.743  0.00  0.00    -0.234 NA
ATOM     26  C   UNL     1      32.044 -11.202 -22.137  0.00  0.00    -0.024 C 
ATOM     27  C   UNL     1      31.562 -10.435 -21.160  0.00  0.00    +0.065 C 
ATOM     28  C   UNL     1      31.591  -8.978 -21.529  0.00  0.00    +0.122 C 
ATOM     29  C   UNL     1      32.567 -10.182 -23.056  0.00  0.00    +0.072 C 
ATOM     30  C   UNL     1      31.194 -10.785 -19.812  0.00  0.00    -0.020 C 
ATOM     31  C   UNL     1      32.083  -8.127 -20.392  0.00  0.00    -0.004 C 
ATOM     32  C   UNL     1      31.364  -9.868 -18.841  0.00  0.00    -0.004 C 
ATOM     33  C   UNL     1      31.944  -8.563 -19.125  0.00  0.00    -0.003 C 
ENDBRANCH  24  26
ENDBRANCH  19  24
ENDBRANCH  18  19
ENDBRANCH   1  18
TORSDOF 7
ENDMDL
MODEL 3
REMARK VINA RESULT:     -11.6      1.829     10.739
REMARK  Name = 49866474
REMARK  7 active torsions:
REMARK  status: ('A' for Active; 'I' for Inactive)
REMARK    1  A    between atoms: O_1  and  C_3
REMARK    2  A    between atoms: O_1  and  C_18
REMARK    3  A    between atoms: C_4  and  C_10
REMARK    4  A    between atoms: C_18  and  C_19
REMARK    5  A    between atoms: C_19  and  N_20
REMARK    6  A    between atoms: C_19  and  C_24
REMARK    7  A    between atoms: C_24  and  C_26
REMARK                            x       y       z     vdW  Elec       q    Type
REMARK                         _______ _______ _______ _____ _____    ______ ____
ROOT
ATOM      1  O   UNL     1      34.601 -14.460 -23.155  0.00  0.00    -0.476 OA
ENDROOT
BRANCH   1   3
ATOM      2  N   UNL     1      34.242 -17.727 -24.762  0.00  0.00    -0.239 NA
ATOM      3  C   UNL     1      34.623 -15.819 -23.326  0.00  0.00    +0.158 C 
ATOM      4  C   UNL     1      35.041 -18.041 -22.502  0.00  0.00    +0.022 C 
ATOM      5  C   UNL     1      35.028 -16.665 -22.299  0.00  0.00    +0.040 C 
ATOM      6  C   UNL     1      34.242 -16.396 -24.527  0.00  0.00    +0.136 C 
ATOM      7  C   UNL     1      34.642 -18.517 -23.740  0.00  0.00    +0.099 C 
BRANCH   4  10
ATOM      8  N   UNL     1      36.368 -21.613 -18.482  0.00  0.00    -0.236 N 
ATOM      9  N   UNL     1      35.233 -22.302 -18.272  0.00  0.00    -0.180 NA
ATOM     10  C   UNL     1      35.456 -18.944 -21.454  0.00  0.00    +0.002 C 
ATOM     11  C   UNL     1      34.960 -20.731 -19.914  0.00  0.00    +0.035 C 
ATOM     12  C   UNL     1      34.536 -19.863 -20.933  0.00  0.00    +0.003 C 
ATOM     13  C   UNL     1      36.271 -20.655 -19.455  0.00  0.00    +0.067 C 
ATOM     14  C   UNL     1      36.766 -18.889 -20.976  0.00  0.00    +0.001 C 
ATOM     15  C   UNL     1      37.203 -19.747 -19.961  0.00  0.00    +0.016 C 
ATOM     16  C   UNL     1      34.380 -21.763 -19.145  0.00  0.00    +0.119 C 
ATOM     17  H   UNL     1      37.197 -21.783 -17.980  0.00  0.00    +0.174 HD
ENDBRANCH   4  10
ENDBRANCH   1   3
BRANCH   1  18
ATOM     18  C   UNL     1      33.738 -13.720 -24.008  0.00  0.00    +0.184 C 
BRANCH  18  19
ATOM     19  C   UNL     1      33.238 -12.456 -23.299  0.00  0.00    -0.017 C 
BRANCH  19  20
ATOM     20  N   UNL     1      33.330 -12.675 -21.852  0.00  0.00    +0.384 N 
ATOM     21  H   UNL     1      33.551 -11.794 -21.388  0.00  0.00    -0.089 HD
ATOM     22  H   UNL     1      34.063 -13.356 -21.657  0.00  0.00    -0.089 HD
ATOM     23  H   UNL     1      32.437 -13.027 -21.504  0.00  0.00    -0.089 HD
ENDBRANCH  19  20
BRANCH  19  24
ATOM     24  C   UNL     1      34.046 -11.189 -23.670  0.00  0.00    +0.006 C 
BRANCH  24  26
ATOM     25  N   UNL     1      31.492  -8.483 -23.153  0.00  0.00    -0.234 NA
ATOM     26  C   UNL     1      33.395  -9.916 -23.308  0.00  0.00    -0.024 C 
ATOM     27  C   UNL     1      33.838  -8.672 -23.130  0.00  0.00    +0.065 C 
ATOM     28  C   UNL     1      32.715  -7.717 -22.837  0.00  0.00    +0.122 C 
ATOM     29  C   UNL     1      31.943  -9.692 -23.321  0.00  0.00    +0.072 C 
ATOM     30  C   UNL     1      35.156  -8.127 -23.335  0.00  0.00    -0.020 C 
ATOM     31  C   UNL     1      32.864  -6.433 -23.604  0.00  0.00    -0.004 C 
ATOM     32  C   UNL     1      35.265  -6.846 -23.736  0.00  0.00    -0.004 C 
ATOM     33  C   UNL     1      34.087  -6.032 -24.000  0.00  0.00    -0.003 C 
ENDBRANCH  24  26
ENDBRANCH  19  24
ENDBRANCH  18  19
ENDBRANCH   1  18
TORSDOF 7
ENDMDL
MODEL 4
REMARK VINA RESULT:     -11.5      2.998     11.023
REMARK  Name = 49866474
REMARK  7 active torsions:
REMARK  status: ('A' for Active; 'I' for Inactive)
REMARK    1  A    between atoms: O_1  and  C_3
REMARK    2  A    between atoms: O_1  and  C_18
REMARK    3  A    between atoms: C_4  and  C_10
REMARK    4  A    between atoms: C_18  and  C_19
REMARK    5  A    between atoms: C_19  and  N_20
REMARK    6  A    between atoms: C_19  and  C_24
REMARK    7  A    between atoms: C_24  and  C_26
REMARK                            x       y       z     vdW  Elec       q    Type
REMARK                         _______ _______ _______ _____ _____    ______ ____
ROOT
ATOM      1  O   UNL     1      35.326 -20.509 -20.450  0.00  0.00    -0.476 OA
ENDROOT
BRANCH   1   3
ATOM      2  N   UNL     1      32.773 -22.327 -18.563  0.00  0.00    -0.239 NA
ATOM      3  C   UNL     1      34.743 -21.238 -19.447  0.00  0.00    +0.158 C 
ATOM      4  C   UNL     1      34.851 -22.371 -17.327  0.00  0.00    +0.022 C 
ATOM      5  C   UNL     1      35.470 -21.630 -18.329  0.00  0.00    +0.040 C 
ATOM      6  C   UNL     1      33.409 -21.608 -19.515  0.00  0.00    +0.136 C 
ATOM      7  C   UNL     1      33.513 -22.690 -17.491  0.00  0.00    +0.099 C 
BRANCH   4  10
ATOM      8  N   UNL     1      37.401 -24.092 -12.721  0.00  0.00    -0.236 N 
ATOM      9  N   UNL     1      36.419 -24.656 -11.998  0.00  0.00    -0.180 NA
ATOM     10  C   UNL     1      35.580 -22.793 -16.155  0.00  0.00    +0.002 C 
ATOM     11  C   UNL     1      35.627 -23.848 -13.987  0.00  0.00    +0.035 C 
ATOM     12  C   UNL     1      34.900 -23.447 -15.120  0.00  0.00    +0.003 C 
ATOM     13  C   UNL     1      36.991 -23.587 -13.926  0.00  0.00    +0.067 C 
ATOM     14  C   UNL     1      36.950 -22.543 -16.067  0.00  0.00    +0.001 C 
ATOM     15  C   UNL     1      37.688 -22.936 -14.946  0.00  0.00    +0.016 C 
ATOM     16  C   UNL     1      35.342 -24.507 -12.772  0.00  0.00    +0.119 C 
ATOM     17  H   UNL     1      38.334 -24.045 -12.411  0.00  0.00    +0.174 HD
ENDBRANCH   4  10
ENDBRANCH   1   3
BRANCH   1  18
ATOM     18  C   UNL     1      36.600 -19.941 -20.173  0.00  0.00    +0.184 C 
BRANCH  18  19
ATOM     19  C   UNL     1      36.753 -18.594 -20.888  0.00  0.00    -0.017 C 
BRANCH  19  20
ATOM     20  N   UNL     1      37.961 -18.649 -21.717  0.00  0.00    +0.384 N 
ATOM     21  H   UNL     1      38.429 -17.743 -21.696  0.00  0.00    -0.089 HD
ATOM     22  H   UNL     1      37.704 -18.877 -22.677  0.00  0.00    -0.089 HD
ATOM     23  H   UNL     1      38.590 -19.365 -21.354  0.00  0.00    -0.089 HD
ENDBRANCH  19  20
BRANCH  19  24
ATOM     24  C   UNL     1      35.541 -18.240 -21.785  0.00  0.00    +0.006 C 
BRANCH  24  26
ATOM     25  N   UNL     1      34.510 -14.724 -20.954  0.00  0.00    -0.234 NA
ATOM     26  C   UNL     1      35.247 -16.798 -21.880  0.00  0.00    -0.024 C 
ATOM     27  C   UNL     1      34.966 -15.979 -22.893  0.00  0.00    +0.065 C 
ATOM     28  C   UNL     1      34.667 -14.585 -22.417  0.00  0.00    +0.122 C 
ATOM     29  C   UNL     1      34.922 -15.939 -20.733  0.00  0.00    +0.072 C 
ATOM     30  C   UNL     1      34.759 -16.278 -24.287  0.00  0.00    -0.020 C 
ATOM     31  C   UNL     1      33.475 -14.001 -23.121  0.00  0.00    -0.004 C 
ATOM     32  C   UNL     1      33.892 -15.521 -24.984  0.00  0.00    -0.004 C 
ATOM     33  C   UNL     1      33.141 -14.448 -24.347  0.00  0.00    -0.003 C 
ENDBRANCH  24  26
ENDBRANCH  19  24
ENDBRANCH  18  19
ENDBRANCH   1  18
TORSDOF 7
ENDMDL
MODEL 5
REMARK VINA RESULT:     -11.2      2.162     10.362
REMARK  Name = 49866474
REMARK  7 active torsions:
REMARK  status: ('A' for Active; 'I' for Inactive)
REMARK    1  A    between atoms: O_1  and  C_3
REMARK    2  A    between atoms: O_1  and  C_18
REMARK    3  A    between atoms: C_4  and  C_10
REMARK    4  A    between atoms: C_18  and  C_19
REMARK    5  A    between atoms: C_19  and  N_20
REMARK    6  A    between atoms: C_19  and  C_24
REMARK    7  A    between atoms: C_24  and  C_26
REMARK                            x       y       z     vdW  Elec       q    Type
REMARK                         _______ _______ _______ _____ _____    ______ ____
ROOT
ATOM      1  O   UNL     1      34.444 -13.891 -22.189  0.00  0.00    -0.476 OA
ENDROOT
BRANCH   1   3
ATOM      2  N   UNL     1      34.558 -16.758 -24.459  0.00  0.00    -0.239 NA
ATOM      3  C   UNL     1      34.601 -15.180 -22.628  0.00  0.00    +0.158 C 
ATOM      4  C   UNL     1      35.106 -17.497 -22.223  0.00  0.00    +0.022 C 
ATOM      5  C   UNL     1      34.952 -16.199 -21.749  0.00  0.00    +0.040 C 
ATOM      6  C   UNL     1      34.417 -15.510 -23.961  0.00  0.00    +0.136 C 
ATOM      7  C   UNL     1      34.900 -17.722 -23.574  0.00  0.00    +0.099 C 
BRANCH   4  10
ATOM      8  N   UNL     1      36.225 -21.716 -18.813  0.00  0.00    -0.236 N 
ATOM      9  N   UNL     1      35.035 -22.312 -18.632  0.00  0.00    -0.180 NA
ATOM     10  C   UNL     1      35.470 -18.576 -21.335  0.00  0.00    +0.002 C 
ATOM     11  C   UNL     1      34.857 -20.506 -20.026  0.00  0.00    +0.035 C 
ATOM     12  C   UNL     1      34.482 -19.465 -20.890  0.00  0.00    +0.003 C 
ATOM     13  C   UNL     1      36.187 -20.625 -19.639  0.00  0.00    +0.067 C 
ATOM     14  C   UNL     1      36.798 -18.719 -20.931  0.00  0.00    +0.001 C 
ATOM     15  C   UNL     1      37.187 -19.750 -20.070  0.00  0.00    +0.016 C 
ATOM     16  C   UNL     1      34.205 -21.573 -19.372  0.00  0.00    +0.119 C 
ATOM     17  H   UNL     1      37.054 -22.036 -18.388  0.00  0.00    +0.174 HD
ENDBRANCH   4  10
ENDBRANCH   1   3
BRANCH   1  18
ATOM     18  C   UNL     1      33.407 -13.657 -21.245  0.00  0.00    +0.184 C 
BRANCH  18  19
ATOM     19  C   UNL     1      32.541 -12.470 -21.683  0.00  0.00    -0.017 C 
BRANCH  19  20
ATOM     20  N   UNL     1      31.613 -12.936 -22.718  0.00  0.00    +0.384 N 
ATOM     21  H   UNL     1      31.277 -13.869 -22.479  0.00  0.00    -0.089 HD
ATOM     22  H   UNL     1      32.094 -12.968 -23.617  0.00  0.00    -0.089 HD
ATOM     23  H   UNL     1      30.822 -12.295 -22.778  0.00  0.00    -0.089 HD
ENDBRANCH  19  20
BRANCH  19  24
ATOM     24  C   UNL     1      31.730 -11.846 -20.521  0.00  0.00    +0.006 C 
BRANCH  24  26
ATOM     25  N   UNL     1      32.197  -8.550 -18.781  0.00  0.00    -0.234 NA
ATOM     26  C   UNL     1      32.046 -10.434 -20.240  0.00  0.00    -0.024 C 
ATOM     27  C   UNL     1      32.136  -9.340 -20.997  0.00  0.00    +0.065 C 
ATOM     28  C   UNL     1      32.419  -8.115 -20.175  0.00  0.00    +0.122 C 
ATOM     29  C   UNL     1      32.079  -9.841 -18.896  0.00  0.00    +0.072 C 
ATOM     30  C   UNL     1      31.848  -9.166 -22.398  0.00  0.00    -0.020 C 
ATOM     31  C   UNL     1      31.575  -6.948 -20.608  0.00  0.00    -0.004 C 
ATOM     32  C   UNL     1      31.371  -7.977 -22.812  0.00  0.00    -0.004 C 
ATOM     33  C   UNL     1      31.108  -6.897 -21.870  0.00  0.00    -0.003 C 
ENDBRANCH  24  26
ENDBRANCH  19  24
ENDBRANCH  18  19
ENDBRANCH   1  18
TORSDOF 7
ENDMDL
MODEL 6
REMARK VINA RESULT:     -11.1      6.175     11.302
REMARK  Name = 49866474
REMARK  7 active torsions:
REMARK  status: ('A' for Active; 'I' for Inactive)
REMARK    1  A    between atoms: O_1  and  C_3
REMARK    2  A    between atoms: O_1  and  C_18
REMARK    3  A    between atoms: C_4  and  C_10
REMARK    4  A    between atoms: C_18  and  C_19
REMARK    5  A    between atoms: C_19  and  N_20
REMARK    6  A    between atoms: C_19  and  C_24
REMARK    7  A    between atoms: C_24  and  C_26
REMARK                            x       y       z     vdW  Elec       q    Type
REMARK                         _______ _______ _______ _____ _____    ______ ____
ROOT
ATOM      1  O   UNL     1      36.804 -23.360 -15.917  0.00  0.00    -0.476 OA
ENDROOT
BRANCH   1   3
ATOM      2  N   UNL     1      35.534 -24.009 -12.548  0.00  0.00    -0.239 NA
ATOM      3  C   UNL     1      35.919 -23.610 -14.902  0.00  0.00    +0.158 C 
ATOM      4  C   UNL     1      33.680 -23.972 -14.100  0.00  0.00    +0.022 C 
ATOM      5  C   UNL     1      34.555 -23.719 -15.151  0.00  0.00    +0.040 C 
ATOM      6  C   UNL     1      36.353 -23.763 -13.595  0.00  0.00    +0.136 C 
ATOM      7  C   UNL     1      34.215 -24.108 -12.829  0.00  0.00    +0.099 C 
BRANCH   4  10
ATOM      8  N   UNL     1      28.245 -24.195 -15.145  0.00  0.00    -0.236 N 
ATOM      9  N   UNL     1      28.039 -23.187 -16.009  0.00  0.00    -0.180 NA
ATOM     10  C   UNL     1      32.259 -24.090 -14.326  0.00  0.00    +0.002 C 
ATOM     11  C   UNL     1      30.241 -23.325 -15.402  0.00  0.00    +0.035 C 
ATOM     12  C   UNL     1      31.624 -23.194 -15.197  0.00  0.00    +0.003 C 
ATOM     13  C   UNL     1      29.546 -24.331 -14.741  0.00  0.00    +0.067 C 
ATOM     14  C   UNL     1      31.537 -25.091 -13.676  0.00  0.00    +0.001 C 
ATOM     15  C   UNL     1      30.159 -25.234 -13.870  0.00  0.00    +0.016 C 
ATOM     16  C   UNL     1      29.255 -22.661 -16.164  0.00  0.00    +0.119 C 
ATOM     17  H   UNL     1      27.523 -24.785 -14.829  0.00  0.00    +0.174 HD
ENDBRANCH   4  10
ENDBRANCH   1   3
BRANCH   1  18
ATOM     18  C   UNL     1      37.484 -22.112 -15.883  0.00  0.00    +0.184 C 
BRANCH  18  19
ATOM     19  C   UNL     1      36.834 -21.120 -16.853  0.00  0.00    -0.017 C 
BRANCH  19  20
ATOM     20  N   UNL     1      37.680 -19.925 -16.924  0.00  0.00    +0.384 N 
ATOM     21  H   UNL     1      38.526 -20.138 -17.454  0.00  0.00    -0.089 HD
ATOM     22  H   UNL     1      37.934 -19.632 -15.982  0.00  0.00    -0.089 HD
ATOM     23  H   UNL     1      37.169 -19.174 -17.388  0.00  0.00    -0.089 HD
ENDBRANCH  19  20
BRANCH  19  24
ATOM     24  C   UNL     1      36.651 -21.695 -18.279  0.00  0.00    +0.006 C 
BRANCH  24  26
ATOM     25  N   UNL     1      33.557 -20.862 -20.241  0.00  0.00    -0.234 NA
ATOM     26  C   UNL     1      35.652 -20.989 -19.103  0.00  0.00    -0.024 C 
ATOM     27  C   UNL     1      35.718 -19.972 -19.963  0.00  0.00    +0.065 C 
ATOM     28  C   UNL     1      34.386 -19.693 -20.599  0.00  0.00    +0.122 C 
ATOM     29  C   UNL     1      34.290 -21.477 -19.359  0.00  0.00    +0.072 C 
ATOM     30  C   UNL     1      36.869 -19.259 -20.456  0.00  0.00    -0.020 C 
ATOM     31  C   UNL     1      34.516 -19.448 -22.076  0.00  0.00    -0.004 C 
ATOM     32  C   UNL     1      36.833 -18.773 -21.711  0.00  0.00    -0.004 C 
ATOM     33  C   UNL     1      35.680 -18.992 -22.575  0.00  0.00    -0.003 C 
ENDBRANCH  24  26
ENDBRANCH  19  24
ENDBRANCH  18  19
ENDBRANCH   1  18
TORSDOF 7
ENDMDL
MODEL 7
REMARK VINA RESULT:     -11.0      1.614     10.173
REMARK  Name = 49866474
REMARK  7 active torsions:
REMARK  status: ('A' for Active; 'I' for Inactive)
REMARK    1  A    between atoms: O_1  and  C_3
REMARK    2  A    between atoms: O_1  and  C_18
REMARK    3  A    between atoms: C_4  and  C_10
REMARK    4  A    between atoms: C_18  and  C_19
REMARK    5  A    between atoms: C_19  and  N_20
REMARK    6  A    between atoms: C_19  and  C_24
REMARK    7  A    between atoms: C_24  and  C_26
REMARK                            x       y       z     vdW  Elec       q    Type
REMARK                         _______ _______ _______ _____ _____    ______ ____
ROOT
ATOM      1  O   UNL     1      35.309 -15.293 -22.666  0.00  0.00    -0.476 OA
ENDROOT
BRANCH   1   3
ATOM      2  N   UNL     1      34.501 -18.440 -24.348  0.00  0.00    -0.239 NA
ATOM      3  C   UNL     1      35.027 -16.622 -22.843  0.00  0.00    +0.158 C 
ATOM      4  C   UNL     1      34.690 -18.839 -21.971  0.00  0.00    +0.022 C 
ATOM      5  C   UNL     1      34.978 -17.494 -21.761  0.00  0.00    +0.040 C 
ATOM      6  C   UNL     1      34.783 -17.140 -24.105  0.00  0.00    +0.136 C 
ATOM      7  C   UNL     1      34.462 -19.258 -23.271  0.00  0.00    +0.099 C 
BRANCH   4  10
ATOM      8  N   UNL     1      34.755 -22.385 -17.717  0.00  0.00    -0.236 N 
ATOM      9  N   UNL     1      36.053 -22.461 -17.376  0.00  0.00    -0.180 NA
ATOM     10  C   UNL     1      34.632 -19.769 -20.868  0.00  0.00    +0.002 C 
ATOM     11  C   UNL     1      35.737 -21.037 -19.139  0.00  0.00    +0.035 C 
ATOM     12  C   UNL     1      35.815 -20.130 -20.209  0.00  0.00    +0.003 C 
ATOM     13  C   UNL     1      34.498 -21.547 -18.768  0.00  0.00    +0.067 C 
ATOM     14  C   UNL     1      33.402 -20.297 -20.474  0.00  0.00    +0.001 C 
ATOM     15  C   UNL     1      33.308 -21.201 -19.411  0.00  0.00    +0.016 C 
ATOM     16  C   UNL     1      36.646 -21.639 -18.244  0.00  0.00    +0.119 C 
ATOM     17  H   UNL     1      34.049 -22.889 -17.250  0.00  0.00    +0.174 HD
ENDBRANCH   4  10
ENDBRANCH   1   3
BRANCH   1  18
ATOM     18  C   UNL     1      34.401 -14.545 -21.869  0.00  0.00    +0.184 C 
BRANCH  18  19
ATOM     19  C   UNL     1      33.803 -13.389 -22.679  0.00  0.00    -0.017 C 
BRANCH  19  20
ATOM     20  N   UNL     1      33.753 -13.793 -24.088  0.00  0.00    +0.384 N 
ATOM     21  H   UNL     1      32.876 -13.477 -24.502  0.00  0.00    -0.089 HD
ATOM     22  H   UNL     1      33.814 -14.808 -24.152  0.00  0.00    -0.089 HD
ATOM     23  H   UNL     1      34.536 -13.373 -24.589  0.00  0.00    -0.089 HD
ENDBRANCH  19  20
BRANCH  19  24
ATOM     24  C   UNL     1      32.379 -12.994 -22.217  0.00  0.00    +0.006 C 
BRANCH  24  26
ATOM     25  N   UNL     1      31.368  -9.915 -20.316  0.00  0.00    -0.234 NA
ATOM     26  C   UNL     1      32.243 -11.596 -21.768  0.00  0.00    -0.024 C 
ATOM     27  C   UNL     1      32.412 -10.416 -22.365  0.00  0.00    +0.065 C 
ATOM     28  C   UNL     1      32.059  -9.275 -21.453  0.00  0.00    +0.122 C 
ATOM     29  C   UNL     1      31.583 -11.182 -20.523  0.00  0.00    +0.072 C 
ATOM     30  C   UNL     1      32.710 -10.116 -23.743  0.00  0.00    -0.020 C 
ATOM     31  C   UNL     1      31.253  -8.224 -22.164  0.00  0.00    -0.004 C 
ATOM     32  C   UNL     1      32.214  -8.983 -24.275  0.00  0.00    -0.004 C 
ATOM     33  C   UNL     1      31.360  -8.093 -23.500  0.00  0.00    -0.003 C 
ENDBRANCH  24  26
ENDBRANCH  19  24
ENDBRANCH  18  19
ENDBRANCH   1  18
TORSDOF 7
ENDMDL
MODEL 8
REMARK VINA RESULT:     -11.0      3.699      6.597
REMARK  Name = 49866474
REMARK  7 active torsions:
REMARK  status: ('A' for Active; 'I' for Inactive)
REMARK    1  A    between atoms: O_1  and  C_3
REMARK    2  A    between atoms: O_1  and  C_18
REMARK    3  A    between atoms: C_4  and  C_10
REMARK    4  A    between atoms: C_18  and  C_19
REMARK    5  A    between atoms: C_19  and  N_20
REMARK    6  A    between atoms: C_19  and  C_24
REMARK    7  A    between atoms: C_24  and  C_26
REMARK                            x       y       z     vdW  Elec       q    Type
REMARK                         _______ _______ _______ _____ _____    ______ ____
ROOT
ATOM      1  O   UNL     1      31.586 -12.281 -20.713  0.00  0.00    -0.476 OA
ENDROOT
BRANCH   1   3
ATOM      2  N   UNL     1      32.396  -9.426 -18.574  0.00  0.00    -0.239 NA
ATOM      3  C   UNL     1      31.751 -10.982 -20.309  0.00  0.00    +0.158 C 
ATOM      4  C   UNL     1      31.645  -8.615 -20.725  0.00  0.00    +0.022 C 
ATOM      5  C   UNL     1      31.465  -9.923 -21.163  0.00  0.00    +0.040 C 
ATOM      6  C   UNL     1      32.210 -10.683 -19.036  0.00  0.00    +0.136 C 
ATOM      7  C   UNL     1      32.108  -8.422 -19.434  0.00  0.00    +0.099 C 
BRANCH   4  10
ATOM      8  N   UNL     1      30.533  -4.148 -23.804  0.00  0.00    -0.236 N 
ATOM      9  N   UNL     1      30.456  -3.148 -22.910  0.00  0.00    -0.180 NA
ATOM     10  C   UNL     1      31.357  -7.495 -21.589  0.00  0.00    +0.002 C 
ATOM     11  C   UNL     1      30.915  -5.143 -21.889  0.00  0.00    +0.035 C 
ATOM     12  C   UNL     1      31.196  -6.219 -21.031  0.00  0.00    +0.003 C 
ATOM     13  C   UNL     1      30.805  -5.372 -23.256  0.00  0.00    +0.067 C 
ATOM     14  C   UNL     1      31.242  -7.696 -22.964  0.00  0.00    +0.001 C 
ATOM     15  C   UNL     1      30.962  -6.634 -23.831  0.00  0.00    +0.016 C 
ATOM     16  C   UNL     1      30.689  -3.757 -21.747  0.00  0.00    +0.119 C 
ATOM     17  H   UNL     1      30.404  -4.012 -24.771  0.00  0.00    +0.174 HD
ENDBRANCH   4  10
ENDBRANCH   1   3
BRANCH   1  18
ATOM     18  C   UNL     1      32.745 -13.104 -20.721  0.00  0.00    +0.184 C 
BRANCH  18  19
ATOM     19  C   UNL     1      33.126 -13.479 -22.158  0.00  0.00    -0.017 C 
BRANCH  19  20
ATOM     20  N   UNL     1      33.173 -12.251 -22.956  0.00  0.00    +0.384 N 
ATOM     21  H   UNL     1      33.769 -12.397 -23.771  0.00  0.00    -0.089 HD
ATOM     22  H   UNL     1      33.550 -11.492 -22.390  0.00  0.00    -0.089 HD
ATOM     23  H   UNL     1      32.230 -12.010 -23.264  0.00  0.00    -0.089 HD
ENDBRANCH  19  20
BRANCH  19  24
ATOM     24  C   UNL     1      34.494 -14.198 -22.256  0.00  0.00    +0.006 C 
BRANCH  24  26
ATOM     25  N   UNL     1      33.761 -16.441 -25.180  0.00  0.00    -0.234 NA
ATOM     26  C   UNL     1      34.537 -15.308 -23.227  0.00  0.00    -0.024 C 
ATOM     27  C   UNL     1      34.991 -16.560 -23.176  0.00  0.00    +0.065 C 
ATOM     28  C   UNL     1      34.710 -17.306 -24.450  0.00  0.00    +0.122 C 
ATOM     29  C   UNL     1      33.783 -15.339 -24.487  0.00  0.00    +0.072 C 
ATOM     30  C   UNL     1      35.534 -17.297 -22.064  0.00  0.00    -0.020 C 
ATOM     31  C   UNL     1      34.209 -18.697 -24.180  0.00  0.00    -0.004 C 
ATOM     32  C   UNL     1      35.323 -18.625 -22.011  0.00  0.00    -0.004 C 
ATOM     33  C   UNL     1      34.531 -19.308 -23.025  0.00  0.00    -0.003 C 
ENDBRANCH  24  26
ENDBRANCH  19  24
ENDBRANCH  18  19
ENDBRANCH   1  18
TORSDOF 7
ENDMDL
MODEL 9
REMARK VINA RESULT:     -11.0      5.341      9.072
REMARK  Name = 49866474
REMARK  7 active torsions:
REMARK  status: ('A' for Active; 'I' for Inactive)
REMARK    1  A    between atoms: O_1  and  C_3
REMARK    2  A    between atoms: O_1  and  C_18
REMARK    3  A    between atoms: C_4  and  C_10
REMARK    4  A    between atoms: C_18  and  C_19
REMARK    5  A    between atoms: C_19  and  N_20
REMARK    6  A    between atoms: C_19  and  C_24
REMARK    7  A    between atoms: C_24  and  C_26
REMARK                            x       y       z     vdW  Elec       q    Type
REMARK                         _______ _______ _______ _____ _____    ______ ____
ROOT
ATOM      1  O   UNL     1      35.179 -23.804 -15.734  0.00  0.00    -0.476 OA
ENDROOT
BRANCH   1   3
ATOM      2  N   UNL     1      32.384 -22.713 -17.828  0.00  0.00    -0.239 NA
ATOM      3  C   UNL     1      34.490 -23.152 -16.723  0.00  0.00    +0.158 C 
ATOM      4  C   UNL     1      34.413 -21.647 -18.599  0.00  0.00    +0.022 C 
ATOM      5  C   UNL     1      35.139 -22.296 -17.606  0.00  0.00    +0.040 C 
ATOM      6  C   UNL     1      33.123 -23.325 -16.876  0.00  0.00    +0.136 C 
ATOM      7  C   UNL     1      33.050 -21.887 -18.667  0.00  0.00    +0.099 C 
BRANCH   4  10
ATOM      8  N   UNL     1      36.640 -18.189 -22.308  0.00  0.00    -0.236 N 
ATOM      9  N   UNL     1      35.616 -17.882 -23.122  0.00  0.00    -0.180 NA
ATOM     10  C   UNL     1      35.059 -20.752 -19.529  0.00  0.00    +0.002 C 
ATOM     11  C   UNL     1      34.961 -19.322 -21.469  0.00  0.00    +0.035 C 
ATOM     12  C   UNL     1      34.313 -20.189 -20.574  0.00  0.00    +0.003 C 
ATOM     13  C   UNL     1      36.313 -19.049 -21.295  0.00  0.00    +0.067 C 
ATOM     14  C   UNL     1      36.415 -20.460 -19.378  0.00  0.00    +0.001 C 
ATOM     15  C   UNL     1      37.074 -19.599 -20.262  0.00  0.00    +0.016 C 
ATOM     16  C   UNL     1      34.597 -18.573 -22.608  0.00  0.00    +0.119 C 
ATOM     17  H   UNL     1      37.547 -17.826 -22.429  0.00  0.00    +0.174 HD
ENDBRANCH   4  10
ENDBRANCH   1   3
BRANCH   1  18
ATOM     18  C   UNL     1      35.007 -23.322 -14.408  0.00  0.00    +0.184 C 
BRANCH  18  19
ATOM     19  C   UNL     1      33.956 -24.157 -13.667  0.00  0.00    -0.017 C 
BRANCH  19  20
ATOM     20  N   UNL     1      34.547 -24.632 -12.413  0.00  0.00    +0.384 N 
ATOM     21  H   UNL     1      34.736 -25.632 -12.483  0.00  0.00    -0.089 HD
ATOM     22  H   UNL     1      33.899 -24.461 -11.645  0.00  0.00    -0.089 HD
ATOM     23  H   UNL     1      35.420 -24.133 -12.239  0.00  0.00    -0.089 HD
ENDBRANCH  19  20
BRANCH  19  24
ATOM     24  C   UNL     1      32.664 -23.364 -13.348  0.00  0.00    +0.006 C 
BRANCH  24  26
ATOM     25  N   UNL     1      30.169 -26.021 -14.259  0.00  0.00    -0.234 NA
ATOM     26  C   UNL     1      31.413 -24.062 -13.696  0.00  0.00    -0.024 C 
ATOM     27  C   UNL     1      30.254 -23.669 -14.226  0.00  0.00    +0.065 C 
ATOM     28  C   UNL     1      29.321 -24.826 -14.447  0.00  0.00    +0.122 C 
ATOM     29  C   UNL     1      31.269 -25.522 -13.773  0.00  0.00    +0.072 C 
ATOM     30  C   UNL     1      29.868 -22.380 -14.739  0.00  0.00    -0.020 C 
ATOM     31  C   UNL     1      28.642 -24.745 -15.785  0.00  0.00    -0.004 C 
ATOM     32  C   UNL     1      28.998 -22.331 -15.765  0.00  0.00    -0.004 C 
ATOM     33  C   UNL     1      28.482 -23.548 -16.379  0.00  0.00    -0.003 C 
ENDBRANCH  24  26
ENDBRANCH  19  24
ENDBRANCH  18  19
ENDBRANCH   1  18
TORSDOF 7
ENDMDL
