MODEL 1
REMARK VINA RESULT:     -12.1      0.000      0.000
REMARK  Name = 5287728
REMARK  9 active torsions:
REMARK  status: ('A' for Active; 'I' for Inactive)
REMARK    1  A    between atoms: S_1  and  N_4
REMARK    2  A    between atoms: S_1  and  N_22
REMARK    3  A    between atoms: C_5  and  N_10
REMARK    4  A    between atoms: N_10  and  C_13
REMARK    5  A    between atoms: C_13  and  C_14
REMARK    6  A    between atoms: C_15  and  O_20
REMARK    7  A    between atoms: N_22  and  C_24
REMARK    8  A    between atoms: C_27  and  O_30
REMARK    9  A    between atoms: O_30  and  C_32
REMARK                            x       y       z     vdW  Elec       q    Type
REMARK                         _______ _______ _______ _____ _____    ______ ____
ROOT
ATOM      1  S   UNL     1      33.315 -13.444 -23.439  0.00  0.00    +0.113 S 
ATOM      2  O   UNL     1      34.181 -12.310 -23.171  0.00  0.00    -0.138 OA
ATOM      3  O   UNL     1      33.005 -13.815 -24.808  0.00  0.00    -0.138 OA
ENDROOT
BRANCH   1   4
ATOM      4  N   UNL     1      33.966 -14.812 -22.637  0.00  0.00    -0.143 NA
ATOM      5  C   UNL     1      35.664 -16.815 -21.386  0.00  0.00    -0.059 C 
ATOM      6  C   UNL     1      35.035 -17.032 -22.767  0.00  0.00    -0.002 C 
ATOM      7  C   UNL     1      34.810 -15.845 -20.562  0.00  0.00    -0.002 C 
ATOM      8  C   UNL     1      34.815 -15.702 -23.484  0.00  0.00    +0.095 C 
ATOM      9  C   UNL     1      34.592 -14.534 -21.311  0.00  0.00    +0.095 C 
BRANCH   5  10
ATOM     10  N   UNL     1      35.790 -18.091 -20.687  0.00  0.00    +0.388 N 
ATOM     11  H   UNL     1      35.510 -17.969 -19.714  0.00  0.00    -0.084 HD
ATOM     12  H   UNL     1      36.761 -18.400 -20.742  0.00  0.00    -0.084 HD
BRANCH  10  13
ATOM     13  C   UNL     1      34.943 -19.102 -21.303  0.00  0.00    -0.051 C 
BRANCH  13  14
ATOM     14  C   UNL     1      34.536 -20.166 -20.319  0.00  0.00    -0.010 C 
ATOM     15  C   UNL     1      35.499 -20.921 -19.663  0.00  0.00    +0.128 C 
ATOM     16  C   UNL     1      33.183 -20.377 -20.084  0.00  0.00    -0.003 C 
ATOM     17  C   UNL     1      35.104 -21.902 -18.755  0.00  0.00    +0.036 C 
ATOM     18  C   UNL     1      32.788 -21.360 -19.176  0.00  0.00    -0.000 C 
ATOM     19  C   UNL     1      33.748 -22.122 -18.512  0.00  0.00    +0.003 C 
BRANCH  15  20
ATOM     20  O   UNL     1      36.828 -20.719 -19.889  0.00  0.00    -0.506 OA
ATOM     21  H   UNL     1      37.355 -21.412 -20.234  0.00  0.00    +0.292 HD
ENDBRANCH  15  20
ENDBRANCH  13  14
ENDBRANCH  10  13
ENDBRANCH   5  10
ENDBRANCH   1   4
BRANCH   1  22
ATOM     22  N   UNL     1      31.858 -13.211 -22.544  0.00  0.00    -0.205 N 
ATOM     23  H   UNL     1      31.100 -13.835 -22.620  0.00  0.00    +0.175 HD
BRANCH  22  24
ATOM     24  C   UNL     1      31.802 -12.060 -21.681  0.00  0.00    +0.069 C 
ATOM     25  C   UNL     1      31.600 -10.800 -22.230  0.00  0.00    +0.053 C 
ATOM     26  C   UNL     1      31.952 -12.224 -20.309  0.00  0.00    +0.016 C 
ATOM     27  C   UNL     1      31.548  -9.686 -21.392  0.00  0.00    +0.147 C 
ATOM     28  C   UNL     1      31.900 -11.109 -19.473  0.00  0.00    +0.004 C 
ATOM     29  C   UNL     1      31.697  -9.841 -20.014  0.00  0.00    +0.038 C 
BRANCH  27  30
ATOM     30  O   UNL     1      31.352  -8.447 -21.921  0.00  0.00    -0.453 OA
BRANCH  30  32
ATOM     31  F   UNL     1      35.585  -6.063 -24.480  0.00  0.00    -0.204 F 
ATOM     32  C   UNL     1      32.420  -7.846 -22.566  0.00  0.00    +0.145 C 
ATOM     33  C   UNL     1      33.595  -7.632 -21.869  0.00  0.00    +0.040 C 
ATOM     34  C   UNL     1      32.283  -7.474 -23.891  0.00  0.00    +0.040 C 
ATOM     35  C   UNL     1      34.670  -7.027 -22.519  0.00  0.00    +0.033 C 
ATOM     36  C   UNL     1      33.358  -6.868 -24.541  0.00  0.00    +0.033 C 
ATOM     37  C   UNL     1      34.552  -6.645 -23.855  0.00  0.00    +0.140 C 
ENDBRANCH  30  32
ENDBRANCH  27  30
ENDBRANCH  22  24
ENDBRANCH   1  22
TORSDOF 9
ENDMDL
MODEL 2
REMARK VINA RESULT:     -12.0      3.527      6.477
REMARK  Name = 5287728
REMARK  9 active torsions:
REMARK  status: ('A' for Active; 'I' for Inactive)
REMARK    1  A    between atoms: S_1  and  N_4
REMARK    2  A    between atoms: S_1  and  N_22
REMARK    3  A    between atoms: C_5  and  N_10
REMARK    4  A    between atoms: N_10  and  C_13
REMARK    5  A    between atoms: C_13  and  C_14
REMARK    6  A    between atoms: C_15  and  O_20
REMARK    7  A    between atoms: N_22  and  C_24
REMARK    8  A    between atoms: C_27  and  O_30
REMARK    9  A    between atoms: O_30  and  C_32
REMARK                            x       y       z     vdW  Elec       q    Type
REMARK                         _______ _______ _______ _____ _____    ______ ____
ROOT
ATOM      1  S   UNL     1      36.182 -18.543 -20.894  0.00  0.00    +0.113 S 
ATOM      2  O   UNL     1      35.630 -17.288 -20.417  0.00  0.00    -0.138 OA
ATOM      3  O   UNL     1      37.615 -18.771 -20.853  0.00  0.00    -0.138 OA
ENDROOT
BRANCH   1   4
ATOM      4  N   UNL     1      35.402 -19.820 -20.056  0.00  0.00    -0.143 NA
ATOM      5  C   UNL     1      34.182 -22.323 -19.219  0.00  0.00    -0.059 C 
ATOM      6  C   UNL     1      33.344 -21.092 -19.578  0.00  0.00    -0.002 C 
ATOM      7  C   UNL     1      35.571 -21.895 -18.732  0.00  0.00    -0.002 C 
ATOM      8  C   UNL     1      34.068 -20.214 -20.596  0.00  0.00    +0.095 C 
ATOM      9  C   UNL     1      36.262 -21.005 -19.761  0.00  0.00    +0.095 C 
BRANCH   5  10
ATOM     10  N   UNL     1      33.507 -23.104 -18.185  0.00  0.00    +0.388 N 
ATOM     11  H   UNL     1      33.640 -24.098 -18.376  0.00  0.00    -0.084 HD
ATOM     12  H   UNL     1      32.515 -22.870 -18.193  0.00  0.00    -0.084 HD
BRANCH  10  13
ATOM     13  C   UNL     1      34.049 -22.796 -16.870  0.00  0.00    -0.051 C 
BRANCH  13  14
ATOM     14  C   UNL     1      33.136 -23.257 -15.765  0.00  0.00    -0.010 C 
ATOM     15  C   UNL     1      31.767 -23.036 -15.848  0.00  0.00    +0.128 C 
ATOM     16  C   UNL     1      33.688 -23.905 -14.667  0.00  0.00    -0.003 C 
ATOM     17  C   UNL     1      30.936 -23.469 -14.817  0.00  0.00    +0.036 C 
ATOM     18  C   UNL     1      32.855 -24.338 -13.634  0.00  0.00    -0.000 C 
ATOM     19  C   UNL     1      31.481 -24.121 -13.709  0.00  0.00    +0.003 C 
BRANCH  15  20
ATOM     20  O   UNL     1      31.220 -22.401 -16.923  0.00  0.00    -0.506 OA
ATOM     21  H   UNL     1      31.363 -21.483 -17.049  0.00  0.00    +0.292 HD
ENDBRANCH  15  20
ENDBRANCH  13  14
ENDBRANCH  10  13
ENDBRANCH   5  10
ENDBRANCH   1   4
BRANCH   1  22
ATOM     22  N   UNL     1      35.588 -18.800 -22.494  0.00  0.00    -0.205 N 
ATOM     23  H   UNL     1      35.630 -19.684 -22.925  0.00  0.00    +0.175 HD
BRANCH  22  24
ATOM     24  C   UNL     1      35.027 -17.658 -23.170  0.00  0.00    +0.069 C 
ATOM     25  C   UNL     1      35.225 -16.386 -22.647  0.00  0.00    +0.053 C 
ATOM     26  C   UNL     1      34.296 -17.842 -24.337  0.00  0.00    +0.016 C 
ATOM     27  C   UNL     1      34.680 -15.281 -23.302  0.00  0.00    +0.147 C 
ATOM     28  C   UNL     1      33.753 -16.737 -24.990  0.00  0.00    +0.004 C 
ATOM     29  C   UNL     1      33.945 -15.457 -24.474  0.00  0.00    +0.038 C 
BRANCH  27  30
ATOM     30  O   UNL     1      34.867 -14.031 -22.796  0.00  0.00    -0.453 OA
BRANCH  30  32
ATOM     31  F   UNL     1      30.505 -11.455 -20.678  0.00  0.00    -0.204 F 
ATOM     32  C   UNL     1      33.767 -13.381 -22.262  0.00  0.00    +0.145 C 
ATOM     33  C   UNL     1      33.287 -12.244 -22.886  0.00  0.00    +0.040 C 
ATOM     34  C   UNL     1      33.176 -13.887 -21.118  0.00  0.00    +0.040 C 
ATOM     35  C   UNL     1      32.179 -11.590 -22.348  0.00  0.00    +0.033 C 
ATOM     36  C   UNL     1      32.068 -13.232 -20.579  0.00  0.00    +0.033 C 
ATOM     37  C   UNL     1      31.570 -12.084 -21.195  0.00  0.00    +0.140 C 
ENDBRANCH  30  32
ENDBRANCH  27  30
ENDBRANCH  22  24
ENDBRANCH   1  22
TORSDOF 9
ENDMDL
MODEL 3
REMARK VINA RESULT:     -11.8      6.022     12.842
REMARK  Name = 5287728
REMARK  9 active torsions:
REMARK  status: ('A' for Active; 'I' for Inactive)
REMARK    1  A    between atoms: S_1  and  N_4
REMARK    2  A    between atoms: S_1  and  N_22
REMARK    3  A    between atoms: C_5  and  N_10
REMARK    4  A    between atoms: N_10  and  C_13
REMARK    5  A    between atoms: C_13  and  C_14
REMARK    6  A    between atoms: C_15  and  O_20
REMARK    7  A    between atoms: N_22  and  C_24
REMARK    8  A    between atoms: C_27  and  O_30
REMARK    9  A    between atoms: O_30  and  C_32
REMARK                            x       y       z     vdW  Elec       q    Type
REMARK                         _______ _______ _______ _____ _____    ______ ____
ROOT
ATOM      1  S   UNL     1      33.628 -22.968 -17.865  0.00  0.00    +0.113 S 
ATOM      2  O   UNL     1      32.363 -22.564 -17.279  0.00  0.00    -0.138 OA
ATOM      3  O   UNL     1      33.791 -24.312 -18.388  0.00  0.00    -0.138 OA
ENDROOT
BRANCH   1   4
ATOM      4  N   UNL     1      34.022 -21.849 -19.103  0.00  0.00    -0.143 NA
ATOM      5  C   UNL     1      34.701 -19.507 -20.687  0.00  0.00    -0.059 C 
ATOM      6  C   UNL     1      33.294 -20.114 -20.698  0.00  0.00    -0.002 C 
ATOM      7  C   UNL     1      35.738 -20.580 -20.340  0.00  0.00    -0.002 C 
ATOM      8  C   UNL     1      32.986 -20.809 -19.374  0.00  0.00    +0.095 C 
ATOM      9  C   UNL     1      35.395 -21.269 -19.023  0.00  0.00    +0.095 C 
BRANCH   5  10
ATOM     10  N   UNL     1      35.003 -18.920 -21.990  0.00  0.00    +0.388 N 
ATOM     11  H   UNL     1      34.140 -18.569 -22.407  0.00  0.00    -0.084 HD
ATOM     12  H   UNL     1      35.419 -19.636 -22.584  0.00  0.00    -0.084 HD
BRANCH  10  13
ATOM     13  C   UNL     1      35.947 -17.821 -21.853  0.00  0.00    -0.051 C 
BRANCH  13  14
ATOM     14  C   UNL     1      35.255 -16.484 -21.853  0.00  0.00    -0.010 C 
ATOM     15  C   UNL     1      34.964 -15.844 -23.051  0.00  0.00    +0.128 C 
ATOM     16  C   UNL     1      34.916 -15.906 -20.636  0.00  0.00    -0.003 C 
ATOM     17  C   UNL     1      34.322 -14.606 -23.032  0.00  0.00    +0.036 C 
ATOM     18  C   UNL     1      34.274 -14.667 -20.617  0.00  0.00    -0.000 C 
ATOM     19  C   UNL     1      33.978 -14.018 -21.815  0.00  0.00    +0.003 C 
BRANCH  15  20
ATOM     20  O   UNL     1      35.293 -16.405 -24.248  0.00  0.00    -0.506 OA
ATOM     21  H   UNL     1      35.921 -15.988 -24.804  0.00  0.00    +0.292 HD
ENDBRANCH  15  20
ENDBRANCH  13  14
ENDBRANCH  10  13
ENDBRANCH   5  10
ENDBRANCH   1   4
BRANCH   1  22
ATOM     22  N   UNL     1      34.869 -22.625 -16.716  0.00  0.00    -0.205 N 
ATOM     23  H   UNL     1      35.614 -22.016 -16.927  0.00  0.00    +0.175 HD
BRANCH  22  24
ATOM     24  C   UNL     1      34.764 -23.271 -15.433  0.00  0.00    +0.069 C 
ATOM     25  C   UNL     1      33.546 -23.274 -14.765  0.00  0.00    +0.053 C 
ATOM     26  C   UNL     1      35.881 -23.883 -14.880  0.00  0.00    +0.016 C 
ATOM     27  C   UNL     1      33.445 -23.899 -13.522  0.00  0.00    +0.147 C 
ATOM     28  C   UNL     1      35.780 -24.508 -13.637  0.00  0.00    +0.004 C 
ATOM     29  C   UNL     1      34.562 -24.516 -12.959  0.00  0.00    +0.038 C 
BRANCH  27  30
ATOM     30  O   UNL     1      32.257 -23.905 -12.858  0.00  0.00    -0.453 OA
BRANCH  30  32
ATOM     31  F   UNL     1      27.660 -24.000 -15.860  0.00  0.00    -0.204 F 
ATOM     32  C   UNL     1      31.097 -23.929 -13.615  0.00  0.00    +0.145 C 
ATOM     33  C   UNL     1      30.491 -25.144 -13.882  0.00  0.00    +0.040 C 
ATOM     34  C   UNL     1      30.575 -22.738 -14.085  0.00  0.00    +0.040 C 
ATOM     35  C   UNL     1      29.324 -25.168 -14.644  0.00  0.00    +0.033 C 
ATOM     36  C   UNL     1      29.408 -22.762 -14.848  0.00  0.00    +0.033 C 
ATOM     37  C   UNL     1      28.782 -23.977 -15.127  0.00  0.00    +0.140 C 
ENDBRANCH  30  32
ENDBRANCH  27  30
ENDBRANCH  22  24
ENDBRANCH   1  22
TORSDOF 9
ENDMDL
MODEL 4
REMARK VINA RESULT:     -11.5      5.934     12.805
REMARK  Name = 5287728
REMARK  9 active torsions:
REMARK  status: ('A' for Active; 'I' for Inactive)
REMARK    1  A    between atoms: S_1  and  N_4
REMARK    2  A    between atoms: S_1  and  N_22
REMARK    3  A    between atoms: C_5  and  N_10
REMARK    4  A    between atoms: N_10  and  C_13
REMARK    5  A    between atoms: C_13  and  C_14
REMARK    6  A    between atoms: C_15  and  O_20
REMARK    7  A    between atoms: N_22  and  C_24
REMARK    8  A    between atoms: C_27  and  O_30
REMARK    9  A    between atoms: O_30  and  C_32
REMARK                            x       y       z     vdW  Elec       q    Type
REMARK                         _______ _______ _______ _____ _____    ______ ____
ROOT
ATOM      1  S   UNL     1      33.944 -23.096 -17.912  0.00  0.00    +0.113 S 
ATOM      2  O   UNL     1      33.744 -24.373 -18.573  0.00  0.00    -0.138 OA
ATOM      3  O   UNL     1      34.959 -22.961 -16.882  0.00  0.00    -0.138 OA
ENDROOT
BRANCH   1   4
ATOM      4  N   UNL     1      34.232 -21.912 -19.119  0.00  0.00    -0.143 NA
ATOM      5  C   UNL     1      34.716 -19.478 -20.634  0.00  0.00    -0.059 C 
ATOM      6  C   UNL     1      33.351 -20.173 -20.630  0.00  0.00    -0.002 C 
ATOM      7  C   UNL     1      35.829 -20.494 -20.354  0.00  0.00    -0.002 C 
ATOM      8  C   UNL     1      33.125 -20.932 -19.324  0.00  0.00    +0.095 C 
ATOM      9  C   UNL     1      35.567 -21.248 -19.053  0.00  0.00    +0.095 C 
BRANCH   5  10
ATOM     10  N   UNL     1      34.944 -18.828 -21.922  0.00  0.00    +0.388 N 
ATOM     11  H   UNL     1      34.058 -18.461 -22.273  0.00  0.00    -0.084 HD
ATOM     12  H   UNL     1      35.327 -19.513 -22.573  0.00  0.00    -0.084 HD
BRANCH  10  13
ATOM     13  C   UNL     1      35.893 -17.732 -21.786  0.00  0.00    -0.051 C 
BRANCH  13  14
ATOM     14  C   UNL     1      35.209 -16.392 -21.818  0.00  0.00    -0.010 C 
ATOM     15  C   UNL     1      34.936 -15.772 -23.031  0.00  0.00    +0.128 C 
ATOM     16  C   UNL     1      34.859 -15.789 -20.616  0.00  0.00    -0.003 C 
ATOM     17  C   UNL     1      34.302 -14.530 -23.043  0.00  0.00    +0.036 C 
ATOM     18  C   UNL     1      34.225 -14.546 -20.629  0.00  0.00    -0.000 C 
ATOM     19  C   UNL     1      33.947 -13.918 -21.841  0.00  0.00    +0.003 C 
BRANCH  15  20
ATOM     20  O   UNL     1      35.276 -16.357 -24.214  0.00  0.00    -0.506 OA
ATOM     21  H   UNL     1      35.419 -15.829 -24.975  0.00  0.00    +0.292 HD
ENDBRANCH  15  20
ENDBRANCH  13  14
ENDBRANCH  10  13
ENDBRANCH   5  10
ENDBRANCH   1   4
BRANCH   1  22
ATOM     22  N   UNL     1      32.414 -22.574 -17.309  0.00  0.00    -0.205 N 
ATOM     23  H   UNL     1      31.834 -21.969 -17.826  0.00  0.00    +0.175 HD
BRANCH  22  24
ATOM     24  C   UNL     1      32.025 -23.065 -16.012  0.00  0.00    +0.069 C 
ATOM     25  C   UNL     1      33.004 -23.409 -15.087  0.00  0.00    +0.053 C 
ATOM     26  C   UNL     1      30.677 -23.190 -15.702  0.00  0.00    +0.016 C 
ATOM     27  C   UNL     1      32.626 -23.885 -13.831  0.00  0.00    +0.147 C 
ATOM     28  C   UNL     1      30.300 -23.667 -14.447  0.00  0.00    +0.004 C 
ATOM     29  C   UNL     1      31.274 -24.014 -13.512  0.00  0.00    +0.038 C 
BRANCH  27  30
ATOM     30  O   UNL     1      33.577 -24.225 -12.919  0.00  0.00    -0.453 OA
BRANCH  30  32
ATOM     31  F   UNL     1      38.787 -24.469 -14.635  0.00  0.00    -0.204 F 
ATOM     32  C   UNL     1      34.891 -24.287 -13.352  0.00  0.00    +0.145 C 
ATOM     33  C   UNL     1      35.790 -23.330 -12.916  0.00  0.00    +0.040 C 
ATOM     34  C   UNL     1      35.271 -25.304 -14.208  0.00  0.00    +0.040 C 
ATOM     35  C   UNL     1      37.113 -23.392 -13.352  0.00  0.00    +0.033 C 
ATOM     36  C   UNL     1      36.594 -25.366 -14.645  0.00  0.00    +0.033 C 
ATOM     37  C   UNL     1      37.515 -24.410 -14.217  0.00  0.00    +0.140 C 
ENDBRANCH  30  32
ENDBRANCH  27  30
ENDBRANCH  22  24
ENDBRANCH   1  22
TORSDOF 9
ENDMDL
MODEL 5
REMARK VINA RESULT:     -11.5      1.611      1.945
REMARK  Name = 5287728
REMARK  9 active torsions:
REMARK  status: ('A' for Active; 'I' for Inactive)
REMARK    1  A    between atoms: S_1  and  N_4
REMARK    2  A    between atoms: S_1  and  N_22
REMARK    3  A    between atoms: C_5  and  N_10
REMARK    4  A    between atoms: N_10  and  C_13
REMARK    5  A    between atoms: C_13  and  C_14
REMARK    6  A    between atoms: C_15  and  O_20
REMARK    7  A    between atoms: N_22  and  C_24
REMARK    8  A    between atoms: C_27  and  O_30
REMARK    9  A    between atoms: O_30  and  C_32
REMARK                            x       y       z     vdW  Elec       q    Type
REMARK                         _______ _______ _______ _____ _____    ______ ____
ROOT
ATOM      1  S   UNL     1      33.299 -13.567 -23.748  0.00  0.00    +0.113 S 
ATOM      2  O   UNL     1      34.218 -12.450 -23.634  0.00  0.00    -0.138 OA
ATOM      3  O   UNL     1      32.906 -14.056 -25.057  0.00  0.00    -0.138 OA
ENDROOT
BRANCH   1   4
ATOM      4  N   UNL     1      33.940 -14.878 -22.847  0.00  0.00    -0.143 NA
ATOM      5  C   UNL     1      35.622 -16.789 -21.441  0.00  0.00    -0.059 C 
ATOM      6  C   UNL     1      35.013 -17.099 -22.813  0.00  0.00    -0.002 C 
ATOM      7  C   UNL     1      34.755 -15.768 -20.695  0.00  0.00    -0.002 C 
ATOM      8  C   UNL     1      34.802 -15.820 -23.620  0.00  0.00    +0.095 C 
ATOM      9  C   UNL     1      34.547 -14.510 -21.533  0.00  0.00    +0.095 C 
BRANCH   5  10
ATOM     10  N   UNL     1      35.740 -18.015 -20.656  0.00  0.00    +0.388 N 
ATOM     11  H   UNL     1      35.316 -17.868 -19.740  0.00  0.00    -0.084 HD
ATOM     12  H   UNL     1      36.728 -18.248 -20.558  0.00  0.00    -0.084 HD
BRANCH  10  13
ATOM     13  C   UNL     1      35.064 -19.119 -21.322  0.00  0.00    -0.051 C 
BRANCH  13  14
ATOM     14  C   UNL     1      34.615 -20.172 -20.344  0.00  0.00    -0.010 C 
ATOM     15  C   UNL     1      35.550 -20.938 -19.659  0.00  0.00    +0.128 C 
ATOM     16  C   UNL     1      33.254 -20.361 -20.142  0.00  0.00    -0.003 C 
ATOM     17  C   UNL     1      35.117 -21.909 -18.757  0.00  0.00    +0.036 C 
ATOM     18  C   UNL     1      32.821 -21.334 -19.240  0.00  0.00    -0.000 C 
ATOM     19  C   UNL     1      33.752 -22.107 -18.548  0.00  0.00    +0.003 C 
BRANCH  15  20
ATOM     20  O   UNL     1      36.887 -20.757 -19.853  0.00  0.00    -0.506 OA
ATOM     21  H   UNL     1      37.379 -21.387 -20.343  0.00  0.00    +0.292 HD
ENDBRANCH  15  20
ENDBRANCH  13  14
ENDBRANCH  10  13
ENDBRANCH   5  10
ENDBRANCH   1   4
BRANCH   1  22
ATOM     22  N   UNL     1      31.899 -13.190 -22.812  0.00  0.00    -0.205 N 
ATOM     23  H   UNL     1      31.124 -13.797 -22.773  0.00  0.00    +0.175 HD
BRANCH  22  24
ATOM     24  C   UNL     1      31.917 -11.944 -22.090  0.00  0.00    +0.069 C 
ATOM     25  C   UNL     1      32.339 -10.786 -22.731  0.00  0.00    +0.053 C 
ATOM     26  C   UNL     1      31.512 -11.916 -20.761  0.00  0.00    +0.016 C 
ATOM     27  C   UNL     1      32.357  -9.580 -22.030  0.00  0.00    +0.147 C 
ATOM     28  C   UNL     1      31.530 -10.709 -20.062  0.00  0.00    +0.004 C 
ATOM     29  C   UNL     1      31.952  -9.542 -20.696  0.00  0.00    +0.038 C 
BRANCH  27  30
ATOM     30  O   UNL     1      32.771  -8.440 -22.649  0.00  0.00    -0.453 OA
BRANCH  30  32
ATOM     31  F   UNL     1      30.438  -3.711 -21.119  0.00  0.00    -0.204 F 
ATOM     32  C   UNL     1      32.183  -7.247 -22.262  0.00  0.00    +0.145 C 
ATOM     33  C   UNL     1      30.899  -6.960 -22.690  0.00  0.00    +0.040 C 
ATOM     34  C   UNL     1      32.893  -6.375 -21.459  0.00  0.00    +0.040 C 
ATOM     35  C   UNL     1      30.306  -5.759 -22.302  0.00  0.00    +0.033 C 
ATOM     36  C   UNL     1      32.302  -5.173 -21.071  0.00  0.00    +0.033 C 
ATOM     37  C   UNL     1      31.008  -4.865 -21.492  0.00  0.00    +0.140 C 
ENDBRANCH  30  32
ENDBRANCH  27  30
ENDBRANCH  22  24
ENDBRANCH   1  22
TORSDOF 9
ENDMDL
MODEL 6
REMARK VINA RESULT:     -11.3      3.225      5.552
REMARK  Name = 5287728
REMARK  9 active torsions:
REMARK  status: ('A' for Active; 'I' for Inactive)
REMARK    1  A    between atoms: S_1  and  N_4
REMARK    2  A    between atoms: S_1  and  N_22
REMARK    3  A    between atoms: C_5  and  N_10
REMARK    4  A    between atoms: N_10  and  C_13
REMARK    5  A    between atoms: C_13  and  C_14
REMARK    6  A    between atoms: C_15  and  O_20
REMARK    7  A    between atoms: N_22  and  C_24
REMARK    8  A    between atoms: C_27  and  O_30
REMARK    9  A    between atoms: O_30  and  C_32
REMARK                            x       y       z     vdW  Elec       q    Type
REMARK                         _______ _______ _______ _____ _____    ______ ____
ROOT
ATOM      1  S   UNL     1      35.585 -18.175 -21.538  0.00  0.00    +0.113 S 
ATOM      2  O   UNL     1      37.009 -18.270 -21.803  0.00  0.00    -0.138 OA
ATOM      3  O   UNL     1      34.637 -18.202 -22.637  0.00  0.00    -0.138 OA
ENDROOT
BRANCH   1   4
ATOM      4  N   UNL     1      35.167 -19.414 -20.428  0.00  0.00    -0.143 NA
ATOM      5  C   UNL     1      34.557 -21.919 -19.084  0.00  0.00    -0.059 C 
ATOM      6  C   UNL     1      33.461 -20.929 -19.490  0.00  0.00    -0.002 C 
ATOM      7  C   UNL     1      35.882 -21.182 -18.863  0.00  0.00    -0.002 C 
ATOM      8  C   UNL     1      33.882 -20.117 -20.713  0.00  0.00    +0.095 C 
ATOM      9  C   UNL     1      36.267 -20.366 -20.094  0.00  0.00    +0.095 C 
BRANCH   5  10
ATOM     10  N   UNL     1      34.167 -22.626 -17.866  0.00  0.00    +0.388 N 
ATOM     11  H   UNL     1      34.672 -22.230 -17.073  0.00  0.00    -0.084 HD
ATOM     12  H   UNL     1      34.394 -23.614 -17.974  0.00  0.00    -0.084 HD
BRANCH  10  13
ATOM     13  C   UNL     1      32.736 -22.498 -17.632  0.00  0.00    -0.051 C 
BRANCH  13  14
ATOM     14  C   UNL     1      32.354 -22.938 -16.244  0.00  0.00    -0.010 C 
ATOM     15  C   UNL     1      31.021 -22.954 -15.855  0.00  0.00    +0.128 C 
ATOM     16  C   UNL     1      33.357 -23.327 -15.365  0.00  0.00    -0.003 C 
ATOM     17  C   UNL     1      30.685 -23.364 -14.566  0.00  0.00    +0.036 C 
ATOM     18  C   UNL     1      33.021 -23.737 -14.075  0.00  0.00    -0.000 C 
ATOM     19  C   UNL     1      31.685 -23.756 -13.676  0.00  0.00    +0.003 C 
BRANCH  15  20
ATOM     20  O   UNL     1      30.032 -22.575 -16.712  0.00  0.00    -0.506 OA
ATOM     21  H   UNL     1      29.906 -23.038 -17.517  0.00  0.00    +0.292 HD
ENDBRANCH  15  20
ENDBRANCH  13  14
ENDBRANCH  10  13
ENDBRANCH   5  10
ENDBRANCH   1   4
BRANCH   1  22
ATOM     22  N   UNL     1      35.326 -16.773 -20.566  0.00  0.00    -0.205 N 
ATOM     23  H   UNL     1      35.641 -16.725 -19.635  0.00  0.00    +0.175 HD
BRANCH  22  24
ATOM     24  C   UNL     1      34.628 -15.675 -21.183  0.00  0.00    +0.069 C 
ATOM     25  C   UNL     1      33.549 -15.094 -20.527  0.00  0.00    +0.053 C 
ATOM     26  C   UNL     1      35.040 -15.211 -22.426  0.00  0.00    +0.016 C 
ATOM     27  C   UNL     1      32.873 -14.031 -21.126  0.00  0.00    +0.147 C 
ATOM     28  C   UNL     1      34.362 -14.149 -23.023  0.00  0.00    +0.004 C 
ATOM     29  C   UNL     1      33.280 -13.558 -22.373  0.00  0.00    +0.038 C 
BRANCH  27  30
ATOM     30  O   UNL     1      31.814 -13.456 -20.492  0.00  0.00    -0.453 OA
BRANCH  30  32
ATOM     31  F   UNL     1      31.821  -7.991 -19.957  0.00  0.00    -0.204 F 
ATOM     32  C   UNL     1      31.816 -12.077 -20.357  0.00  0.00    +0.145 C 
ATOM     33  C   UNL     1      31.504 -11.292 -21.453  0.00  0.00    +0.040 C 
ATOM     34  C   UNL     1      32.128 -11.521 -19.130  0.00  0.00    +0.040 C 
ATOM     35  C   UNL     1      31.506  -9.905 -21.316  0.00  0.00    +0.033 C 
ATOM     36  C   UNL     1      32.131 -10.133 -18.994  0.00  0.00    +0.033 C 
ATOM     37  C   UNL     1      31.820  -9.325 -20.087  0.00  0.00    +0.140 C 
ENDBRANCH  30  32
ENDBRANCH  27  30
ENDBRANCH  22  24
ENDBRANCH   1  22
TORSDOF 9
ENDMDL
MODEL 7
REMARK VINA RESULT:     -11.2      4.411      7.972
REMARK  Name = 5287728
REMARK  9 active torsions:
REMARK  status: ('A' for Active; 'I' for Inactive)
REMARK    1  A    between atoms: S_1  and  N_4
REMARK    2  A    between atoms: S_1  and  N_22
REMARK    3  A    between atoms: C_5  and  N_10
REMARK    4  A    between atoms: N_10  and  C_13
REMARK    5  A    between atoms: C_13  and  C_14
REMARK    6  A    between atoms: C_15  and  O_20
REMARK    7  A    between atoms: N_22  and  C_24
REMARK    8  A    between atoms: C_27  and  O_30
REMARK    9  A    between atoms: O_30  and  C_32
REMARK                            x       y       z     vdW  Elec       q    Type
REMARK                         _______ _______ _______ _____ _____    ______ ____
ROOT
ATOM      1  S   UNL     1      36.122 -20.677 -19.514  0.00  0.00    +0.113 S 
ATOM      2  O   UNL     1      37.054 -19.671 -19.036  0.00  0.00    -0.138 OA
ATOM      3  O   UNL     1      36.542 -21.642 -20.513  0.00  0.00    -0.138 OA
ENDROOT
BRANCH   1   4
ATOM      4  N   UNL     1      35.516 -21.528 -18.154  0.00  0.00    -0.143 NA
ATOM      5  C   UNL     1      34.803 -23.501 -16.140  0.00  0.00    -0.059 C 
ATOM      6  C   UNL     1      33.790 -22.990 -17.170  0.00  0.00    -0.002 C 
ATOM      7  C   UNL     1      35.887 -22.445 -15.894  0.00  0.00    -0.002 C 
ATOM      8  C   UNL     1      34.487 -22.565 -18.460  0.00  0.00    +0.095 C 
ATOM      9  C   UNL     1      36.552 -22.027 -17.202  0.00  0.00    +0.095 C 
BRANCH   5  10
ATOM     10  N   UNL     1      34.125 -23.824 -14.888  0.00  0.00    +0.388 N 
ATOM     11  H   UNL     1      34.789 -23.746 -14.117  0.00  0.00    -0.084 HD
ATOM     12  H   UNL     1      33.761 -24.775 -14.948  0.00  0.00    -0.084 HD
BRANCH  10  13
ATOM     13  C   UNL     1      33.014 -22.914 -14.653  0.00  0.00    -0.051 C 
BRANCH  13  14
ATOM     14  C   UNL     1      31.699 -23.642 -14.574  0.00  0.00    -0.010 C 
ATOM     15  C   UNL     1      31.543 -24.716 -13.708  0.00  0.00    +0.128 C 
ATOM     16  C   UNL     1      30.651 -23.221 -15.383  0.00  0.00    -0.003 C 
ATOM     17  C   UNL     1      30.318 -25.380 -13.648  0.00  0.00    +0.036 C 
ATOM     18  C   UNL     1      29.426 -23.886 -15.324  0.00  0.00    -0.000 C 
ATOM     19  C   UNL     1      29.260 -24.965 -14.456  0.00  0.00    +0.003 C 
BRANCH  15  20
ATOM     20  O   UNL     1      32.567 -25.135 -12.911  0.00  0.00    -0.506 OA
ATOM     21  H   UNL     1      33.261 -25.650 -13.273  0.00  0.00    +0.292 HD
ENDBRANCH  15  20
ENDBRANCH  13  14
ENDBRANCH  10  13
ENDBRANCH   5  10
ENDBRANCH   1   4
BRANCH   1  22
ATOM     22  N   UNL     1      34.697 -19.859 -20.042  0.00  0.00    -0.205 N 
ATOM     23  H   UNL     1      33.840 -19.957 -19.567  0.00  0.00    +0.175 HD
BRANCH  22  24
ATOM     24  C   UNL     1      34.821 -19.027 -21.211  0.00  0.00    +0.069 C 
ATOM     25  C   UNL     1      35.067 -17.668 -21.062  0.00  0.00    +0.053 C 
ATOM     26  C   UNL     1      34.692 -19.593 -22.473  0.00  0.00    +0.016 C 
ATOM     27  C   UNL     1      35.186 -16.862 -22.194  0.00  0.00    +0.147 C 
ATOM     28  C   UNL     1      34.811 -18.787 -23.604  0.00  0.00    +0.004 C 
ATOM     29  C   UNL     1      35.058 -17.422 -23.465  0.00  0.00    +0.038 C 
BRANCH  27  30
ATOM     30  O   UNL     1      35.426 -15.529 -22.058  0.00  0.00    -0.453 OA
BRANCH  30  32
ATOM     31  F   UNL     1      31.164 -12.277 -20.872  0.00  0.00    -0.204 F 
ATOM     32  C   UNL     1      34.351 -14.709 -21.759  0.00  0.00    +0.145 C 
ATOM     33  C   UNL     1      33.979 -14.541 -20.437  0.00  0.00    +0.040 C 
ATOM     34  C   UNL     1      33.678 -14.078 -22.789  0.00  0.00    +0.040 C 
ATOM     35  C   UNL     1      32.896 -13.715 -20.136  0.00  0.00    +0.033 C 
ATOM     36  C   UNL     1      32.595 -13.252 -22.489  0.00  0.00    +0.033 C 
ATOM     37  C   UNL     1      32.204 -13.071 -21.162  0.00  0.00    +0.140 C 
ENDBRANCH  30  32
ENDBRANCH  27  30
ENDBRANCH  22  24
ENDBRANCH   1  22
TORSDOF 9
ENDMDL
MODEL 8
REMARK VINA RESULT:     -11.2      4.525      8.162
REMARK  Name = 5287728
REMARK  9 active torsions:
REMARK  status: ('A' for Active; 'I' for Inactive)
REMARK    1  A    between atoms: S_1  and  N_4
REMARK    2  A    between atoms: S_1  and  N_22
REMARK    3  A    between atoms: C_5  and  N_10
REMARK    4  A    between atoms: N_10  and  C_13
REMARK    5  A    between atoms: C_13  and  C_14
REMARK    6  A    between atoms: C_15  and  O_20
REMARK    7  A    between atoms: N_22  and  C_24
REMARK    8  A    between atoms: C_27  and  O_30
REMARK    9  A    between atoms: O_30  and  C_32
REMARK                            x       y       z     vdW  Elec       q    Type
REMARK                         _______ _______ _______ _____ _____    ______ ____
ROOT
ATOM      1  S   UNL     1      36.314 -20.586 -19.583  0.00  0.00    +0.113 S 
ATOM      2  O   UNL     1      37.222 -19.505 -19.242  0.00  0.00    -0.138 OA
ATOM      3  O   UNL     1      36.727 -21.615 -20.520  0.00  0.00    -0.138 OA
ENDROOT
BRANCH   1   4
ATOM      4  N   UNL     1      35.818 -21.342 -18.126  0.00  0.00    -0.143 NA
ATOM      5  C   UNL     1      35.279 -23.170 -15.930  0.00  0.00    -0.059 C 
ATOM      6  C   UNL     1      34.188 -22.745 -16.918  0.00  0.00    -0.002 C 
ATOM      7  C   UNL     1      36.361 -22.089 -15.838  0.00  0.00    -0.002 C 
ATOM      8  C   UNL     1      34.785 -22.408 -18.282  0.00  0.00    +0.095 C 
ATOM      9  C   UNL     1      36.926 -21.761 -17.217  0.00  0.00    +0.095 C 
BRANCH   5  10
ATOM     10  N   UNL     1      34.695 -23.409 -14.612  0.00  0.00    +0.388 N 
ATOM     11  H   UNL     1      33.705 -23.165 -14.635  0.00  0.00    -0.084 HD
ATOM     12  H   UNL     1      35.186 -22.835 -13.927  0.00  0.00    -0.084 HD
BRANCH  10  13
ATOM     13  C   UNL     1      34.833 -24.808 -14.233  0.00  0.00    -0.051 C 
BRANCH  13  14
ATOM     14  C   UNL     1      36.244 -25.143 -13.830  0.00  0.00    -0.010 C 
ATOM     15  C   UNL     1      36.933 -26.164 -14.471  0.00  0.00    +0.128 C 
ATOM     16  C   UNL     1      36.840 -24.413 -12.809  0.00  0.00    -0.003 C 
ATOM     17  C   UNL     1      38.240 -26.461 -14.086  0.00  0.00    +0.036 C 
ATOM     18  C   UNL     1      38.147 -24.711 -12.423  0.00  0.00    -0.000 C 
ATOM     19  C   UNL     1      38.846 -25.734 -13.061  0.00  0.00    +0.003 C 
BRANCH  15  20
ATOM     20  O   UNL     1      36.355 -26.884 -15.474  0.00  0.00    -0.506 OA
ATOM     21  H   UNL     1      36.815 -27.602 -15.861  0.00  0.00    +0.292 HD
ENDBRANCH  15  20
ENDBRANCH  13  14
ENDBRANCH  10  13
ENDBRANCH   5  10
ENDBRANCH   1   4
BRANCH   1  22
ATOM     22  N   UNL     1      34.828 -19.876 -20.098  0.00  0.00    -0.205 N 
ATOM     23  H   UNL     1      33.986 -20.033 -19.613  0.00  0.00    +0.175 HD
BRANCH  22  24
ATOM     24  C   UNL     1      34.878 -19.043 -21.272  0.00  0.00    +0.069 C 
ATOM     25  C   UNL     1      35.127 -17.683 -21.137  0.00  0.00    +0.053 C 
ATOM     26  C   UNL     1      34.678 -19.610 -22.524  0.00  0.00    +0.016 C 
ATOM     27  C   UNL     1      35.174 -16.877 -22.275  0.00  0.00    +0.147 C 
ATOM     28  C   UNL     1      34.725 -18.804 -23.661  0.00  0.00    +0.004 C 
ATOM     29  C   UNL     1      34.974 -17.438 -23.536  0.00  0.00    +0.038 C 
BRANCH  27  30
ATOM     30  O   UNL     1      35.416 -15.543 -22.153  0.00  0.00    -0.453 OA
BRANCH  30  32
ATOM     31  F   UNL     1      31.189 -12.295 -20.836  0.00  0.00    -0.204 F 
ATOM     32  C   UNL     1      34.350 -14.723 -21.821  0.00  0.00    +0.145 C 
ATOM     33  C   UNL     1      34.005 -14.573 -20.490  0.00  0.00    +0.040 C 
ATOM     34  C   UNL     1      33.658 -14.076 -22.828  0.00  0.00    +0.040 C 
ATOM     35  C   UNL     1      32.932 -13.748 -20.155  0.00  0.00    +0.033 C 
ATOM     36  C   UNL     1      32.584 -13.252 -22.494  0.00  0.00    +0.033 C 
ATOM     37  C   UNL     1      32.221 -13.088 -21.157  0.00  0.00    +0.140 C 
ENDBRANCH  30  32
ENDBRANCH  27  30
ENDBRANCH  22  24
ENDBRANCH   1  22
TORSDOF 9
ENDMDL
MODEL 9
REMARK VINA RESULT:     -11.1      3.703     11.257
REMARK  Name = 5287728
REMARK  9 active torsions:
REMARK  status: ('A' for Active; 'I' for Inactive)
REMARK    1  A    between atoms: S_1  and  N_4
REMARK    2  A    between atoms: S_1  and  N_22
REMARK    3  A    between atoms: C_5  and  N_10
REMARK    4  A    between atoms: N_10  and  C_13
REMARK    5  A    between atoms: C_13  and  C_14
REMARK    6  A    between atoms: C_15  and  O_20
REMARK    7  A    between atoms: N_22  and  C_24
REMARK    8  A    between atoms: C_27  and  O_30
REMARK    9  A    between atoms: O_30  and  C_32
REMARK                            x       y       z     vdW  Elec       q    Type
REMARK                         _______ _______ _______ _____ _____    ______ ____
ROOT
ATOM      1  S   UNL     1      34.130 -14.164 -21.518  0.00  0.00    +0.113 S 
ATOM      2  O   UNL     1      35.175 -13.928 -20.538  0.00  0.00    -0.138 OA
ATOM      3  O   UNL     1      32.959 -14.945 -21.159  0.00  0.00    -0.138 OA
ENDROOT
BRANCH   1   4
ATOM      4  N   UNL     1      33.609 -12.644 -22.117  0.00  0.00    -0.143 NA
ATOM      5  C   UNL     1      32.430 -10.447 -23.615  0.00  0.00    -0.059 C 
ATOM      6  C   UNL     1      33.929 -10.761 -23.678  0.00  0.00    -0.002 C 
ATOM      7  C   UNL     1      31.845 -10.926 -22.281  0.00  0.00    -0.002 C 
ATOM      8  C   UNL     1      34.188 -12.246 -23.433  0.00  0.00    +0.095 C 
ATOM      9  C   UNL     1      32.136 -12.407 -22.056  0.00  0.00    +0.095 C 
BRANCH   5  10
ATOM     10  N   UNL     1      32.213  -9.012 -23.771  0.00  0.00    +0.388 N 
ATOM     11  H   UNL     1      32.009  -8.808 -24.750  0.00  0.00    -0.084 HD
ATOM     12  H   UNL     1      33.054  -8.518 -23.473  0.00  0.00    -0.084 HD
BRANCH  10  13
ATOM     13  C   UNL     1      31.096  -8.567 -22.950  0.00  0.00    -0.051 C 
BRANCH  13  14
ATOM     14  C   UNL     1      31.337  -7.200 -22.368  0.00  0.00    -0.010 C 
ATOM     15  C   UNL     1      32.350  -7.002 -21.439  0.00  0.00    +0.128 C 
ATOM     16  C   UNL     1      30.530  -6.146 -22.778  0.00  0.00    -0.003 C 
ATOM     17  C   UNL     1      32.560  -5.729 -20.910  0.00  0.00    +0.036 C 
ATOM     18  C   UNL     1      30.739  -4.873 -22.248  0.00  0.00    -0.000 C 
ATOM     19  C   UNL     1      31.754  -4.664 -21.315  0.00  0.00    +0.003 C 
BRANCH  15  20
ATOM     20  O   UNL     1      33.146  -8.031 -21.033  0.00  0.00    -0.506 OA
ATOM     21  H   UNL     1      33.011  -8.892 -21.377  0.00  0.00    +0.292 HD
ENDBRANCH  15  20
ENDBRANCH  13  14
ENDBRANCH  10  13
ENDBRANCH   5  10
ENDBRANCH   1   4
BRANCH   1  22
ATOM     22  N   UNL     1      34.874 -14.826 -22.927  0.00  0.00    -0.205 N 
ATOM     23  H   UNL     1      35.265 -14.250 -23.623  0.00  0.00    +0.175 HD
BRANCH  22  24
ATOM     24  C   UNL     1      34.896 -16.262 -23.037  0.00  0.00    +0.069 C 
ATOM     25  C   UNL     1      35.497 -17.017 -22.037  0.00  0.00    +0.053 C 
ATOM     26  C   UNL     1      34.317 -16.874 -24.141  0.00  0.00    +0.016 C 
ATOM     27  C   UNL     1      35.519 -18.407 -22.145  0.00  0.00    +0.147 C 
ATOM     28  C   UNL     1      34.339 -18.264 -24.247  0.00  0.00    +0.004 C 
ATOM     29  C   UNL     1      34.939 -19.031 -23.249  0.00  0.00    +0.038 C 
BRANCH  27  30
ATOM     30  O   UNL     1      36.106 -19.155 -21.171  0.00  0.00    -0.453 OA
BRANCH  30  32
ATOM     31  F   UNL     1      32.895 -22.501 -18.232  0.00  0.00    -0.204 F 
ATOM     32  C   UNL     1      35.296 -19.999 -20.430  0.00  0.00    +0.145 C 
ATOM     33  C   UNL     1      33.923 -19.841 -20.491  0.00  0.00    +0.040 C 
ATOM     34  C   UNL     1      35.881 -20.979 -19.648  0.00  0.00    +0.040 C 
ATOM     35  C   UNL     1      33.108 -20.691 -19.745  0.00  0.00    +0.033 C 
ATOM     36  C   UNL     1      35.065 -21.828 -18.900  0.00  0.00    +0.033 C 
ATOM     37  C   UNL     1      33.679 -21.684 -18.949  0.00  0.00    +0.140 C 
ENDBRANCH  30  32
ENDBRANCH  27  30
ENDBRANCH  22  24
ENDBRANCH   1  22
TORSDOF 9
ENDMDL
