MODEL 1
REMARK VINA RESULT:     -12.9      0.000      0.000
REMARK  Name = 5288641
REMARK  1 active torsions:
REMARK  status: ('A' for Active; 'I' for Inactive)
REMARK    1  A    between atoms: C_14  and  S_23
REMARK                            x       y       z     vdW  Elec       q    Type
REMARK                         _______ _______ _______ _____ _____    ______ ____
ROOT
ATOM      1  O   UNL     1      35.461 -24.301 -14.173  0.00  0.00    -0.270 OA
ATOM      2  O   UNL     1      31.944 -22.361 -17.581  0.00  0.00    -0.285 OA
ATOM      3  N   UNL     1      35.305 -22.770 -16.713  0.00  0.00    -0.310 N 
ATOM      4  N   UNL     1      33.287 -24.834 -13.416  0.00  0.00    -0.280 N 
ATOM      5  C   UNL     1      33.442 -23.649 -15.368  0.00  0.00    +0.071 C 
ATOM      6  C   UNL     1      32.028 -23.870 -15.082  0.00  0.00    +0.020 C 
ATOM      7  C   UNL     1      33.991 -23.005 -16.400  0.00  0.00    +0.092 C 
ATOM      8  C   UNL     1      31.992 -24.594 -13.887  0.00  0.00    +0.051 C 
ATOM      9  C   UNL     1      34.248 -24.284 -14.271  0.00  0.00    +0.251 C 
ATOM     10  C   UNL     1      34.122 -21.782 -18.417  0.00  0.00    +0.054 C 
ATOM     11  C   UNL     1      35.396 -22.051 -17.899  0.00  0.00    +0.051 C 
ATOM     12  C   UNL     1      33.152 -22.380 -17.482  0.00  0.00    +0.210 C 
ATOM     13  C   UNL     1      30.860 -23.519 -15.730  0.00  0.00    +0.020 C 
ATOM     14  C   UNL     1      29.648 -23.910 -15.152  0.00  0.00    +0.112 C 
ATOM     15  C   UNL     1      30.807 -24.991 -13.299  0.00  0.00    +0.016 C 
ATOM     16  C   UNL     1      29.621 -24.639 -13.949  0.00  0.00    +0.020 C 
ATOM     17  C   UNL     1      33.914 -21.082 -19.586  0.00  0.00    +0.004 C 
ATOM     18  C   UNL     1      36.520 -21.609 -18.564  0.00  0.00    +0.015 C 
ATOM     19  C   UNL     1      35.050 -20.634 -20.260  0.00  0.00    +0.000 C 
ATOM     20  C   UNL     1      36.340 -20.895 -19.755  0.00  0.00    +0.001 C 
ATOM     21  H   UNL     1      36.075 -23.068 -16.176  0.00  0.00    +0.152 HD
ATOM     22  H   UNL     1      33.496 -25.327 -12.589  0.00  0.00    +0.155 HD
ENDROOT
BRANCH  14  23
ATOM     23  S   UNL     1      28.142 -23.488 -15.935  0.00  0.00    +0.042 S 
ATOM     24  O   UNL     1      28.480 -22.158 -16.823  0.00  0.00    -0.065 OA
ATOM     25  O   UNL     1      27.811 -24.552 -16.870  0.00  0.00    -0.065 OA
ATOM     26  O   UNL     1      27.213 -23.106 -14.884  0.00  0.00    -0.065 OA
ENDBRANCH  14  23
TORSDOF 1
ENDMDL
MODEL 2
REMARK VINA RESULT:     -11.0      3.489      6.816
REMARK  Name = 5288641
REMARK  1 active torsions:
REMARK  status: ('A' for Active; 'I' for Inactive)
REMARK    1  A    between atoms: C_14  and  S_23
REMARK                            x       y       z     vdW  Elec       q    Type
REMARK                         _______ _______ _______ _____ _____    ______ ____
ROOT
ATOM      1  O   UNL     1      34.462 -22.018 -17.917  0.00  0.00    -0.270 OA
ATOM      2  O   UNL     1      32.895 -24.383 -13.478  0.00  0.00    -0.285 OA
ATOM      3  N   UNL     1      31.998 -22.903 -16.515  0.00  0.00    -0.310 N 
ATOM      4  N   UNL     1      36.365 -22.547 -16.618  0.00  0.00    -0.280 N 
ATOM      5  C   UNL     1      34.327 -23.128 -15.754  0.00  0.00    +0.071 C 
ATOM      6  C   UNL     1      35.356 -23.538 -14.805  0.00  0.00    +0.020 C 
ATOM      7  C   UNL     1      33.004 -23.269 -15.657  0.00  0.00    +0.092 C 
ATOM      8  C   UNL     1      36.574 -23.161 -15.380  0.00  0.00    +0.051 C 
ATOM      9  C   UNL     1      35.002 -22.483 -16.929  0.00  0.00    +0.251 C 
ATOM     10  C   UNL     1      30.913 -23.881 -14.742  0.00  0.00    +0.054 C 
ATOM     11  C   UNL     1      30.762 -23.257 -15.988  0.00  0.00    +0.051 C 
ATOM     12  C   UNL     1      32.360 -23.921 -14.463  0.00  0.00    +0.210 C 
ATOM     13  C   UNL     1      35.321 -24.166 -13.575  0.00  0.00    +0.020 C 
ATOM     14  C   UNL     1      36.538 -24.410 -12.929  0.00  0.00    +0.112 C 
ATOM     15  C   UNL     1      37.786 -23.392 -14.760  0.00  0.00    +0.016 C 
ATOM     16  C   UNL     1      37.759 -24.027 -13.516  0.00  0.00    +0.020 C 
ATOM     17  C   UNL     1      29.850 -24.336 -13.991  0.00  0.00    +0.004 C 
ATOM     18  C   UNL     1      29.503 -23.073 -16.520  0.00  0.00    +0.015 C 
ATOM     19  C   UNL     1      28.577 -24.150 -14.529  0.00  0.00    +0.000 C 
ATOM     20  C   UNL     1      28.404 -23.526 -15.781  0.00  0.00    +0.001 C 
ATOM     21  H   UNL     1      32.131 -22.453 -17.380  0.00  0.00    +0.152 HD
ATOM     22  H   UNL     1      37.084 -22.202 -17.197  0.00  0.00    +0.155 HD
ENDROOT
BRANCH  14  23
ATOM     23  S   UNL     1      36.545 -25.202 -11.370  0.00  0.00    +0.042 S 
ATOM     24  O   UNL     1      37.566 -24.321 -10.447  0.00  0.00    -0.065 OA
ATOM     25  O   UNL     1      35.217 -25.059 -10.791  0.00  0.00    -0.065 OA
ATOM     26  O   UNL     1      37.132 -26.517 -11.568  0.00  0.00    -0.065 OA
ENDBRANCH  14  23
TORSDOF 1
ENDMDL
MODEL 3
REMARK VINA RESULT:     -10.5      3.271      7.101
REMARK  Name = 5288641
REMARK  1 active torsions:
REMARK  status: ('A' for Active; 'I' for Inactive)
REMARK    1  A    between atoms: C_14  and  S_23
REMARK                            x       y       z     vdW  Elec       q    Type
REMARK                         _______ _______ _______ _____ _____    ______ ____
ROOT
ATOM      1  O   UNL     1      32.898 -21.848 -19.001  0.00  0.00    -0.270 OA
ATOM      2  O   UNL     1      33.292 -24.090 -14.251  0.00  0.00    -0.285 OA
ATOM      3  N   UNL     1      31.233 -23.147 -16.913  0.00  0.00    -0.310 N 
ATOM      4  N   UNL     1      35.159 -21.797 -18.316  0.00  0.00    -0.280 N 
ATOM      5  C   UNL     1      33.661 -22.753 -16.874  0.00  0.00    +0.071 C 
ATOM      6  C   UNL     1      34.985 -22.822 -16.265  0.00  0.00    +0.020 C 
ATOM      7  C   UNL     1      32.498 -23.188 -16.385  0.00  0.00    +0.092 C 
ATOM      8  C   UNL     1      35.856 -22.228 -17.183  0.00  0.00    +0.051 C 
ATOM      9  C   UNL     1      33.793 -22.081 -18.209  0.00  0.00    +0.251 C 
ATOM     10  C   UNL     1      30.974 -24.182 -14.878  0.00  0.00    +0.054 C 
ATOM     11  C   UNL     1      30.326 -23.729 -16.036  0.00  0.00    +0.051 C 
ATOM     12  C   UNL     1      32.402 -23.858 -15.041  0.00  0.00    +0.210 C 
ATOM     13  C   UNL     1      35.458 -23.325 -15.067  0.00  0.00    +0.020 C 
ATOM     14  C   UNL     1      36.828 -23.218 -14.808  0.00  0.00    +0.112 C 
ATOM     15  C   UNL     1      37.212 -22.112 -16.946  0.00  0.00    +0.016 C 
ATOM     16  C   UNL     1      37.697 -22.618 -15.738  0.00  0.00    +0.020 C 
ATOM     17  C   UNL     1      30.315 -24.800 -13.836  0.00  0.00    +0.004 C 
ATOM     18  C   UNL     1      28.964 -23.893 -16.174  0.00  0.00    +0.015 C 
ATOM     19  C   UNL     1      28.937 -24.966 -13.976  0.00  0.00    +0.000 C 
ATOM     20  C   UNL     1      28.268 -24.518 -15.133  0.00  0.00    +0.001 C 
ATOM     21  H   UNL     1      30.999 -22.761 -17.788  0.00  0.00    +0.152 HD
ATOM     22  H   UNL     1      35.575 -21.350 -19.089  0.00  0.00    +0.155 HD
ENDROOT
BRANCH  14  23
ATOM     23  S   UNL     1      37.472 -23.838 -13.305  0.00  0.00    +0.042 S 
ATOM     24  O   UNL     1      38.934 -24.459 -13.690  0.00  0.00    -0.065 OA
ATOM     25  O   UNL     1      37.710 -22.708 -12.420  0.00  0.00    -0.065 OA
ATOM     26  O   UNL     1      36.608 -24.933 -12.896  0.00  0.00    -0.065 OA
ENDBRANCH  14  23
TORSDOF 1
ENDMDL
MODEL 4
REMARK VINA RESULT:     -10.4      2.249      2.960
REMARK  Name = 5288641
REMARK  1 active torsions:
REMARK  status: ('A' for Active; 'I' for Inactive)
REMARK    1  A    between atoms: C_14  and  S_23
REMARK                            x       y       z     vdW  Elec       q    Type
REMARK                         _______ _______ _______ _____ _____    ______ ____
ROOT
ATOM      1  O   UNL     1      38.087 -22.716 -15.799  0.00  0.00    -0.270 OA
ATOM      2  O   UNL     1      32.988 -22.480 -17.102  0.00  0.00    -0.285 OA
ATOM      3  N   UNL     1      36.291 -21.696 -17.935  0.00  0.00    -0.310 N 
ATOM      4  N   UNL     1      36.816 -23.781 -14.115  0.00  0.00    -0.280 N 
ATOM      5  C   UNL     1      35.661 -22.903 -15.885  0.00  0.00    +0.071 C 
ATOM      6  C   UNL     1      34.699 -23.507 -14.970  0.00  0.00    +0.020 C 
ATOM      7  C   UNL     1      35.429 -22.279 -17.041  0.00  0.00    +0.092 C 
ATOM      8  C   UNL     1      35.454 -24.025 -13.913  0.00  0.00    +0.051 C 
ATOM      9  C   UNL     1      37.035 -23.090 -15.312  0.00  0.00    +0.251 C 
ATOM     10  C   UNL     1      34.211 -21.383 -18.857  0.00  0.00    +0.054 C 
ATOM     11  C   UNL     1      35.587 -21.165 -19.008  0.00  0.00    +0.051 C 
ATOM     12  C   UNL     1      34.036 -22.109 -17.587  0.00  0.00    +0.210 C 
ATOM     13  C   UNL     1      33.323 -23.634 -14.982  0.00  0.00    +0.020 C 
ATOM     14  C   UNL     1      32.717 -24.294 -13.907  0.00  0.00    +0.112 C 
ATOM     15  C   UNL     1      34.876 -24.680 -12.843  0.00  0.00    +0.016 C 
ATOM     16  C   UNL     1      33.486 -24.812 -12.849  0.00  0.00    +0.020 C 
ATOM     17  C   UNL     1      33.273 -20.960 -19.775  0.00  0.00    +0.004 C 
ATOM     18  C   UNL     1      36.063 -20.498 -20.117  0.00  0.00    +0.015 C 
ATOM     19  C   UNL     1      33.754 -20.285 -20.898  0.00  0.00    +0.000 C 
ATOM     20  C   UNL     1      35.135 -20.056 -21.067  0.00  0.00    +0.001 C 
ATOM     21  H   UNL     1      37.269 -21.659 -17.831  0.00  0.00    +0.152 HD
ATOM     22  H   UNL     1      37.530 -24.058 -13.495  0.00  0.00    +0.155 HD
ENDROOT
BRANCH  14  23
ATOM     23  S   UNL     1      30.979 -24.478 -13.877  0.00  0.00    +0.042 S 
ATOM     24  O   UNL     1      30.562 -24.352 -12.302  0.00  0.00    -0.065 OA
ATOM     25  O   UNL     1      30.396 -23.336 -14.565  0.00  0.00    -0.065 OA
ATOM     26  O   UNL     1      30.691 -25.835 -14.315  0.00  0.00    -0.065 OA
ENDBRANCH  14  23
TORSDOF 1
ENDMDL
