MODEL 1
REMARK VINA RESULT:     -10.4      0.000      0.000
REMARK  Name = 2197
REMARK  2 active torsions:
REMARK  status: ('A' for Active; 'I' for Inactive)
REMARK    1  A    between atoms: C_3  and  C_12
REMARK    2  A    between atoms: C_17  and  O_18
REMARK                            x       y       z     vdW  Elec       q    Type
REMARK                         _______ _______ _______ _____ _____    ______ ____
ROOT
ATOM      1  O   UNL     1      35.838 -17.092 -20.173  0.00  0.00    -0.291 OA
ATOM      2  O   UNL     1      34.939 -20.035 -23.785  0.00  0.00    -0.291 OA
ATOM      3  C   UNL     1      35.662 -19.041 -21.657  0.00  0.00    +0.146 C 
ATOM      4  C   UNL     1      35.555 -17.579 -21.252  0.00  0.00    +0.184 C 
ATOM      5  C   UNL     1      35.102 -19.063 -23.072  0.00  0.00    +0.184 C 
ATOM      6  C   UNL     1      35.040 -16.824 -22.397  0.00  0.00    +0.038 C 
ATOM      7  C   UNL     1      34.776 -17.688 -23.455  0.00  0.00    +0.038 C 
ATOM      8  C   UNL     1      34.808 -15.466 -22.492  0.00  0.00    +0.003 C 
ATOM      9  C   UNL     1      34.271 -17.231 -24.657  0.00  0.00    +0.003 C 
ATOM     10  C   UNL     1      34.298 -14.985 -23.701  0.00  0.00    +0.000 C 
ATOM     11  C   UNL     1      34.031 -15.859 -24.773  0.00  0.00    +0.000 C 
ENDROOT
BRANCH   3  12
ATOM     12  C   UNL     1      34.896 -19.930 -20.743  0.00  0.00    -0.008 C 
ATOM     13  C   UNL     1      35.564 -20.889 -19.976  0.00  0.00    -0.000 C 
ATOM     14  C   UNL     1      33.508 -19.809 -20.645  0.00  0.00    -0.000 C 
ATOM     15  C   UNL     1      34.846 -21.723 -19.119  0.00  0.00    +0.037 C 
ATOM     16  C   UNL     1      32.791 -20.643 -19.788  0.00  0.00    +0.037 C 
ATOM     17  C   UNL     1      33.460 -21.601 -19.025  0.00  0.00    +0.139 C 
BRANCH  17  18
ATOM     18  O   UNL     1      32.761 -22.414 -18.187  0.00  0.00    -0.471 OA
ATOM     19  C   UNL     1      33.515 -23.177 -17.246  0.00  0.00    +0.252 C 
ENDBRANCH  17  18
ENDBRANCH   3  12
TORSDOF 2
ENDMDL
MODEL 2
REMARK VINA RESULT:      -8.8      7.770      9.777
REMARK  Name = 2197
REMARK  2 active torsions:
REMARK  status: ('A' for Active; 'I' for Inactive)
REMARK    1  A    between atoms: C_3  and  C_12
REMARK    2  A    between atoms: C_17  and  O_18
REMARK                            x       y       z     vdW  Elec       q    Type
REMARK                         _______ _______ _______ _____ _____    ______ ____
ROOT
ATOM      1  O   UNL     1      34.116 -23.907 -11.988  0.00  0.00    -0.291 OA
ATOM      2  O   UNL     1      34.777 -22.891 -16.576  0.00  0.00    -0.291 OA
ATOM      3  C   UNL     1      35.051 -23.237 -14.159  0.00  0.00    +0.146 C 
ATOM      4  C   UNL     1      33.973 -23.658 -13.170  0.00  0.00    +0.184 C 
ATOM      5  C   UNL     1      34.308 -23.146 -15.483  0.00  0.00    +0.184 C 
ATOM      6  C   UNL     1      32.697 -23.723 -13.887  0.00  0.00    +0.038 C 
ATOM      7  C   UNL     1      32.892 -23.426 -15.233  0.00  0.00    +0.038 C 
ATOM      8  C   UNL     1      31.449 -24.036 -13.386  0.00  0.00    +0.003 C 
ATOM      9  C   UNL     1      31.846 -23.426 -16.135  0.00  0.00    +0.003 C 
ATOM     10  C   UNL     1      30.378 -24.040 -14.284  0.00  0.00    +0.000 C 
ATOM     11  C   UNL     1      30.575 -23.738 -15.645  0.00  0.00    +0.000 C 
ENDROOT
BRANCH   3  12
ATOM     12  C   UNL     1      36.169 -24.216 -14.214  0.00  0.00    -0.008 C 
ATOM     13  C   UNL     1      37.469 -23.815 -13.896  0.00  0.00    -0.000 C 
ATOM     14  C   UNL     1      35.924 -25.541 -14.584  0.00  0.00    -0.000 C 
ATOM     15  C   UNL     1      38.518 -24.734 -13.950  0.00  0.00    +0.037 C 
ATOM     16  C   UNL     1      36.973 -26.459 -14.637  0.00  0.00    +0.037 C 
ATOM     17  C   UNL     1      38.270 -26.055 -14.320  0.00  0.00    +0.139 C 
BRANCH  17  18
ATOM     18  O   UNL     1      39.294 -26.950 -14.369  0.00  0.00    -0.471 OA
ATOM     19  C   UNL     1      40.602 -26.455 -14.089  0.00  0.00    +0.252 C 
ENDBRANCH  17  18
ENDBRANCH   3  12
TORSDOF 2
ENDMDL
MODEL 3
REMARK VINA RESULT:      -8.7      7.485      9.572
REMARK  Name = 2197
REMARK  2 active torsions:
REMARK  status: ('A' for Active; 'I' for Inactive)
REMARK    1  A    between atoms: C_3  and  C_12
REMARK    2  A    between atoms: C_17  and  O_18
REMARK                            x       y       z     vdW  Elec       q    Type
REMARK                         _______ _______ _______ _____ _____    ______ ____
ROOT
ATOM      1  O   UNL     1      34.111 -23.824 -12.200  0.00  0.00    -0.291 OA
ATOM      2  O   UNL     1      35.023 -22.732 -16.727  0.00  0.00    -0.291 OA
ATOM      3  C   UNL     1      35.169 -23.136 -14.308  0.00  0.00    +0.146 C 
ATOM      4  C   UNL     1      34.033 -23.546 -13.382  0.00  0.00    +0.184 C 
ATOM      5  C   UNL     1      34.494 -22.996 -15.664  0.00  0.00    +0.184 C 
ATOM      6  C   UNL     1      32.793 -23.559 -14.160  0.00  0.00    +0.038 C 
ATOM      7  C   UNL     1      33.061 -23.240 -15.488  0.00  0.00    +0.038 C 
ATOM      8  C   UNL     1      31.513 -23.846 -13.727  0.00  0.00    +0.003 C 
ATOM      9  C   UNL     1      32.060 -23.191 -16.440  0.00  0.00    +0.003 C 
ATOM     10  C   UNL     1      30.488 -23.801 -14.675  0.00  0.00    +0.000 C 
ATOM     11  C   UNL     1      30.759 -23.477 -16.019  0.00  0.00    +0.000 C 
ENDROOT
BRANCH   3  12
ATOM     12  C   UNL     1      36.261 -24.146 -14.331  0.00  0.00    -0.008 C 
ATOM     13  C   UNL     1      35.962 -25.497 -14.523  0.00  0.00    -0.000 C 
ATOM     14  C   UNL     1      37.589 -23.747 -14.162  0.00  0.00    -0.000 C 
ATOM     15  C   UNL     1      36.986 -26.444 -14.544  0.00  0.00    +0.037 C 
ATOM     16  C   UNL     1      38.612 -24.695 -14.183  0.00  0.00    +0.037 C 
ATOM     17  C   UNL     1      38.311 -26.043 -14.374  0.00  0.00    +0.139 C 
BRANCH  17  18
ATOM     18  O   UNL     1      39.309 -26.969 -14.396  0.00  0.00    -0.471 OA
ATOM     19  C   UNL     1      40.628 -26.506 -14.111  0.00  0.00    +0.252 C 
ENDBRANCH  17  18
ENDBRANCH   3  12
TORSDOF 2
ENDMDL
MODEL 4
REMARK VINA RESULT:      -8.6      3.139      7.074
REMARK  Name = 2197
REMARK  2 active torsions:
REMARK  status: ('A' for Active; 'I' for Inactive)
REMARK    1  A    between atoms: C_3  and  C_12
REMARK    2  A    between atoms: C_17  and  O_18
REMARK                            x       y       z     vdW  Elec       q    Type
REMARK                         _______ _______ _______ _____ _____    ______ ____
ROOT
ATOM      1  O   UNL     1      34.585 -15.622 -24.902  0.00  0.00    -0.291 OA
ATOM      2  O   UNL     1      35.176 -15.696 -20.194  0.00  0.00    -0.291 OA
ATOM      3  C   UNL     1      34.997 -15.032 -22.553  0.00  0.00    +0.146 C 
ATOM      4  C   UNL     1      34.753 -15.949 -23.742  0.00  0.00    +0.184 C 
ATOM      5  C   UNL     1      35.050 -15.985 -21.369  0.00  0.00    +0.184 C 
ATOM      6  C   UNL     1      34.748 -17.332 -23.258  0.00  0.00    +0.038 C 
ATOM      7  C   UNL     1      34.920 -17.353 -21.877  0.00  0.00    +0.038 C 
ATOM      8  C   UNL     1      34.589 -18.494 -23.988  0.00  0.00    +0.003 C 
ATOM      9  C   UNL     1      34.944 -18.537 -21.166  0.00  0.00    +0.003 C 
ATOM     10  C   UNL     1      34.611 -19.702 -23.285  0.00  0.00    +0.000 C 
ATOM     11  C   UNL     1      34.787 -19.723 -21.889  0.00  0.00    +0.000 C 
ENDROOT
BRANCH   3  12
ATOM     12  C   UNL     1      33.919 -14.018 -22.402  0.00  0.00    -0.008 C 
ATOM     13  C   UNL     1      33.839 -12.942 -23.290  0.00  0.00    -0.000 C 
ATOM     14  C   UNL     1      32.982 -14.137 -21.372  0.00  0.00    -0.000 C 
ATOM     15  C   UNL     1      32.829 -11.990 -23.148  0.00  0.00    +0.037 C 
ATOM     16  C   UNL     1      31.973 -13.185 -21.231  0.00  0.00    +0.037 C 
ATOM     17  C   UNL     1      31.896 -12.112 -22.119  0.00  0.00    +0.139 C 
BRANCH  17  18
ATOM     18  O   UNL     1      30.910 -11.183 -21.982  0.00  0.00    -0.471 OA
ATOM     19  C   UNL     1      31.197  -9.862 -22.438  0.00  0.00    +0.252 C 
ENDBRANCH  17  18
ENDBRANCH   3  12
TORSDOF 2
ENDMDL
MODEL 5
REMARK VINA RESULT:      -8.5      8.590     10.654
REMARK  Name = 2197
REMARK  2 active torsions:
REMARK  status: ('A' for Active; 'I' for Inactive)
REMARK    1  A    between atoms: C_3  and  C_12
REMARK    2  A    between atoms: C_17  and  O_18
REMARK                            x       y       z     vdW  Elec       q    Type
REMARK                         _______ _______ _______ _____ _____    ______ ____
ROOT
ATOM      1  O   UNL     1      35.236 -23.988 -16.015  0.00  0.00    -0.291 OA
ATOM      2  O   UNL     1      34.504 -23.687 -11.336  0.00  0.00    -0.291 OA
ATOM      3  C   UNL     1      34.432 -23.384 -13.773  0.00  0.00    +0.146 C 
ATOM      4  C   UNL     1      35.316 -24.072 -14.804  0.00  0.00    +0.184 C 
ATOM      5  C   UNL     1      34.946 -23.920 -12.445  0.00  0.00    +0.184 C 
ATOM      6  C   UNL     1      36.307 -24.879 -14.089  0.00  0.00    +0.038 C 
ATOM      7  C   UNL     1      36.091 -24.791 -12.716  0.00  0.00    +0.038 C 
ATOM      8  C   UNL     1      37.325 -25.650 -14.616  0.00  0.00    +0.003 C 
ATOM      9  C   UNL     1      36.886 -25.468 -11.811  0.00  0.00    +0.003 C 
ATOM     10  C   UNL     1      38.140 -26.341 -13.715  0.00  0.00    +0.000 C 
ATOM     11  C   UNL     1      37.922 -26.251 -12.327  0.00  0.00    +0.000 C 
ENDROOT
BRANCH   3  12
ATOM     12  C   UNL     1      32.992 -23.696 -13.979  0.00  0.00    -0.008 C 
ATOM     13  C   UNL     1      32.161 -22.775 -14.623  0.00  0.00    -0.000 C 
ATOM     14  C   UNL     1      32.465 -24.909 -13.530  0.00  0.00    -0.000 C 
ATOM     15  C   UNL     1      30.810 -23.067 -14.815  0.00  0.00    +0.037 C 
ATOM     16  C   UNL     1      31.115 -25.200 -13.722  0.00  0.00    +0.037 C 
ATOM     17  C   UNL     1      30.287 -24.278 -14.365  0.00  0.00    +0.139 C 
BRANCH  17  18
ATOM     18  O   UNL     1      28.970 -24.562 -14.554  0.00  0.00    -0.471 OA
ATOM     19  C   UNL     1      28.296 -23.850 -15.591  0.00  0.00    +0.252 C 
ENDBRANCH  17  18
ENDBRANCH   3  12
TORSDOF 2
ENDMDL
MODEL 6
REMARK VINA RESULT:      -8.5      7.057     11.002
REMARK  Name = 2197
REMARK  2 active torsions:
REMARK  status: ('A' for Active; 'I' for Inactive)
REMARK    1  A    between atoms: C_3  and  C_12
REMARK    2  A    between atoms: C_17  and  O_18
REMARK                            x       y       z     vdW  Elec       q    Type
REMARK                         _______ _______ _______ _____ _____    ______ ____
ROOT
ATOM      1  O   UNL     1      30.177 -11.169 -20.436  0.00  0.00    -0.291 OA
ATOM      2  O   UNL     1      33.309 -10.784 -23.980  0.00  0.00    -0.291 OA
ATOM      3  C   UNL     1      31.390 -10.514 -22.469  0.00  0.00    +0.146 C 
ATOM      4  C   UNL     1      31.080 -11.344 -21.232  0.00  0.00    +0.184 C 
ATOM      5  C   UNL     1      32.659 -11.149 -23.019  0.00  0.00    +0.184 C 
ATOM      6  C   UNL     1      32.071 -12.419 -21.144  0.00  0.00    +0.038 C 
ATOM      7  C   UNL     1      32.990 -12.304 -22.183  0.00  0.00    +0.038 C 
ATOM      8  C   UNL     1      32.163 -13.423 -20.200  0.00  0.00    +0.003 C 
ATOM      9  C   UNL     1      34.039 -13.192 -22.325  0.00  0.00    +0.003 C 
ATOM     10  C   UNL     1      33.217 -14.332 -20.329  0.00  0.00    +0.000 C 
ATOM     11  C   UNL     1      34.146 -14.217 -21.381  0.00  0.00    +0.000 C 
ENDROOT
BRANCH   3  12
ATOM     12  C   UNL     1      31.585  -9.076 -22.141  0.00  0.00    -0.008 C 
ATOM     13  C   UNL     1      32.404  -8.706 -21.071  0.00  0.00    -0.000 C 
ATOM     14  C   UNL     1      30.950  -8.091 -22.901  0.00  0.00    -0.000 C 
ATOM     15  C   UNL     1      32.585  -7.358 -20.763  0.00  0.00    +0.037 C 
ATOM     16  C   UNL     1      31.131  -6.743 -22.592  0.00  0.00    +0.037 C 
ATOM     17  C   UNL     1      31.949  -6.376 -21.523  0.00  0.00    +0.139 C 
BRANCH  17  18
ATOM     18  O   UNL     1      32.129  -5.061 -21.222  0.00  0.00    -0.471 OA
ATOM     19  C   UNL     1      31.148  -4.145 -21.707  0.00  0.00    +0.252 C 
ENDBRANCH  17  18
ENDBRANCH   3  12
TORSDOF 2
ENDMDL
MODEL 7
REMARK VINA RESULT:      -8.3      4.993      9.308
REMARK  Name = 2197
REMARK  2 active torsions:
REMARK  status: ('A' for Active; 'I' for Inactive)
REMARK    1  A    between atoms: C_3  and  C_12
REMARK    2  A    between atoms: C_17  and  O_18
REMARK                            x       y       z     vdW  Elec       q    Type
REMARK                         _______ _______ _______ _____ _____    ______ ____
ROOT
ATOM      1  O   UNL     1      32.411 -12.518 -20.240  0.00  0.00    -0.291 OA
ATOM      2  O   UNL     1      33.243 -13.555 -24.795  0.00  0.00    -0.291 OA
ATOM      3  C   UNL     1      32.400 -12.598 -22.695  0.00  0.00    +0.146 C 
ATOM      4  C   UNL     1      32.762 -13.036 -21.284  0.00  0.00    +0.184 C 
ATOM      5  C   UNL     1      33.181 -13.557 -23.580  0.00  0.00    +0.184 C 
ATOM      6  C   UNL     1      33.629 -14.212 -21.379  0.00  0.00    +0.038 C 
ATOM      7  C   UNL     1      33.874 -14.515 -22.716  0.00  0.00    +0.038 C 
ATOM      8  C   UNL     1      34.177 -14.958 -20.354  0.00  0.00    +0.003 C 
ATOM      9  C   UNL     1      34.674 -15.579 -23.084  0.00  0.00    +0.003 C 
ATOM     10  C   UNL     1      34.988 -16.039 -20.708  0.00  0.00    +0.000 C 
ATOM     11  C   UNL     1      35.235 -16.347 -22.059  0.00  0.00    +0.000 C 
ENDROOT
BRANCH   3  12
ATOM     12  C   UNL     1      32.769 -11.180 -22.950  0.00  0.00    -0.008 C 
ATOM     13  C   UNL     1      31.816 -10.169 -22.803  0.00  0.00    -0.000 C 
ATOM     14  C   UNL     1      34.071 -10.852 -23.338  0.00  0.00    -0.000 C 
ATOM     15  C   UNL     1      32.162  -8.840 -23.043  0.00  0.00    +0.037 C 
ATOM     16  C   UNL     1      34.417  -9.523 -23.578  0.00  0.00    +0.037 C 
ATOM     17  C   UNL     1      33.462  -8.516 -23.430  0.00  0.00    +0.139 C 
BRANCH  17  18
ATOM     18  O   UNL     1      33.799  -7.218 -23.663  0.00  0.00    -0.471 OA
ATOM     19  C   UNL     1      35.163  -6.854 -23.453  0.00  0.00    +0.252 C 
ENDBRANCH  17  18
ENDBRANCH   3  12
TORSDOF 2
ENDMDL
MODEL 8
REMARK VINA RESULT:      -8.2      5.617      8.336
REMARK  Name = 2197
REMARK  2 active torsions:
REMARK  status: ('A' for Active; 'I' for Inactive)
REMARK    1  A    between atoms: C_3  and  C_12
REMARK    2  A    between atoms: C_17  and  O_18
REMARK                            x       y       z     vdW  Elec       q    Type
REMARK                         _______ _______ _______ _____ _____    ______ ____
ROOT
ATOM      1  O   UNL     1      33.061 -11.006 -24.037  0.00  0.00    -0.291 OA
ATOM      2  O   UNL     1      30.988 -10.705 -19.779  0.00  0.00    -0.291 OA
ATOM      3  C   UNL     1      31.814 -11.454 -21.969  0.00  0.00    +0.146 C 
ATOM      4  C   UNL     1      32.581 -10.623 -22.987  0.00  0.00    +0.184 C 
ATOM      5  C   UNL     1      31.536 -10.473 -20.840  0.00  0.00    +0.184 C 
ATOM      6  C   UNL     1      32.658  -9.248 -22.488  0.00  0.00    +0.038 C 
ATOM      7  C   UNL     1      32.050  -9.161 -21.239  0.00  0.00    +0.038 C 
ATOM      8  C   UNL     1      33.237  -8.149 -23.092  0.00  0.00    +0.003 C 
ATOM      9  C   UNL     1      31.993  -7.970 -20.541  0.00  0.00    +0.003 C 
ATOM     10  C   UNL     1      33.187  -6.936 -22.401  0.00  0.00    +0.000 C 
ATOM     11  C   UNL     1      32.572  -6.847 -21.138  0.00  0.00    +0.000 C 
ENDROOT
BRANCH   3  12
ATOM     12  C   UNL     1      32.599 -12.629 -21.504  0.00  0.00    -0.008 C 
ATOM     13  C   UNL     1      32.182 -13.351 -20.383  0.00  0.00    -0.000 C 
ATOM     14  C   UNL     1      33.755 -13.015 -22.186  0.00  0.00    -0.000 C 
ATOM     15  C   UNL     1      32.919 -14.452 -19.946  0.00  0.00    +0.037 C 
ATOM     16  C   UNL     1      34.491 -14.116 -21.749  0.00  0.00    +0.037 C 
ATOM     17  C   UNL     1      34.073 -14.835 -20.629  0.00  0.00    +0.139 C 
BRANCH  17  18
ATOM     18  O   UNL     1      34.790 -15.910 -20.203  0.00  0.00    -0.471 OA
ATOM     19  C   UNL     1      35.248 -16.822 -21.201  0.00  0.00    +0.252 C 
ENDBRANCH  17  18
ENDBRANCH   3  12
TORSDOF 2
ENDMDL
MODEL 9
REMARK VINA RESULT:      -8.1      6.361      9.168
REMARK  Name = 2197
REMARK  2 active torsions:
REMARK  status: ('A' for Active; 'I' for Inactive)
REMARK    1  A    between atoms: C_3  and  C_12
REMARK    2  A    between atoms: C_17  and  O_18
REMARK                            x       y       z     vdW  Elec       q    Type
REMARK                         _______ _______ _______ _____ _____    ______ ____
ROOT
ATOM      1  O   UNL     1      30.554 -10.430 -22.675  0.00  0.00    -0.291 OA
ATOM      2  O   UNL     1      32.637 -10.048 -18.428  0.00  0.00    -0.291 OA
ATOM      3  C   UNL     1      31.404 -10.830 -20.405  0.00  0.00    +0.146 C 
ATOM      4  C   UNL     1      31.094 -10.029 -21.661  0.00  0.00    +0.184 C 
ATOM      5  C   UNL     1      32.144  -9.837 -19.521  0.00  0.00    +0.184 C 
ATOM      6  C   UNL     1      31.564  -8.657 -21.456  0.00  0.00    +0.038 C 
ATOM      7  C   UNL     1      32.176  -8.546 -20.210  0.00  0.00    +0.038 C 
ATOM      8  C   UNL     1      31.470  -7.581 -22.317  0.00  0.00    +0.003 C 
ATOM      9  C   UNL     1      32.717  -7.353 -19.771  0.00  0.00    +0.003 C 
ATOM     10  C   UNL     1      32.011  -6.366 -21.888  0.00  0.00    +0.000 C 
ATOM     11  C   UNL     1      32.629  -6.253 -20.628  0.00  0.00    +0.000 C 
ENDROOT
BRANCH   3  12
ATOM     12  C   UNL     1      32.228 -12.032 -20.701  0.00  0.00    -0.008 C 
ATOM     13  C   UNL     1      32.977 -12.097 -21.879  0.00  0.00    -0.000 C 
ATOM     14  C   UNL     1      32.256 -13.102 -19.803  0.00  0.00    -0.000 C 
ATOM     15  C   UNL     1      33.748 -13.225 -22.157  0.00  0.00    +0.037 C 
ATOM     16  C   UNL     1      33.027 -14.230 -20.081  0.00  0.00    +0.037 C 
ATOM     17  C   UNL     1      33.773 -14.292 -21.259  0.00  0.00    +0.139 C 
BRANCH  17  18
ATOM     18  O   UNL     1      34.528 -15.392 -21.531  0.00  0.00    -0.471 OA
ATOM     19  C   UNL     1      34.952 -15.569 -22.881  0.00  0.00    +0.252 C 
ENDBRANCH  17  18
ENDBRANCH   3  12
TORSDOF 2
ENDMDL
