MODEL 1
REMARK VINA RESULT:     -11.2      0.000      0.000
REMARK  Name = 44144378
REMARK  5 active torsions:
REMARK  status: ('A' for Active; 'I' for Inactive)
REMARK    1  A    between atoms: C_1  and  C_3
REMARK    2  A    between atoms: C_1  and  C_18
REMARK    3  A    between atoms: C_4  and  C_9
REMARK    4  A    between atoms: C_8  and  O_16
REMARK    5  A    between atoms: C_19  and  C_24
REMARK                            x       y       z     vdW  Elec       q    Type
REMARK                         _______ _______ _______ _____ _____    ______ ____
ROOT
ATOM      1  C   UNL     1      32.705 -24.125 -13.452  0.00  0.00    +0.086 C 
ATOM      2  C   UNL     1      31.848 -25.336 -13.033  0.00  0.00    +0.019 C 
ENDROOT
BRANCH   1   3
ATOM      3  C   UNL     1      32.261 -23.529 -14.745  0.00  0.00    -0.007 C 
ATOM      4  C   UNL     1      32.791 -22.507 -16.869  0.00  0.00    +0.003 C 
ATOM      5  C   UNL     1      33.206 -23.064 -15.659  0.00  0.00    -0.003 C 
ATOM      6  C   UNL     1      30.901 -23.439 -15.040  0.00  0.00    +0.034 C 
ATOM      7  C   UNL     1      31.430 -22.416 -17.165  0.00  0.00    +0.037 C 
ATOM      8  C   UNL     1      30.485 -22.881 -16.250  0.00  0.00    +0.138 C 
BRANCH   4   9
ATOM      9  C   UNL     1      33.771 -22.024 -17.819  0.00  0.00    +0.000 C 
ATOM     10  C   UNL     1      33.356 -21.379 -18.983  0.00  0.00    -0.000 C 
ATOM     11  C   UNL     1      35.132 -22.205 -17.568  0.00  0.00    -0.000 C 
ATOM     12  C   UNL     1      35.661 -21.094 -19.648  0.00  0.00    -0.022 C 
ATOM     13  C   UNL     1      34.300 -20.913 -19.898  0.00  0.00    -0.004 C 
ATOM     14  C   UNL     1      36.076 -21.740 -18.483  0.00  0.00    -0.004 C 
ATOM     15  C   UNL     1      36.671 -20.597 -20.625  0.00  0.00    +0.031 C 
ENDBRANCH   4   9
BRANCH   8  16
ATOM     16  O   UNL     1      29.158 -22.792 -16.538  0.00  0.00    -0.471 OA
ATOM     17  C   UNL     1      28.255 -22.772 -15.433  0.00  0.00    +0.252 C 
ENDBRANCH   8  16
ENDBRANCH   1   3
BRANCH   1  18
ATOM     18  C   UNL     1      34.139 -24.511 -13.470  0.00  0.00    -0.087 C 
ATOM     19  C   UNL     1      35.296 -24.835 -13.506  0.00  0.00    -0.076 C 
BRANCH  19  24
ATOM     20  N   UNL     1      38.962 -24.816 -12.935  0.00  0.00    -0.336 NA
ATOM     21  N   UNL     1      38.398 -26.726 -14.293  0.00  0.00    -0.317 NA
ATOM     22  N   UNL     1      36.154 -27.140 -14.911  0.00  0.00    -0.334 N 
ATOM     23  N   UNL     1      40.621 -26.303 -13.673  0.00  0.00    -0.283 N 
ATOM     24  C   UNL     1      36.671 -25.221 -13.553  0.00  0.00    +0.179 C 
ATOM     25  C   UNL     1      37.653 -24.490 -12.917  0.00  0.00    +0.120 C 
ATOM     26  C   UNL     1      37.107 -26.341 -14.233  0.00  0.00    +0.186 C 
ATOM     27  C   UNL     1      37.315 -23.255 -12.145  0.00  0.00    +0.064 C 
ATOM     28  C   UNL     1      39.260 -25.930 -13.632  0.00  0.00    +0.196 C 
ATOM     29  H   UNL     1      36.444 -27.943 -15.401  0.00  0.00    +0.144 HD
ATOM     30  H   UNL     1      35.201 -26.895 -14.891  0.00  0.00    +0.144 HD
ATOM     31  H   UNL     1      41.295 -25.757 -13.207  0.00  0.00    +0.156 HD
ATOM     32  H   UNL     1      40.896 -27.108 -14.168  0.00  0.00    +0.156 HD
ENDBRANCH  19  24
ENDBRANCH   1  18
TORSDOF 5
ENDMDL
MODEL 2
REMARK VINA RESULT:     -10.7      4.109      6.788
REMARK  Name = 44144378
REMARK  5 active torsions:
REMARK  status: ('A' for Active; 'I' for Inactive)
REMARK    1  A    between atoms: C_1  and  C_3
REMARK    2  A    between atoms: C_1  and  C_18
REMARK    3  A    between atoms: C_4  and  C_9
REMARK    4  A    between atoms: C_8  and  O_16
REMARK    5  A    between atoms: C_19  and  C_24
REMARK                            x       y       z     vdW  Elec       q    Type
REMARK                         _______ _______ _______ _____ _____    ______ ____
ROOT
ATOM      1  C   UNL     1      34.510 -24.611 -13.618  0.00  0.00    +0.086 C 
ATOM      2  C   UNL     1      34.623 -24.154 -12.151  0.00  0.00    +0.019 C 
ENDROOT
BRANCH   1   3
ATOM      3  C   UNL     1      35.578 -24.031 -14.482  0.00  0.00    -0.007 C 
ATOM      4  C   UNL     1      36.233 -22.765 -16.433  0.00  0.00    +0.003 C 
ATOM      5  C   UNL     1      35.234 -23.308 -15.625  0.00  0.00    -0.003 C 
ATOM      6  C   UNL     1      36.919 -24.209 -14.147  0.00  0.00    +0.034 C 
ATOM      7  C   UNL     1      37.576 -22.943 -16.098  0.00  0.00    +0.037 C 
ATOM      8  C   UNL     1      37.919 -23.666 -14.955  0.00  0.00    +0.138 C 
BRANCH   4   9
ATOM      9  C   UNL     1      35.877 -22.014 -17.619  0.00  0.00    +0.000 C 
ATOM     10  C   UNL     1      36.795 -21.132 -18.188  0.00  0.00    -0.000 C 
ATOM     11  C   UNL     1      34.616 -22.176 -18.192  0.00  0.00    -0.000 C 
ATOM     12  C   UNL     1      35.191 -20.570 -19.904  0.00  0.00    -0.022 C 
ATOM     13  C   UNL     1      36.453 -20.409 -19.330  0.00  0.00    -0.004 C 
ATOM     14  C   UNL     1      34.273 -21.453 -19.335  0.00  0.00    -0.004 C 
ATOM     15  C   UNL     1      34.824 -19.797 -21.126  0.00  0.00    +0.031 C 
ENDBRANCH   4   9
BRANCH   8  16
ATOM     16  O   UNL     1      39.228 -23.841 -14.628  0.00  0.00    -0.471 OA
ATOM     17  C   UNL     1      39.692 -25.185 -14.500  0.00  0.00    +0.252 C 
ENDBRANCH   8  16
ENDBRANCH   1   3
BRANCH   1  18
ATOM     18  C   UNL     1      33.147 -24.317 -14.129  0.00  0.00    -0.087 C 
ATOM     19  C   UNL     1      32.046 -24.056 -14.533  0.00  0.00    -0.076 C 
BRANCH  19  24
ATOM     20  N   UNL     1      29.327 -22.607 -16.602  0.00  0.00    -0.336 NA
ATOM     21  N   UNL     1      28.343 -23.940 -14.851  0.00  0.00    -0.317 NA
ATOM     22  N   UNL     1      29.711 -25.062 -13.282  0.00  0.00    -0.334 N 
ATOM     23  N   UNL     1      26.998 -22.822 -16.415  0.00  0.00    -0.283 N 
ATOM     24  C   UNL     1      30.737 -23.741 -15.014  0.00  0.00    +0.179 C 
ATOM     25  C   UNL     1      30.542 -22.931 -16.114  0.00  0.00    +0.120 C 
ATOM     26  C   UNL     1      29.589 -24.222 -14.417  0.00  0.00    +0.186 C 
ATOM     27  C   UNL     1      31.703 -22.344 -16.852  0.00  0.00    +0.064 C 
ATOM     28  C   UNL     1      28.286 -23.138 -15.932  0.00  0.00    +0.196 C 
ATOM     29  H   UNL     1      28.904 -25.415 -12.842  0.00  0.00    +0.144 HD
ATOM     30  H   UNL     1      30.602 -25.293 -12.933  0.00  0.00    +0.144 HD
ATOM     31  H   UNL     1      26.897 -22.239 -17.202  0.00  0.00    +0.156 HD
ATOM     32  H   UNL     1      26.201 -23.183 -15.964  0.00  0.00    +0.156 HD
ENDBRANCH  19  24
ENDBRANCH   1  18
TORSDOF 5
ENDMDL
MODEL 3
REMARK VINA RESULT:     -10.5     11.745     14.588
REMARK  Name = 44144378
REMARK  5 active torsions:
REMARK  status: ('A' for Active; 'I' for Inactive)
REMARK    1  A    between atoms: C_1  and  C_3
REMARK    2  A    between atoms: C_1  and  C_18
REMARK    3  A    between atoms: C_4  and  C_9
REMARK    4  A    between atoms: C_8  and  O_16
REMARK    5  A    between atoms: C_19  and  C_24
REMARK                            x       y       z     vdW  Elec       q    Type
REMARK                         _______ _______ _______ _____ _____    ______ ____
ROOT
ATOM      1  C   UNL     1      33.411 -11.684 -23.688  0.00  0.00    +0.086 C 
ATOM      2  C   UNL     1      34.602 -10.969 -24.355  0.00  0.00    +0.019 C 
ENDROOT
BRANCH   1   3
ATOM      3  C   UNL     1      32.795 -10.875 -22.597  0.00  0.00    -0.007 C 
ATOM      4  C   UNL     1      32.002  -8.752 -21.758  0.00  0.00    +0.003 C 
ATOM      5  C   UNL     1      32.579  -9.509 -22.779  0.00  0.00    -0.003 C 
ATOM      6  C   UNL     1      32.432 -11.485 -21.396  0.00  0.00    +0.034 C 
ATOM      7  C   UNL     1      31.640  -9.362 -20.557  0.00  0.00    +0.037 C 
ATOM      8  C   UNL     1      31.856 -10.728 -20.375  0.00  0.00    +0.138 C 
BRANCH   4   9
ATOM      9  C   UNL     1      31.778  -7.334 -21.947  0.00  0.00    +0.000 C 
ATOM     10  C   UNL     1      32.260  -6.422 -21.008  0.00  0.00    -0.000 C 
ATOM     11  C   UNL     1      31.082  -6.882 -23.067  0.00  0.00    -0.000 C 
ATOM     12  C   UNL     1      31.347  -4.603 -22.310  0.00  0.00    -0.022 C 
ATOM     13  C   UNL     1      32.045  -5.056 -21.189  0.00  0.00    -0.004 C 
ATOM     14  C   UNL     1      30.866  -5.516 -23.248  0.00  0.00    -0.004 C 
ATOM     15  C   UNL     1      31.116  -3.142 -22.504  0.00  0.00    +0.031 C 
ENDBRANCH   4   9
BRANCH   8  16
ATOM     16  O   UNL     1      31.503 -11.323 -19.203  0.00  0.00    -0.471 OA
ATOM     17  C   UNL     1      31.602 -10.533 -18.019  0.00  0.00    +0.252 C 
ENDBRANCH   8  16
ENDBRANCH   1   3
BRANCH   1  18
ATOM     18  C   UNL     1      33.833 -13.030 -23.223  0.00  0.00    -0.087 C 
ATOM     19  C   UNL     1      34.195 -14.117 -22.861  0.00  0.00    -0.076 C 
BRANCH  19  24
ATOM     20  N   UNL     1      35.213 -16.915 -20.645  0.00  0.00    -0.336 NA
ATOM     21  N   UNL     1      35.314 -17.662 -22.935  0.00  0.00    -0.317 NA
ATOM     22  N   UNL     1      34.746 -16.198 -24.703  0.00  0.00    -0.334 N 
ATOM     23  N   UNL     1      35.875 -19.104 -21.172  0.00  0.00    -0.283 N 
ATOM     24  C   UNL     1      34.630 -15.410 -22.431  0.00  0.00    +0.179 C 
ATOM     25  C   UNL     1      34.804 -15.711 -21.096  0.00  0.00    +0.120 C 
ATOM     26  C   UNL     1      34.903 -16.434 -23.315  0.00  0.00    +0.186 C 
ATOM     27  C   UNL     1      34.542 -14.689 -20.036  0.00  0.00    +0.064 C 
ATOM     28  C   UNL     1      35.447 -17.831 -21.605  0.00  0.00    +0.196 C 
ATOM     29  H   UNL     1      34.936 -16.916 -25.349  0.00  0.00    +0.144 HD
ATOM     30  H   UNL     1      34.447 -15.316 -25.022  0.00  0.00    +0.144 HD
ATOM     31  H   UNL     1      35.990 -19.284 -20.210  0.00  0.00    +0.156 HD
ATOM     32  H   UNL     1      36.061 -19.812 -21.830  0.00  0.00    +0.156 HD
ENDBRANCH  19  24
ENDBRANCH   1  18
TORSDOF 5
ENDMDL
MODEL 4
REMARK VINA RESULT:     -10.3     11.756     14.694
REMARK  Name = 44144378
REMARK  5 active torsions:
REMARK  status: ('A' for Active; 'I' for Inactive)
REMARK    1  A    between atoms: C_1  and  C_3
REMARK    2  A    between atoms: C_1  and  C_18
REMARK    3  A    between atoms: C_4  and  C_9
REMARK    4  A    between atoms: C_8  and  O_16
REMARK    5  A    between atoms: C_19  and  C_24
REMARK                            x       y       z     vdW  Elec       q    Type
REMARK                         _______ _______ _______ _____ _____    ______ ____
ROOT
ATOM      1  C   UNL     1      33.412 -11.568 -23.603  0.00  0.00    +0.086 C 
ATOM      2  C   UNL     1      34.609 -10.845 -24.251  0.00  0.00    +0.019 C 
ENDROOT
BRANCH   1   3
ATOM      3  C   UNL     1      32.776 -10.764 -22.520  0.00  0.00    -0.007 C 
ATOM      4  C   UNL     1      31.974  -8.643 -21.684  0.00  0.00    +0.003 C 
ATOM      5  C   UNL     1      32.570  -9.395 -22.697  0.00  0.00    -0.003 C 
ATOM      6  C   UNL     1      32.384 -11.380 -21.333  0.00  0.00    +0.034 C 
ATOM      7  C   UNL     1      31.583  -9.260 -20.495  0.00  0.00    +0.037 C 
ATOM      8  C   UNL     1      31.788 -10.629 -20.319  0.00  0.00    +0.138 C 
BRANCH   4   9
ATOM      9  C   UNL     1      31.761  -7.223 -21.866  0.00  0.00    +0.000 C 
ATOM     10  C   UNL     1      30.971  -6.767 -22.921  0.00  0.00    -0.000 C 
ATOM     11  C   UNL     1      32.345  -6.312 -20.987  0.00  0.00    -0.000 C 
ATOM     12  C   UNL     1      31.350  -4.486 -22.218  0.00  0.00    -0.022 C 
ATOM     13  C   UNL     1      30.765  -5.398 -23.097  0.00  0.00    -0.004 C 
ATOM     14  C   UNL     1      32.140  -4.944 -21.163  0.00  0.00    -0.004 C 
ATOM     15  C   UNL     1      31.130  -3.023 -22.406  0.00  0.00    +0.031 C 
ENDBRANCH   4   9
BRANCH   8  16
ATOM     16  O   UNL     1      31.407 -11.231 -19.160  0.00  0.00    -0.471 OA
ATOM     17  C   UNL     1      31.656 -10.520 -17.947  0.00  0.00    +0.252 C 
ENDBRANCH   8  16
ENDBRANCH   1   3
BRANCH   1  18
ATOM     18  C   UNL     1      33.834 -12.912 -23.135  0.00  0.00    -0.087 C 
ATOM     19  C   UNL     1      34.186 -14.004 -22.777  0.00  0.00    -0.076 C 
BRANCH  19  24
ATOM     20  N   UNL     1      35.225 -17.565 -22.902  0.00  0.00    -0.336 NA
ATOM     21  N   UNL     1      35.224 -16.837 -20.604  0.00  0.00    -0.317 NA
ATOM     22  N   UNL     1      34.621 -14.620 -20.046  0.00  0.00    -0.334 N 
ATOM     23  N   UNL     1      35.820 -19.034 -21.172  0.00  0.00    -0.283 N 
ATOM     24  C   UNL     1      34.608 -15.303 -22.354  0.00  0.00    +0.179 C 
ATOM     25  C   UNL     1      34.827 -16.325 -23.255  0.00  0.00    +0.120 C 
ATOM     26  C   UNL     1      34.825 -15.620 -21.028  0.00  0.00    +0.186 C 
ATOM     27  C   UNL     1      34.628 -16.113 -24.722  0.00  0.00    +0.064 C 
ATOM     28  C   UNL     1      35.402 -17.749 -21.580  0.00  0.00    +0.196 C 
ATOM     29  H   UNL     1      34.770 -14.827 -19.095  0.00  0.00    +0.144 HD
ATOM     30  H   UNL     1      34.330 -13.718 -20.313  0.00  0.00    +0.144 HD
ATOM     31  H   UNL     1      35.965 -19.740 -21.844  0.00  0.00    +0.156 HD
ATOM     32  H   UNL     1      35.964 -19.225 -20.218  0.00  0.00    +0.156 HD
ENDBRANCH  19  24
ENDBRANCH   1  18
TORSDOF 5
ENDMDL
MODEL 5
REMARK VINA RESULT:     -10.2      3.996      7.186
REMARK  Name = 44144378
REMARK  5 active torsions:
REMARK  status: ('A' for Active; 'I' for Inactive)
REMARK    1  A    between atoms: C_1  and  C_3
REMARK    2  A    between atoms: C_1  and  C_18
REMARK    3  A    between atoms: C_4  and  C_9
REMARK    4  A    between atoms: C_8  and  O_16
REMARK    5  A    between atoms: C_19  and  C_24
REMARK                            x       y       z     vdW  Elec       q    Type
REMARK                         _______ _______ _______ _____ _____    ______ ____
ROOT
ATOM      1  C   UNL     1      36.955 -22.834 -14.903  0.00  0.00    +0.086 C 
ATOM      2  C   UNL     1      38.087 -23.859 -15.114  0.00  0.00    +0.019 C 
ENDROOT
BRANCH   1   3
ATOM      3  C   UNL     1      35.808 -23.399 -14.136  0.00  0.00    -0.007 C 
ATOM      4  C   UNL     1      33.450 -23.898 -13.962  0.00  0.00    +0.003 C 
ATOM      5  C   UNL     1      34.523 -23.369 -14.679  0.00  0.00    -0.003 C 
ATOM      6  C   UNL     1      36.019 -23.959 -12.877  0.00  0.00    +0.034 C 
ATOM      7  C   UNL     1      33.662 -24.457 -12.701  0.00  0.00    +0.037 C 
ATOM      8  C   UNL     1      34.946 -24.487 -12.158  0.00  0.00    +0.138 C 
BRANCH   4   9
ATOM      9  C   UNL     1      32.117 -23.867 -14.525  0.00  0.00    +0.000 C 
ATOM     10  C   UNL     1      31.800 -22.938 -15.516  0.00  0.00    -0.000 C 
ATOM     11  C   UNL     1      31.150 -24.767 -14.077  0.00  0.00    -0.000 C 
ATOM     12  C   UNL     1      29.548 -23.808 -15.611  0.00  0.00    -0.022 C 
ATOM     13  C   UNL     1      30.516 -22.908 -16.059  0.00  0.00    -0.004 C 
ATOM     14  C   UNL     1      29.866 -24.738 -14.621  0.00  0.00    -0.004 C 
ATOM     15  C   UNL     1      28.175 -23.776 -16.191  0.00  0.00    +0.031 C 
ENDBRANCH   4   9
BRANCH   8  16
ATOM     16  O   UNL     1      35.153 -25.033 -10.929  0.00  0.00    -0.471 OA
ATOM     17  C   UNL     1      35.937 -24.276 -10.007  0.00  0.00    +0.252 C 
ENDBRANCH   8  16
ENDBRANCH   1   3
BRANCH   1  18
ATOM     18  C   UNL     1      36.538 -22.275 -16.214  0.00  0.00    -0.087 C 
ATOM     19  C   UNL     1      36.184 -21.809 -17.264  0.00  0.00    -0.076 C 
BRANCH  19  24
ATOM     20  N   UNL     1      34.192 -21.195 -20.334  0.00  0.00    -0.336 NA
ATOM     21  N   UNL     1      36.077 -19.693 -20.319  0.00  0.00    -0.317 NA
ATOM     22  N   UNL     1      37.631 -19.732 -18.537  0.00  0.00    -0.334 N 
ATOM     23  N   UNL     1      34.528 -19.665 -22.081  0.00  0.00    -0.283 N 
ATOM     24  C   UNL     1      35.762 -21.249 -18.510  0.00  0.00    +0.179 C 
ATOM     25  C   UNL     1      34.627 -21.692 -19.158  0.00  0.00    +0.120 C 
ATOM     26  C   UNL     1      36.455 -20.238 -19.144  0.00  0.00    +0.186 C 
ATOM     27  C   UNL     1      33.786 -22.784 -18.577  0.00  0.00    +0.064 C 
ATOM     28  C   UNL     1      34.954 -20.212 -20.851  0.00  0.00    +0.196 C 
ATOM     29  H   UNL     1      38.139 -19.010 -18.973  0.00  0.00    +0.144 HD
ATOM     30  H   UNL     1      37.941 -20.101 -17.679  0.00  0.00    +0.144 HD
ATOM     31  H   UNL     1      33.713 -20.006 -22.516  0.00  0.00    +0.156 HD
ATOM     32  H   UNL     1      35.047 -18.944 -22.505  0.00  0.00    +0.156 HD
ENDBRANCH  19  24
ENDBRANCH   1  18
TORSDOF 5
ENDMDL
MODEL 6
REMARK VINA RESULT:     -10.1      2.654      4.691
REMARK  Name = 44144378
REMARK  5 active torsions:
REMARK  status: ('A' for Active; 'I' for Inactive)
REMARK    1  A    between atoms: C_1  and  C_3
REMARK    2  A    between atoms: C_1  and  C_18
REMARK    3  A    between atoms: C_4  and  C_9
REMARK    4  A    between atoms: C_8  and  O_16
REMARK    5  A    between atoms: C_19  and  C_24
REMARK                            x       y       z     vdW  Elec       q    Type
REMARK                         _______ _______ _______ _____ _____    ______ ____
ROOT
ATOM      1  C   UNL     1      37.495 -21.266 -17.537  0.00  0.00    +0.086 C 
ATOM      2  C   UNL     1      37.918 -19.907 -16.945  0.00  0.00    +0.019 C 
ENDROOT
BRANCH   1   3
ATOM      3  C   UNL     1      36.254 -21.171 -18.358  0.00  0.00    -0.007 C 
ATOM      4  C   UNL     1      35.033 -20.194 -20.200  0.00  0.00    +0.003 C 
ATOM      5  C   UNL     1      36.194 -20.282 -19.431  0.00  0.00    -0.003 C 
ATOM      6  C   UNL     1      35.155 -21.973 -18.054  0.00  0.00    +0.034 C 
ATOM      7  C   UNL     1      33.933 -20.996 -19.895  0.00  0.00    +0.037 C 
ATOM      8  C   UNL     1      33.993 -21.886 -18.823  0.00  0.00    +0.138 C 
BRANCH   4   9
ATOM      9  C   UNL     1      34.970 -19.271 -21.313  0.00  0.00    +0.000 C 
ATOM     10  C   UNL     1      34.479 -19.699 -22.547  0.00  0.00    -0.000 C 
ATOM     11  C   UNL     1      35.399 -17.954 -21.152  0.00  0.00    -0.000 C 
ATOM     12  C   UNL     1      34.848 -17.492 -23.459  0.00  0.00    -0.022 C 
ATOM     13  C   UNL     1      34.418 -18.810 -23.620  0.00  0.00    -0.004 C 
ATOM     14  C   UNL     1      35.338 -17.065 -22.225  0.00  0.00    -0.004 C 
ATOM     15  C   UNL     1      34.783 -16.542 -24.606  0.00  0.00    +0.031 C 
ENDBRANCH   4   9
BRANCH   8  16
ATOM     16  O   UNL     1      32.920 -22.668 -18.525  0.00  0.00    -0.471 OA
ATOM     17  C   UNL     1      32.721 -23.002 -17.152  0.00  0.00    +0.252 C 
ENDBRANCH   8  16
ENDBRANCH   1   3
BRANCH   1  18
ATOM     18  C   UNL     1      37.378 -22.269 -16.449  0.00  0.00    -0.087 C 
ATOM     19  C   UNL     1      37.306 -23.085 -15.569  0.00  0.00    -0.076 C 
BRANCH  19  24
ATOM     20  N   UNL     1      35.968 -25.103 -12.757  0.00  0.00    -0.336 NA
ATOM     21  N   UNL     1      38.221 -25.823 -13.226  0.00  0.00    -0.317 NA
ATOM     22  N   UNL     1      39.472 -24.805 -14.955  0.00  0.00    -0.334 N 
ATOM     23  N   UNL     1      36.968 -26.824 -11.513  0.00  0.00    -0.283 N 
ATOM     24  C   UNL     1      37.226 -24.054 -14.522  0.00  0.00    +0.179 C 
ATOM     25  C   UNL     1      36.089 -24.203 -13.754  0.00  0.00    +0.120 C 
ATOM     26  C   UNL     1      38.271 -24.900 -14.209  0.00  0.00    +0.186 C 
ATOM     27  C   UNL     1      34.884 -23.349 -13.990  0.00  0.00    +0.064 C 
ATOM     28  C   UNL     1      37.057 -25.869 -12.549  0.00  0.00    +0.196 C 
ATOM     29  H   UNL     1      40.229 -25.399 -14.748  0.00  0.00    +0.144 HD
ATOM     30  H   UNL     1      39.550 -24.145 -15.682  0.00  0.00    +0.144 HD
ATOM     31  H   UNL     1      36.140 -26.902 -10.985  0.00  0.00    +0.156 HD
ATOM     32  H   UNL     1      37.734 -27.411 -11.318  0.00  0.00    +0.156 HD
ENDBRANCH  19  24
ENDBRANCH   1  18
TORSDOF 5
ENDMDL
MODEL 7
REMARK VINA RESULT:     -10.0      3.994      6.742
REMARK  Name = 44144378
REMARK  5 active torsions:
REMARK  status: ('A' for Active; 'I' for Inactive)
REMARK    1  A    between atoms: C_1  and  C_3
REMARK    2  A    between atoms: C_1  and  C_18
REMARK    3  A    between atoms: C_4  and  C_9
REMARK    4  A    between atoms: C_8  and  O_16
REMARK    5  A    between atoms: C_19  and  C_24
REMARK                            x       y       z     vdW  Elec       q    Type
REMARK                         _______ _______ _______ _____ _____    ______ ____
ROOT
ATOM      1  C   UNL     1      32.246 -23.189 -17.107  0.00  0.00    +0.086 C 
ATOM      2  C   UNL     1      30.926 -22.426 -16.879  0.00  0.00    +0.019 C 
ENDROOT
BRANCH   1   3
ATOM      3  C   UNL     1      32.875 -23.637 -15.831  0.00  0.00    -0.007 C 
ATOM      4  C   UNL     1      34.832 -24.320 -14.590  0.00  0.00    +0.003 C 
ATOM      5  C   UNL     1      34.243 -23.902 -15.784  0.00  0.00    -0.003 C 
ATOM      6  C   UNL     1      32.095 -23.789 -14.685  0.00  0.00    +0.034 C 
ATOM      7  C   UNL     1      34.052 -24.473 -13.443  0.00  0.00    +0.037 C 
ATOM      8  C   UNL     1      32.683 -24.208 -13.491  0.00  0.00    +0.138 C 
BRANCH   4   9
ATOM      9  C   UNL     1      36.253 -24.596 -14.540  0.00  0.00    +0.000 C 
ATOM     10  C   UNL     1      37.165 -23.629 -14.963  0.00  0.00    -0.000 C 
ATOM     11  C   UNL     1      36.708 -25.827 -14.069  0.00  0.00    -0.000 C 
ATOM     12  C   UNL     1      38.989 -25.126 -14.445  0.00  0.00    -0.022 C 
ATOM     13  C   UNL     1      38.534 -23.894 -14.915  0.00  0.00    -0.004 C 
ATOM     14  C   UNL     1      38.076 -26.092 -14.022  0.00  0.00    -0.004 C 
ATOM     15  C   UNL     1      40.453 -25.409 -14.394  0.00  0.00    +0.031 C 
ENDBRANCH   4   9
BRANCH   8  16
ATOM     16  O   UNL     1      31.921 -24.357 -12.373  0.00  0.00    -0.471 OA
ATOM     17  C   UNL     1      30.524 -24.577 -12.564  0.00  0.00    +0.252 C 
ENDBRANCH   8  16
ENDBRANCH   1   3
BRANCH   1  18
ATOM     18  C   UNL     1      33.165 -22.363 -17.930  0.00  0.00    -0.087 C 
ATOM     19  C   UNL     1      33.891 -21.678 -18.600  0.00  0.00    -0.076 C 
BRANCH  19  24
ATOM     20  N   UNL     1      36.953 -20.005 -19.863  0.00  0.00    -0.336 NA
ATOM     21  N   UNL     1      35.083 -19.336 -21.230  0.00  0.00    -0.317 NA
ATOM     22  N   UNL     1      32.913 -20.165 -20.786  0.00  0.00    -0.334 N 
ATOM     23  N   UNL     1      37.241 -18.522 -21.659  0.00  0.00    -0.283 N 
ATOM     24  C   UNL     1      34.752 -20.860 -19.396  0.00  0.00    +0.179 C 
ATOM     25  C   UNL     1      36.104 -20.765 -19.140  0.00  0.00    +0.120 C 
ATOM     26  C   UNL     1      34.292 -20.116 -20.464  0.00  0.00    +0.186 C 
ATOM     27  C   UNL     1      36.729 -21.520 -18.011  0.00  0.00    +0.064 C 
ATOM     28  C   UNL     1      36.383 -19.328 -20.879  0.00  0.00    +0.196 C 
ATOM     29  H   UNL     1      32.566 -19.641 -21.544  0.00  0.00    +0.144 HD
ATOM     30  H   UNL     1      32.302 -20.721 -20.252  0.00  0.00    +0.144 HD
ATOM     31  H   UNL     1      38.202 -18.478 -21.447  0.00  0.00    +0.156 HD
ATOM     32  H   UNL     1      36.879 -18.005 -22.414  0.00  0.00    +0.156 HD
ENDBRANCH  19  24
ENDBRANCH   1  18
TORSDOF 5
ENDMDL
MODEL 8
REMARK VINA RESULT:     -10.0      2.804      4.722
REMARK  Name = 44144378
REMARK  5 active torsions:
REMARK  status: ('A' for Active; 'I' for Inactive)
REMARK    1  A    between atoms: C_1  and  C_3
REMARK    2  A    between atoms: C_1  and  C_18
REMARK    3  A    between atoms: C_4  and  C_9
REMARK    4  A    between atoms: C_8  and  O_16
REMARK    5  A    between atoms: C_19  and  C_24
REMARK                            x       y       z     vdW  Elec       q    Type
REMARK                         _______ _______ _______ _____ _____    ______ ____
ROOT
ATOM      1  C   UNL     1      37.083 -21.676 -17.442  0.00  0.00    +0.086 C 
ATOM      2  C   UNL     1      37.857 -20.381 -17.127  0.00  0.00    +0.019 C 
ENDROOT
BRANCH   1   3
ATOM      3  C   UNL     1      35.864 -21.428 -18.265  0.00  0.00    -0.007 C 
ATOM      4  C   UNL     1      34.773 -20.304 -20.105  0.00  0.00    +0.003 C 
ATOM      5  C   UNL     1      35.914 -20.535 -19.335  0.00  0.00    -0.003 C 
ATOM      6  C   UNL     1      34.674 -22.092 -17.966  0.00  0.00    +0.034 C 
ATOM      7  C   UNL     1      33.583 -20.967 -19.805  0.00  0.00    +0.037 C 
ATOM      8  C   UNL     1      33.533 -21.861 -18.735  0.00  0.00    +0.138 C 
BRANCH   4   9
ATOM      9  C   UNL     1      34.825 -19.376 -21.215  0.00  0.00    +0.000 C 
ATOM     10  C   UNL     1      35.337 -18.092 -21.028  0.00  0.00    -0.000 C 
ATOM     11  C   UNL     1      34.363 -19.768 -22.472  0.00  0.00    -0.000 C 
ATOM     12  C   UNL     1      34.925 -17.590 -23.355  0.00  0.00    -0.022 C 
ATOM     13  C   UNL     1      35.387 -17.199 -22.098  0.00  0.00    -0.004 C 
ATOM     14  C   UNL     1      34.413 -18.874 -23.542  0.00  0.00    -0.004 C 
ATOM     15  C   UNL     1      34.978 -16.634 -24.499  0.00  0.00    +0.031 C 
ENDBRANCH   4   9
BRANCH   8  16
ATOM     16  O   UNL     1      32.373 -22.508 -18.442  0.00  0.00    -0.471 OA
ATOM     17  C   UNL     1      32.128 -22.813 -17.069  0.00  0.00    +0.252 C 
ENDBRANCH   8  16
ENDBRANCH   1   3
BRANCH   1  18
ATOM     18  C   UNL     1      36.776 -22.394 -16.179  0.00  0.00    -0.087 C 
ATOM     19  C   UNL     1      36.535 -22.956 -15.145  0.00  0.00    -0.076 C 
BRANCH  19  24
ATOM     20  N   UNL     1      36.984 -24.977 -12.065  0.00  0.00    -0.336 NA
ATOM     21  N   UNL     1      34.702 -24.208 -12.162  0.00  0.00    -0.317 NA
ATOM     22  N   UNL     1      33.959 -22.874 -13.968  0.00  0.00    -0.334 N 
ATOM     23  N   UNL     1      35.452 -25.531 -10.376  0.00  0.00    -0.283 N 
ATOM     24  C   UNL     1      36.247 -23.620 -13.911  0.00  0.00    +0.179 C 
ATOM     25  C   UNL     1      37.210 -24.335 -13.230  0.00  0.00    +0.120 C 
ATOM     26  C   UNL     1      34.998 -23.590 -13.325  0.00  0.00    +0.186 C 
ATOM     27  C   UNL     1      38.605 -24.445 -13.758  0.00  0.00    +0.064 C 
ATOM     28  C   UNL     1      35.726 -24.873 -11.595  0.00  0.00    +0.196 C 
ATOM     29  H   UNL     1      33.061 -22.841 -13.565  0.00  0.00    +0.144 HD
ATOM     30  H   UNL     1      34.134 -22.409 -14.818  0.00  0.00    +0.144 HD
ATOM     31  H   UNL     1      36.164 -26.033  -9.917  0.00  0.00    +0.156 HD
ATOM     32  H   UNL     1      34.549 -25.489  -9.986  0.00  0.00    +0.156 HD
ENDBRANCH  19  24
ENDBRANCH   1  18
TORSDOF 5
ENDMDL
MODEL 9
REMARK VINA RESULT:      -9.2      4.106      7.480
REMARK  Name = 44144378
REMARK  5 active torsions:
REMARK  status: ('A' for Active; 'I' for Inactive)
REMARK    1  A    between atoms: C_1  and  C_3
REMARK    2  A    between atoms: C_1  and  C_18
REMARK    3  A    between atoms: C_4  and  C_9
REMARK    4  A    between atoms: C_8  and  O_16
REMARK    5  A    between atoms: C_19  and  C_24
REMARK                            x       y       z     vdW  Elec       q    Type
REMARK                         _______ _______ _______ _____ _____    ______ ____
ROOT
ATOM      1  C   UNL     1      37.008 -22.298 -15.549  0.00  0.00    +0.086 C 
ATOM      2  C   UNL     1      38.260 -23.155 -15.822  0.00  0.00    +0.019 C 
ENDROOT
BRANCH   1   3
ATOM      3  C   UNL     1      35.994 -23.013 -14.721  0.00  0.00    -0.007 C 
ATOM      4  C   UNL     1      33.688 -23.532 -14.224  0.00  0.00    +0.003 C 
ATOM      5  C   UNL     1      34.636 -22.862 -14.998  0.00  0.00    -0.003 C 
ATOM      6  C   UNL     1      36.405 -23.833 -13.671  0.00  0.00    +0.034 C 
ATOM      7  C   UNL     1      34.099 -24.352 -13.173  0.00  0.00    +0.037 C 
ATOM      8  C   UNL     1      35.457 -24.503 -12.896  0.00  0.00    +0.138 C 
BRANCH   4   9
ATOM      9  C   UNL     1      32.277 -23.376 -14.512  0.00  0.00    +0.000 C 
ATOM     10  C   UNL     1      31.338 -23.519 -13.491  0.00  0.00    -0.000 C 
ATOM     11  C   UNL     1      31.859 -23.082 -15.810  0.00  0.00    -0.000 C 
ATOM     12  C   UNL     1      29.560 -23.075 -15.066  0.00  0.00    -0.022 C 
ATOM     13  C   UNL     1      29.979 -23.369 -13.768  0.00  0.00    -0.004 C 
ATOM     14  C   UNL     1      30.501 -22.932 -16.087  0.00  0.00    -0.004 C 
ATOM     15  C   UNL     1      28.107 -22.915 -15.363  0.00  0.00    +0.031 C 
ENDBRANCH   4   9
BRANCH   8  16
ATOM     16  O   UNL     1      35.858 -25.303 -11.871  0.00  0.00    -0.471 OA
ATOM     17  C   UNL     1      37.128 -25.943 -12.005  0.00  0.00    +0.252 C 
ENDBRANCH   8  16
ENDBRANCH   1   3
BRANCH   1  18
ATOM     18  C   UNL     1      36.446 -21.810 -16.834  0.00  0.00    -0.087 C 
ATOM     19  C   UNL     1      35.979 -21.399 -17.862  0.00  0.00    -0.076 C 
BRANCH  19  24
ATOM     20  N   UNL     1      35.683 -19.663 -21.128  0.00  0.00    -0.336 NA
ATOM     21  N   UNL     1      33.568 -20.695 -20.603  0.00  0.00    -0.317 NA
ATOM     22  N   UNL     1      33.294 -21.919 -18.599  0.00  0.00    -0.334 N 
ATOM     23  N   UNL     1      33.855 -19.478 -22.588  0.00  0.00    -0.283 N 
ATOM     24  C   UNL     1      35.423 -20.906 -19.083  0.00  0.00    +0.179 C 
ATOM     25  C   UNL     1      36.166 -20.150 -19.966  0.00  0.00    +0.120 C 
ATOM     26  C   UNL     1      34.117 -21.149 -19.457  0.00  0.00    +0.186 C 
ATOM     27  C   UNL     1      37.595 -19.814 -19.680  0.00  0.00    +0.064 C 
ATOM     28  C   UNL     1      34.395 -19.969 -21.380  0.00  0.00    +0.196 C 
ATOM     29  H   UNL     1      32.359 -22.104 -18.848  0.00  0.00    +0.144 HD
ATOM     30  H   UNL     1      33.655 -22.270 -17.753  0.00  0.00    +0.144 HD
ATOM     31  H   UNL     1      34.415 -18.940 -23.195  0.00  0.00    +0.156 HD
ATOM     32  H   UNL     1      32.919 -19.671 -22.823  0.00  0.00    +0.156 HD
ENDBRANCH  19  24
ENDBRANCH   1  18
TORSDOF 5
ENDMDL
