MODEL 1
REMARK VINA RESULT:     -11.9      0.000      0.000
REMARK  Name = 10224714
REMARK  8 active torsions:
REMARK  status: ('A' for Active; 'I' for Inactive)
REMARK    1  A    between atoms: N_1  and  C_12
REMARK    2  A    between atoms: N_2  and  CA_30
REMARK    3  A    between atoms: N_15  and  C_17
REMARK    4  A    between atoms: C_17  and  C_18
REMARK    5  A    between atoms: C_21  and  C_25
REMARK    6  A    between atoms: CA_30  and  C_31
REMARK    7  A    between atoms: CA_30  and  C_33
REMARK    8  A    between atoms: C_33  and  O_34
REMARK                            x       y       z     vdW  Elec       q    Type
REMARK                         _______ _______ _______ _____ _____    ______ ____
ROOT
ATOM      1  N   UNL     1      31.414 -24.198 -14.780  0.00  0.00    -0.262 N 
ATOM      2  N   UNL     1      36.085 -24.186 -13.917  0.00  0.00    -0.258 N 
ATOM      3  N   UNL     1      33.760 -24.288 -14.157  0.00  0.00    -0.311 NA
ATOM      4  N   UNL     1      31.583 -23.195 -16.764  0.00  0.00    -0.240 NA
ATOM      5  N   UNL     1      35.173 -23.295 -15.882  0.00  0.00    -0.311 NA
ATOM      6  C   UNL     1      32.747 -23.974 -14.978  0.00  0.00    +0.220 C 
ATOM      7  C   UNL     1      32.829 -23.350 -16.213  0.00  0.00    +0.167 C 
ATOM      8  C   UNL     1      34.101 -23.007 -16.660  0.00  0.00    +0.215 C 
ATOM      9  C   UNL     1      34.966 -23.914 -14.679  0.00  0.00    +0.202 C 
ATOM     10  C   UNL     1      30.756 -23.713 -15.879  0.00  0.00    +0.222 C 
ATOM     11  H   UNL     1      36.966 -23.927 -14.274  0.00  0.00    +0.160 HD
ATOM     12  N   UNL     1      34.280 -22.371 -17.900  0.00  0.00    -0.302 N 
ATOM     13  H   UNL     1      33.483 -22.174 -18.446  0.00  0.00    +0.150 HD
ENDROOT
BRANCH   1  14
ATOM     14  C   UNL     1      30.805 -24.828 -13.634  0.00  0.00    +0.077 C 
ATOM     15  C   UNL     1      30.635 -23.852 -12.467  0.00  0.00    +0.022 C 
ATOM     16  C   UNL     1      29.485 -25.514 -13.991  0.00  0.00    +0.022 C 
ENDBRANCH   1  14
BRANCH  12  17
ATOM     17  C   UNL     1      35.566 -21.996 -18.409  0.00  0.00    +0.116 C 
BRANCH  17  18
ATOM     18  C   UNL     1      35.427 -20.915 -19.446  0.00  0.00    -0.003 C 
ATOM     19  C   UNL     1      34.187 -20.670 -20.019  0.00  0.00    -0.003 C 
ATOM     20  C   UNL     1      36.543 -20.176 -19.816  0.00  0.00    -0.003 C 
ATOM     21  C   UNL     1      35.173 -18.919 -21.361  0.00  0.00    +0.018 C 
ATOM     22  C   UNL     1      34.060 -19.668 -20.981  0.00  0.00    +0.001 C 
ATOM     23  C   UNL     1      36.415 -19.173 -20.778  0.00  0.00    +0.001 C 
BRANCH  21  25
ATOM     24  N   UNL     1      34.643 -18.308 -23.575  0.00  0.00    -0.244 NA
ATOM     25  C   UNL     1      35.040 -17.880 -22.358  0.00  0.00    +0.081 C 
ATOM     26  C   UNL     1      35.311 -16.558 -22.046  0.00  0.00    +0.019 C 
ATOM     27  C   UNL     1      35.162 -15.611 -23.053  0.00  0.00    +0.003 C 
ATOM     28  C   UNL     1      34.510 -17.359 -24.529  0.00  0.00    +0.099 C 
ATOM     29  C   UNL     1      34.755 -16.011 -24.321  0.00  0.00    +0.021 C 
ENDBRANCH  21  25
ENDBRANCH  17  18
ENDBRANCH  12  17
BRANCH   2  30
ATOM     30  CA  UNL     1      36.034 -24.833 -12.620  0.00  0.00    +0.109 C 
BRANCH  30  31
ATOM     31  C   UNL     1      36.133 -23.782 -11.508  0.00  0.00    +0.023 C 
ATOM     32  C   UNL     1      37.444 -23.007 -11.545  0.00  0.00    +0.002 C 
ENDBRANCH  30  31
BRANCH  30  33
ATOM     33  C   UNL     1      37.184 -25.836 -12.525  0.00  0.00    +0.157 C 
BRANCH  33  34
ATOM     34  O   UNL     1      37.091 -26.547 -11.296  0.00  0.00    -0.380 OA
ATOM     35  H   UNL     1      37.452 -27.440 -11.410  0.00  0.00    +0.211 HD
ENDBRANCH  33  34
ENDBRANCH  30  33
ENDBRANCH   2  30
TORSDOF 8
ENDMDL
MODEL 2
REMARK VINA RESULT:     -10.9      1.633      4.307
REMARK  Name = 10224714
REMARK  8 active torsions:
REMARK  status: ('A' for Active; 'I' for Inactive)
REMARK    1  A    between atoms: N_1  and  C_12
REMARK    2  A    between atoms: N_2  and  CA_30
REMARK    3  A    between atoms: N_15  and  C_17
REMARK    4  A    between atoms: C_17  and  C_18
REMARK    5  A    between atoms: C_21  and  C_25
REMARK    6  A    between atoms: CA_30  and  C_31
REMARK    7  A    between atoms: CA_30  and  C_33
REMARK    8  A    between atoms: C_33  and  O_34
REMARK                            x       y       z     vdW  Elec       q    Type
REMARK                         _______ _______ _______ _____ _____    ______ ____
ROOT
ATOM      1  N   UNL     1      36.208 -23.286 -13.212  0.00  0.00    -0.262 N 
ATOM      2  N   UNL     1      31.867 -24.185 -14.918  0.00  0.00    -0.258 N 
ATOM      3  N   UNL     1      33.933 -23.797 -13.889  0.00  0.00    -0.311 NA
ATOM      4  N   UNL     1      37.064 -22.674 -15.177  0.00  0.00    -0.240 NA
ATOM      5  N   UNL     1      33.618 -23.434 -16.282  0.00  0.00    -0.311 NA
ATOM      6  C   UNL     1      35.193 -23.401 -14.118  0.00  0.00    +0.220 C 
ATOM      7  C   UNL     1      35.745 -23.017 -15.330  0.00  0.00    +0.167 C 
ATOM      8  C   UNL     1      34.905 -23.043 -16.439  0.00  0.00    +0.215 C 
ATOM      9  C   UNL     1      33.186 -23.791 -15.033  0.00  0.00    +0.202 C 
ATOM     10  C   UNL     1      37.311 -22.847 -13.895  0.00  0.00    +0.222 C 
ATOM     11  H   UNL     1      31.309 -24.187 -15.730  0.00  0.00    +0.160 HD
ATOM     12  N   UNL     1      35.380 -22.671 -17.709  0.00  0.00    -0.302 N 
ATOM     13  H   UNL     1      36.321 -22.391 -17.794  0.00  0.00    +0.150 HD
ENDROOT
BRANCH   1  14
ATOM     14  C   UNL     1      36.142 -23.571 -11.799  0.00  0.00    +0.077 C 
ATOM     15  C   UNL     1      36.195 -25.074 -11.514  0.00  0.00    +0.022 C 
ATOM     16  C   UNL     1      37.209 -22.811 -11.010  0.00  0.00    +0.022 C 
ENDBRANCH   1  14
BRANCH  12  17
ATOM     17  C   UNL     1      34.560 -22.680 -18.883  0.00  0.00    +0.116 C 
BRANCH  17  18
ATOM     18  C   UNL     1      34.653 -21.360 -19.600  0.00  0.00    -0.003 C 
ATOM     19  C   UNL     1      35.900 -20.819 -19.882  0.00  0.00    -0.003 C 
ATOM     20  C   UNL     1      33.489 -20.700 -19.970  0.00  0.00    -0.003 C 
ATOM     21  C   UNL     1      34.822 -18.924 -20.922  0.00  0.00    +0.018 C 
ATOM     22  C   UNL     1      35.985 -19.596 -20.545  0.00  0.00    +0.001 C 
ATOM     23  C   UNL     1      33.574 -19.475 -20.635  0.00  0.00    +0.001 C 
BRANCH  21  25
ATOM     24  N   UNL     1      34.872 -16.569 -20.809  0.00  0.00    -0.244 NA
ATOM     25  C   UNL     1      34.912 -17.655 -21.611  0.00  0.00    +0.081 C 
ATOM     26  C   UNL     1      35.026 -17.602 -22.990  0.00  0.00    +0.019 C 
ATOM     27  C   UNL     1      35.107 -16.349 -23.586  0.00  0.00    +0.003 C 
ATOM     28  C   UNL     1      34.953 -15.368 -21.424  0.00  0.00    +0.099 C 
ATOM     29  C   UNL     1      35.071 -15.206 -22.796  0.00  0.00    +0.021 C 
ENDBRANCH  21  25
ENDBRANCH  17  18
ENDBRANCH  12  17
BRANCH   2  30
ATOM     30  CA  UNL     1      31.260 -24.596 -13.666  0.00  0.00    +0.109 C 
BRANCH  30  31
ATOM     31  C   UNL     1      30.049 -25.495 -13.946  0.00  0.00    +0.023 C 
ATOM     32  C   UNL     1      29.035 -24.845 -14.878  0.00  0.00    +0.002 C 
ENDBRANCH  30  31
BRANCH  30  33
ATOM     33  C   UNL     1      30.843 -23.347 -12.890  0.00  0.00    +0.157 C 
BRANCH  33  34
ATOM     34  O   UNL     1      31.932 -22.906 -12.086  0.00  0.00    -0.380 OA
ATOM     35  H   UNL     1      32.294 -22.085 -12.455  0.00  0.00    +0.211 HD
ENDBRANCH  33  34
ENDBRANCH  30  33
ENDBRANCH   2  30
TORSDOF 8
ENDMDL
MODEL 3
REMARK VINA RESULT:     -10.6      1.162      1.737
REMARK  Name = 10224714
REMARK  8 active torsions:
REMARK  status: ('A' for Active; 'I' for Inactive)
REMARK    1  A    between atoms: N_1  and  C_12
REMARK    2  A    between atoms: N_2  and  CA_30
REMARK    3  A    between atoms: N_15  and  C_17
REMARK    4  A    between atoms: C_17  and  C_18
REMARK    5  A    between atoms: C_21  and  C_25
REMARK    6  A    between atoms: CA_30  and  C_31
REMARK    7  A    between atoms: CA_30  and  C_33
REMARK    8  A    between atoms: C_33  and  O_34
REMARK                            x       y       z     vdW  Elec       q    Type
REMARK                         _______ _______ _______ _____ _____    ______ ____
ROOT
ATOM      1  N   UNL     1      32.095 -23.891 -14.959  0.00  0.00    -0.262 N 
ATOM      2  N   UNL     1      36.745 -23.296 -14.195  0.00  0.00    -0.258 N 
ATOM      3  N   UNL     1      34.441 -23.664 -14.376  0.00  0.00    -0.311 NA
ATOM      4  N   UNL     1      32.145 -23.127 -17.053  0.00  0.00    -0.240 NA
ATOM      5  N   UNL     1      35.732 -22.751 -16.235  0.00  0.00    -0.311 NA
ATOM      6  C   UNL     1      33.395 -23.558 -15.208  0.00  0.00    +0.220 C 
ATOM      7  C   UNL     1      33.404 -23.086 -16.511  0.00  0.00    +0.167 C 
ATOM      8  C   UNL     1      34.631 -22.672 -17.021  0.00  0.00    +0.215 C 
ATOM      9  C   UNL     1      35.598 -23.235 -14.962  0.00  0.00    +0.202 C 
ATOM     10  C   UNL     1      31.382 -23.614 -16.095  0.00  0.00    +0.222 C 
ATOM     11  H   UNL     1      37.591 -22.995 -14.597  0.00  0.00    +0.160 HD
ATOM     12  N   UNL     1      34.734 -22.177 -18.333  0.00  0.00    -0.302 N 
ATOM     13  H   UNL     1      33.918 -22.132 -18.883  0.00  0.00    +0.150 HD
ENDROOT
BRANCH   1  14
ATOM     14  C   UNL     1      31.561 -24.434 -13.733  0.00  0.00    +0.077 C 
ATOM     15  C   UNL     1      31.169 -23.335 -12.743  0.00  0.00    +0.022 C 
ATOM     16  C   UNL     1      30.404 -25.401 -13.990  0.00  0.00    +0.022 C 
ENDBRANCH   1  14
BRANCH  12  17
ATOM     17  C   UNL     1      35.971 -21.739 -18.908  0.00  0.00    +0.116 C 
BRANCH  17  18
ATOM     18  C   UNL     1      35.740 -20.567 -19.823  0.00  0.00    -0.003 C 
ATOM     19  C   UNL     1      36.809 -19.756 -20.181  0.00  0.00    -0.003 C 
ATOM     20  C   UNL     1      34.460 -20.310 -20.296  0.00  0.00    -0.003 C 
ATOM     21  C   UNL     1      35.313 -18.402 -21.510  0.00  0.00    +0.018 C 
ATOM     22  C   UNL     1      36.594 -18.669 -21.028  0.00  0.00    +0.001 C 
ATOM     23  C   UNL     1      34.246 -19.222 -21.144  0.00  0.00    +0.001 C 
BRANCH  21  25
ATOM     24  N   UNL     1      35.058 -16.073 -21.774  0.00  0.00    -0.244 NA
ATOM     25  C   UNL     1      35.091 -17.275 -22.389  0.00  0.00    +0.081 C 
ATOM     26  C   UNL     1      34.928 -17.459 -23.752  0.00  0.00    +0.019 C 
ATOM     27  C   UNL     1      34.719 -16.332 -24.537  0.00  0.00    +0.003 C 
ATOM     28  C   UNL     1      34.852 -15.000 -22.570  0.00  0.00    +0.099 C 
ATOM     29  C   UNL     1      34.679 -15.075 -23.944  0.00  0.00    +0.021 C 
ENDBRANCH  21  25
ENDBRANCH  17  18
ENDBRANCH  12  17
BRANCH   2  30
ATOM     30  CA  UNL     1      36.770 -23.782 -12.828  0.00  0.00    +0.109 C 
BRANCH  30  31
ATOM     31  C   UNL     1      37.911 -24.791 -12.654  0.00  0.00    +0.023 C 
ATOM     32  C   UNL     1      37.551 -25.930 -11.709  0.00  0.00    +0.002 C 
ENDBRANCH  30  31
BRANCH  30  33
ATOM     33  C   UNL     1      35.420 -24.425 -12.510  0.00  0.00    +0.157 C 
BRANCH  33  34
ATOM     34  O   UNL     1      34.728 -23.626 -11.557  0.00  0.00    -0.380 OA
ATOM     35  H   UNL     1      33.900 -23.304 -11.945  0.00  0.00    +0.211 HD
ENDBRANCH  33  34
ENDBRANCH  30  33
ENDBRANCH   2  30
TORSDOF 8
ENDMDL
