MODEL 1
REMARK VINA RESULT:     -11.8      0.000      0.000
REMARK  Name = 447546
REMARK  10 active torsions:
REMARK  status: ('A' for Active; 'I' for Inactive)
REMARK    1  A    between atoms: N_1  and  C_23
REMARK    2  A    between atoms: C_8  and  N_11
REMARK    3  A    between atoms: N_12  and  C_16
REMARK    4  A    between atoms: C_16  and  C_17
REMARK    5  A    between atoms: C_23  and  C_24
REMARK    6  A    between atoms: C_24  and  C_25
REMARK    7  A    between atoms: C_25  and  N_26
REMARK    8  A    between atoms: C_25  and  C_36
REMARK    9  A    between atoms: C_30  and  C_33
REMARK   10  A    between atoms: C_36  and  O_37
REMARK                            x       y       z     vdW  Elec       q    Type
REMARK                         _______ _______ _______ _____ _____    ______ ____
ROOT
ATOM      1  N   UNL     1      33.476 -23.348 -15.892  0.00  0.00    -0.286 N 
ATOM      2  C   UNL     1      34.334 -22.713 -16.762  0.00  0.00    +0.053 C 
ATOM      3  C   UNL     1      35.622 -22.844 -16.236  0.00  0.00    +0.015 C 
ATOM      4  C   UNL     1      34.175 -23.874 -14.839  0.00  0.00    +0.065 C 
ATOM      5  C   UNL     1      35.505 -23.579 -15.024  0.00  0.00    +0.017 C 
ATOM      6  C   UNL     1      34.072 -22.040 -17.961  0.00  0.00    +0.030 C 
ATOM      7  C   UNL     1      36.702 -22.275 -16.940  0.00  0.00    +0.003 C 
ATOM      8  C   UNL     1      35.160 -21.485 -18.641  0.00  0.00    +0.053 C 
ATOM      9  C   UNL     1      36.455 -21.601 -18.141  0.00  0.00    +0.015 C 
ENDROOT
BRANCH   8  11
ATOM     10  O   UNL     1      36.834 -19.424 -20.041  0.00  0.00    -0.252 OA
ATOM     11  N   UNL     1      34.943 -20.808 -19.842  0.00  0.00    -0.268 N 
ATOM     12  N   UNL     1      35.186 -19.404 -21.663  0.00  0.00    -0.285 N 
ATOM     13  C   UNL     1      35.760 -19.844 -20.465  0.00  0.00    +0.305 C 
ATOM     14  H   UNL     1      34.110 -21.034 -20.317  0.00  0.00    +0.156 HD
ATOM     15  H   UNL     1      34.323 -19.786 -21.938  0.00  0.00    +0.151 HD
BRANCH  12  16
ATOM     16  C   UNL     1      35.804 -18.414 -22.516  0.00  0.00    +0.118 C 
BRANCH  16  17
ATOM     17  C   UNL     1      35.297 -17.030 -22.229  0.00  0.00    -0.003 C 
ATOM     18  C   UNL     1      35.121 -16.611 -20.911  0.00  0.00    -0.003 C 
ATOM     19  C   UNL     1      35.003 -16.163 -23.282  0.00  0.00    -0.003 C 
ATOM     20  C   UNL     1      34.650 -15.325 -20.645  0.00  0.00    -0.000 C 
ATOM     21  C   UNL     1      34.532 -14.877 -23.016  0.00  0.00    -0.000 C 
ATOM     22  C   UNL     1      34.356 -14.459 -21.697  0.00  0.00    -0.000 C 
ENDBRANCH  16  17
ENDBRANCH  12  16
ENDBRANCH   8  11
BRANCH   1  23
ATOM     23  C   UNL     1      32.041 -23.452 -16.053  0.00  0.00    +0.097 C 
BRANCH  23  24
ATOM     24  C   UNL     1      31.232 -22.911 -14.866  0.00  0.00    +0.040 C 
BRANCH  24  25
ATOM     25  C   UNL     1      29.925 -23.677 -14.560  0.00  0.00    +0.091 C 
BRANCH  25  26
ATOM     26  N   UNL     1      28.891 -23.513 -15.596  0.00  0.00    -0.246 NA
ATOM     27  N   UNL     1      27.441 -23.892 -17.233  0.00  0.00    -0.251 NA
ATOM     28  C   UNL     1      28.235 -22.353 -15.923  0.00  0.00    +0.125 C 
ATOM     29  C   UNL     1      28.389 -24.421 -16.403  0.00  0.00    +0.201 C 
ATOM     30  C   UNL     1      27.330 -22.563 -16.937  0.00  0.00    +0.124 C 
BRANCH  30  33
ATOM     31  O   UNL     1      26.248 -20.473 -17.164  0.00  0.00    -0.269 OA
ATOM     32  N   UNL     1      25.788 -22.059 -18.735  0.00  0.00    -0.324 N 
ATOM     33  C   UNL     1      26.449 -21.642 -17.573  0.00  0.00    +0.257 C 
ATOM     34  H   UNL     1      25.173 -21.447 -19.198  0.00  0.00    +0.145 HD
ATOM     35  H   UNL     1      25.938 -22.966 -19.088  0.00  0.00    +0.145 HD
ENDBRANCH  30  33
ENDBRANCH  25  26
BRANCH  25  36
ATOM     36  C   UNL     1      30.215 -25.168 -14.321  0.00  0.00    +0.153 C 
BRANCH  36  37
ATOM     37  O   UNL     1      30.670 -25.359 -12.986  0.00  0.00    -0.381 OA
ATOM     38  H   UNL     1      30.035 -24.964 -12.369  0.00  0.00    +0.210 HD
ENDBRANCH  36  37
ENDBRANCH  25  36
ENDBRANCH  24  25
ENDBRANCH  23  24
ENDBRANCH   1  23
TORSDOF 10
ENDMDL
MODEL 2
REMARK VINA RESULT:     -11.7      4.214      6.822
REMARK  Name = 447546
REMARK  10 active torsions:
REMARK  status: ('A' for Active; 'I' for Inactive)
REMARK    1  A    between atoms: N_1  and  C_23
REMARK    2  A    between atoms: C_8  and  N_11
REMARK    3  A    between atoms: N_12  and  C_16
REMARK    4  A    between atoms: C_16  and  C_17
REMARK    5  A    between atoms: C_23  and  C_24
REMARK    6  A    between atoms: C_24  and  C_25
REMARK    7  A    between atoms: C_25  and  N_26
REMARK    8  A    between atoms: C_25  and  C_36
REMARK    9  A    between atoms: C_30  and  C_33
REMARK   10  A    between atoms: C_36  and  O_37
REMARK                            x       y       z     vdW  Elec       q    Type
REMARK                         _______ _______ _______ _____ _____    ______ ____
ROOT
ATOM      1  N   UNL     1      36.297 -23.215 -15.541  0.00  0.00    -0.286 N 
ATOM      2  C   UNL     1      35.723 -22.638 -16.651  0.00  0.00    +0.053 C 
ATOM      3  C   UNL     1      34.403 -23.094 -16.714  0.00  0.00    +0.015 C 
ATOM      4  C   UNL     1      35.389 -24.016 -14.901  0.00  0.00    +0.065 C 
ATOM      5  C   UNL     1      34.208 -23.961 -15.604  0.00  0.00    +0.017 C 
ATOM      6  C   UNL     1      36.264 -21.758 -17.595  0.00  0.00    +0.030 C 
ATOM      7  C   UNL     1      33.583 -22.650 -17.770  0.00  0.00    +0.003 C 
ATOM      8  C   UNL     1      35.430 -21.331 -18.633  0.00  0.00    +0.053 C 
ATOM      9  C   UNL     1      34.110 -21.768 -18.721  0.00  0.00    +0.015 C 
ENDROOT
BRANCH   8  11
ATOM     10  O   UNL     1      34.059 -19.991 -20.942  0.00  0.00    -0.252 OA
ATOM     11  N   UNL     1      35.931 -20.451 -19.594  0.00  0.00    -0.268 N 
ATOM     12  N   UNL     1      36.108 -19.023 -21.404  0.00  0.00    -0.285 N 
ATOM     13  C   UNL     1      35.247 -19.842 -20.665  0.00  0.00    +0.305 C 
ATOM     14  H   UNL     1      36.886 -20.225 -19.512  0.00  0.00    +0.156 HD
ATOM     15  H   UNL     1      37.047 -18.954 -21.121  0.00  0.00    +0.151 HD
BRANCH  12  16
ATOM     16  C   UNL     1      35.680 -18.272 -22.562  0.00  0.00    +0.118 C 
BRANCH  16  17
ATOM     17  C   UNL     1      35.248 -16.880 -22.201  0.00  0.00    -0.003 C 
ATOM     18  C   UNL     1      35.030 -15.935 -23.201  0.00  0.00    -0.003 C 
ATOM     19  C   UNL     1      35.064 -16.533 -20.862  0.00  0.00    -0.003 C 
ATOM     20  C   UNL     1      34.629 -14.642 -22.865  0.00  0.00    -0.000 C 
ATOM     21  C   UNL     1      34.662 -15.240 -20.525  0.00  0.00    -0.000 C 
ATOM     22  C   UNL     1      34.445 -14.295 -21.528  0.00  0.00    -0.000 C 
ENDBRANCH  16  17
ENDBRANCH  12  16
ENDBRANCH   8  11
BRANCH   1  23
ATOM     23  C   UNL     1      37.661 -23.016 -15.100  0.00  0.00    +0.097 C 
BRANCH  23  24
ATOM     24  C   UNL     1      38.573 -24.235 -15.296  0.00  0.00    +0.040 C 
BRANCH  24  25
ATOM     25  C   UNL     1      39.224 -24.781 -14.005  0.00  0.00    +0.091 C 
BRANCH  25  26
ATOM     26  N   UNL     1      38.254 -25.093 -12.942  0.00  0.00    -0.246 NA
ATOM     27  N   UNL     1      36.812 -26.139 -11.617  0.00  0.00    -0.251 NA
ATOM     28  C   UNL     1      37.787 -24.232 -11.980  0.00  0.00    +0.125 C 
ATOM     29  C   UNL     1      37.647 -26.233 -12.695  0.00  0.00    +0.201 C 
ATOM     30  C   UNL     1      36.891 -24.859 -11.146  0.00  0.00    +0.124 C 
BRANCH  30  33
ATOM     31  O   UNL     1      35.303 -24.986  -9.399  0.00  0.00    -0.269 OA
ATOM     32  N   UNL     1      36.482 -23.046  -9.594  0.00  0.00    -0.324 N 
ATOM     33  C   UNL     1      36.176 -24.341 -10.028  0.00  0.00    +0.257 C 
ATOM     34  H   UNL     1      36.006 -22.659  -8.825  0.00  0.00    +0.145 HD
ATOM     35  H   UNL     1      37.174 -22.521 -10.059  0.00  0.00    +0.145 HD
ENDBRANCH  30  33
ENDBRANCH  25  26
BRANCH  25  36
ATOM     36  C   UNL     1      40.094 -26.011 -14.316  0.00  0.00    +0.153 C 
BRANCH  36  37
ATOM     37  O   UNL     1      40.474 -25.993 -15.688  0.00  0.00    -0.381 OA
ATOM     38  H   UNL     1      41.434 -25.872 -15.754  0.00  0.00    +0.210 HD
ENDBRANCH  36  37
ENDBRANCH  25  36
ENDBRANCH  24  25
ENDBRANCH  23  24
ENDBRANCH   1  23
TORSDOF 10
ENDMDL
MODEL 3
REMARK VINA RESULT:     -11.4      3.569      7.434
REMARK  Name = 447546
REMARK  10 active torsions:
REMARK  status: ('A' for Active; 'I' for Inactive)
REMARK    1  A    between atoms: N_1  and  C_23
REMARK    2  A    between atoms: C_8  and  N_11
REMARK    3  A    between atoms: N_12  and  C_16
REMARK    4  A    between atoms: C_16  and  C_17
REMARK    5  A    between atoms: C_23  and  C_24
REMARK    6  A    between atoms: C_24  and  C_25
REMARK    7  A    between atoms: C_25  and  N_26
REMARK    8  A    between atoms: C_25  and  C_36
REMARK    9  A    between atoms: C_30  and  C_33
REMARK   10  A    between atoms: C_36  and  O_37
REMARK                            x       y       z     vdW  Elec       q    Type
REMARK                         _______ _______ _______ _____ _____    ______ ____
ROOT
ATOM      1  N   UNL     1      32.923 -24.574 -13.787  0.00  0.00    -0.286 N 
ATOM      2  C   UNL     1      32.335 -23.913 -14.842  0.00  0.00    +0.053 C 
ATOM      3  C   UNL     1      30.953 -23.994 -14.657  0.00  0.00    +0.015 C 
ATOM      4  C   UNL     1      31.964 -25.068 -12.945  0.00  0.00    +0.065 C 
ATOM      5  C   UNL     1      30.734 -24.725 -13.457  0.00  0.00    +0.017 C 
ATOM      6  C   UNL     1      32.915 -23.256 -15.934  0.00  0.00    +0.030 C 
ATOM      7  C   UNL     1      30.106 -23.392 -15.609  0.00  0.00    +0.003 C 
ATOM      8  C   UNL     1      32.053 -22.665 -16.863  0.00  0.00    +0.053 C 
ATOM      9  C   UNL     1      30.671 -22.730 -16.705  0.00  0.00    +0.015 C 
ENDROOT
BRANCH   8  11
ATOM     10  O   UNL     1      34.879 -22.527 -17.865  0.00  0.00    -0.252 OA
ATOM     11  N   UNL     1      32.590 -21.998 -17.966  0.00  0.00    -0.268 N 
ATOM     12  N   UNL     1      34.058 -21.178 -19.553  0.00  0.00    -0.285 N 
ATOM     13  C   UNL     1      33.930 -21.962 -18.401  0.00  0.00    +0.305 C 
ATOM     14  H   UNL     1      31.949 -21.488 -18.511  0.00  0.00    +0.156 HD
ATOM     15  H   UNL     1      33.251 -20.756 -19.925  0.00  0.00    +0.151 HD
BRANCH  12  16
ATOM     16  C   UNL     1      35.321 -20.961 -20.222  0.00  0.00    +0.118 C 
BRANCH  16  17
ATOM     17  C   UNL     1      35.271 -19.777 -21.145  0.00  0.00    -0.003 C 
ATOM     18  C   UNL     1      34.672 -19.894 -22.398  0.00  0.00    -0.003 C 
ATOM     19  C   UNL     1      35.825 -18.560 -20.747  0.00  0.00    -0.003 C 
ATOM     20  C   UNL     1      34.627 -18.794 -23.254  0.00  0.00    -0.000 C 
ATOM     21  C   UNL     1      35.780 -17.460 -21.604  0.00  0.00    -0.000 C 
ATOM     22  C   UNL     1      35.180 -17.578 -22.858  0.00  0.00    -0.000 C 
ENDBRANCH  16  17
ENDBRANCH  12  16
ENDBRANCH   8  11
BRANCH   1  23
ATOM     23  C   UNL     1      34.347 -24.734 -13.584  0.00  0.00    +0.097 C 
BRANCH  23  24
ATOM     24  C   UNL     1      34.896 -23.997 -12.354  0.00  0.00    +0.040 C 
BRANCH  24  25
ATOM     25  C   UNL     1      36.225 -24.553 -11.795  0.00  0.00    +0.091 C 
BRANCH  25  26
ATOM     26  N   UNL     1      37.309 -24.602 -12.791  0.00  0.00    -0.246 NA
ATOM     27  N   UNL     1      38.677 -24.121 -14.472  0.00  0.00    -0.251 NA
ATOM     28  C   UNL     1      38.258 -25.584 -12.922  0.00  0.00    +0.125 C 
ATOM     29  C   UNL     1      37.589 -23.736 -13.740  0.00  0.00    +0.201 C 
ATOM     30  C   UNL     1      39.119 -25.307 -13.959  0.00  0.00    +0.124 C 
BRANCH  30  33
ATOM     31  O   UNL     1      40.595 -26.078 -15.637  0.00  0.00    -0.269 OA
ATOM     32  N   UNL     1      40.986 -26.781 -13.505  0.00  0.00    -0.324 N 
ATOM     33  C   UNL     1      40.235 -26.053 -14.436  0.00  0.00    +0.257 C 
ATOM     34  H   UNL     1      41.763 -27.306 -13.802  0.00  0.00    +0.145 HD
ATOM     35  H   UNL     1      40.736 -26.768 -12.552  0.00  0.00    +0.145 HD
ENDBRANCH  30  33
ENDBRANCH  25  26
BRANCH  25  36
ATOM     36  C   UNL     1      36.668 -23.754 -10.558  0.00  0.00    +0.153 C 
BRANCH  36  37
ATOM     37  O   UNL     1      36.136 -24.355  -9.383  0.00  0.00    -0.381 OA
ATOM     38  H   UNL     1      36.251 -23.753  -8.632  0.00  0.00    +0.210 HD
ENDBRANCH  36  37
ENDBRANCH  25  36
ENDBRANCH  24  25
ENDBRANCH  23  24
ENDBRANCH   1  23
TORSDOF 10
ENDMDL
MODEL 4
REMARK VINA RESULT:     -11.0      5.928     11.810
REMARK  Name = 447546
REMARK  10 active torsions:
REMARK  status: ('A' for Active; 'I' for Inactive)
REMARK    1  A    between atoms: N_1  and  C_23
REMARK    2  A    between atoms: C_8  and  N_11
REMARK    3  A    between atoms: N_12  and  C_16
REMARK    4  A    between atoms: C_16  and  C_17
REMARK    5  A    between atoms: C_23  and  C_24
REMARK    6  A    between atoms: C_24  and  C_25
REMARK    7  A    between atoms: C_25  and  N_26
REMARK    8  A    between atoms: C_25  and  C_36
REMARK    9  A    between atoms: C_30  and  C_33
REMARK   10  A    between atoms: C_36  and  O_37
REMARK                            x       y       z     vdW  Elec       q    Type
REMARK                         _______ _______ _______ _____ _____    ______ ____
ROOT
ATOM      1  N   UNL     1      33.188 -13.417 -21.575  0.00  0.00    -0.286 N 
ATOM      2  C   UNL     1      33.907 -14.559 -21.849  0.00  0.00    +0.053 C 
ATOM      3  C   UNL     1      34.187 -14.549 -23.218  0.00  0.00    +0.015 C 
ATOM      4  C   UNL     1      33.007 -12.687 -22.719  0.00  0.00    +0.065 C 
ATOM      5  C   UNL     1      33.614 -13.362 -23.752  0.00  0.00    +0.017 C 
ATOM      6  C   UNL     1      34.325 -15.590 -20.999  0.00  0.00    +0.030 C 
ATOM      7  C   UNL     1      34.921 -15.619 -23.767  0.00  0.00    +0.003 C 
ATOM      8  C   UNL     1      35.052 -16.641 -21.568  0.00  0.00    +0.053 C 
ATOM      9  C   UNL     1      35.347 -16.656 -22.929  0.00  0.00    +0.015 C 
ENDROOT
BRANCH   8  11
ATOM     10  O   UNL     1      34.895 -19.610 -21.971  0.00  0.00    -0.252 OA
ATOM     11  N   UNL     1      35.490 -17.688 -20.755  0.00  0.00    -0.268 N 
ATOM     12  N   UNL     1      35.956 -19.795 -19.925  0.00  0.00    -0.285 N 
ATOM     13  C   UNL     1      35.395 -19.075 -20.985  0.00  0.00    +0.305 C 
ATOM     14  H   UNL     1      35.922 -17.422 -19.911  0.00  0.00    +0.156 HD
ATOM     15  H   UNL     1      36.339 -19.295 -19.169  0.00  0.00    +0.151 HD
BRANCH  12  16
ATOM     16  C   UNL     1      36.000 -21.239 -19.889  0.00  0.00    +0.118 C 
BRANCH  16  17
ATOM     17  C   UNL     1      35.725 -21.775 -18.514  0.00  0.00    -0.003 C 
ATOM     18  C   UNL     1      36.700 -21.686 -17.522  0.00  0.00    -0.003 C 
ATOM     19  C   UNL     1      34.492 -22.363 -18.229  0.00  0.00    -0.003 C 
ATOM     20  C   UNL     1      36.443 -22.185 -16.245  0.00  0.00    -0.000 C 
ATOM     21  C   UNL     1      34.235 -22.862 -16.952  0.00  0.00    -0.000 C 
ATOM     22  C   UNL     1      35.211 -22.772 -15.960  0.00  0.00    -0.000 C 
ENDBRANCH  16  17
ENDBRANCH  12  16
ENDBRANCH   8  11
BRANCH   1  23
ATOM     23  C   UNL     1      32.689 -13.030 -20.273  0.00  0.00    +0.097 C 
BRANCH  23  24
ATOM     24  C   UNL     1      31.616 -11.932 -20.309  0.00  0.00    +0.040 C 
BRANCH  24  25
ATOM     25  C   UNL     1      32.056 -10.566 -19.736  0.00  0.00    +0.091 C 
BRANCH  25  26
ATOM     26  N   UNL     1      31.966  -9.463 -20.709  0.00  0.00    -0.246 NA
ATOM     27  N   UNL     1      31.564  -8.261 -22.531  0.00  0.00    -0.251 NA
ATOM     28  C   UNL     1      32.384  -8.170 -20.522  0.00  0.00    +0.125 C 
ATOM     29  C   UNL     1      31.477  -9.485 -21.929  0.00  0.00    +0.201 C 
ATOM     30  C   UNL     1      32.145  -7.404 -21.639  0.00  0.00    +0.124 C 
BRANCH  30  33
ATOM     31  O   UNL     1      32.681  -5.548 -23.001  0.00  0.00    -0.269 OA
ATOM     32  N   UNL     1      32.371  -5.152 -20.778  0.00  0.00    -0.324 N 
ATOM     33  C   UNL     1      32.419  -6.026 -21.871  0.00  0.00    +0.257 C 
ATOM     34  H   UNL     1      32.556  -4.194 -20.905  0.00  0.00    +0.145 HD
ATOM     35  H   UNL     1      32.153  -5.497 -19.882  0.00  0.00    +0.145 HD
ENDBRANCH  30  33
ENDBRANCH  25  26
BRANCH  25  36
ATOM     36  C   UNL     1      31.256 -10.229 -18.467  0.00  0.00    +0.153 C 
BRANCH  36  37
ATOM     37  O   UNL     1      32.151  -9.980 -17.389  0.00  0.00    -0.381 OA
ATOM     38  H   UNL     1      33.039 -10.290 -17.629  0.00  0.00    +0.210 HD
ENDBRANCH  36  37
ENDBRANCH  25  36
ENDBRANCH  24  25
ENDBRANCH  23  24
ENDBRANCH   1  23
TORSDOF 10
ENDMDL
MODEL 5
REMARK VINA RESULT:     -11.0      7.032     12.057
REMARK  Name = 447546
REMARK  10 active torsions:
REMARK  status: ('A' for Active; 'I' for Inactive)
REMARK    1  A    between atoms: N_1  and  C_23
REMARK    2  A    between atoms: C_8  and  N_11
REMARK    3  A    between atoms: N_12  and  C_16
REMARK    4  A    between atoms: C_16  and  C_17
REMARK    5  A    between atoms: C_23  and  C_24
REMARK    6  A    between atoms: C_24  and  C_25
REMARK    7  A    between atoms: C_25  and  N_26
REMARK    8  A    between atoms: C_25  and  C_36
REMARK    9  A    between atoms: C_30  and  C_33
REMARK   10  A    between atoms: C_36  and  O_37
REMARK                            x       y       z     vdW  Elec       q    Type
REMARK                         _______ _______ _______ _____ _____    ______ ____
ROOT
ATOM      1  N   UNL     1      32.862 -13.470 -21.756  0.00  0.00    -0.286 N 
ATOM      2  C   UNL     1      32.416 -12.224 -21.376  0.00  0.00    +0.053 C 
ATOM      3  C   UNL     1      32.132 -12.290 -20.009  0.00  0.00    +0.015 C 
ATOM      4  C   UNL     1      32.871 -14.317 -20.680  0.00  0.00    +0.065 C 
ATOM      5  C   UNL     1      32.424 -13.616 -19.585  0.00  0.00    +0.017 C 
ATOM      6  C   UNL     1      32.243 -11.057 -22.129  0.00  0.00    +0.030 C 
ATOM      7  C   UNL     1      31.651 -11.134 -19.361  0.00  0.00    +0.003 C 
ATOM      8  C   UNL     1      31.766  -9.924 -21.463  0.00  0.00    +0.053 C 
ATOM      9  C   UNL     1      31.475  -9.960 -20.101  0.00  0.00    +0.015 C 
ENDROOT
BRANCH   8  11
ATOM     10  O   UNL     1      33.538  -7.516 -21.721  0.00  0.00    -0.252 OA
ATOM     11  N   UNL     1      31.582  -8.738 -22.177  0.00  0.00    -0.268 N 
ATOM     12  N   UNL     1      31.894  -6.636 -23.088  0.00  0.00    -0.285 N 
ATOM     13  C   UNL     1      32.446  -7.629 -22.270  0.00  0.00    +0.305 C 
ATOM     14  H   UNL     1      30.739  -8.669 -22.681  0.00  0.00    +0.156 HD
ATOM     15  H   UNL     1      31.013  -6.799 -23.494  0.00  0.00    +0.151 HD
BRANCH  12  16
ATOM     16  C   UNL     1      32.559  -5.384 -23.366  0.00  0.00    +0.118 C 
BRANCH  16  17
ATOM     17  C   UNL     1      33.300  -5.418 -24.671  0.00  0.00    -0.003 C 
ATOM     18  C   UNL     1      34.646  -5.778 -24.701  0.00  0.00    -0.003 C 
ATOM     19  C   UNL     1      32.639  -5.090 -25.856  0.00  0.00    -0.003 C 
ATOM     20  C   UNL     1      35.333  -5.809 -25.915  0.00  0.00    -0.000 C 
ATOM     21  C   UNL     1      33.326  -5.121 -27.069  0.00  0.00    -0.000 C 
ATOM     22  C   UNL     1      34.673  -5.481 -27.098  0.00  0.00    -0.000 C 
ENDBRANCH  16  17
ENDBRANCH  12  16
ENDBRANCH   8  11
BRANCH   1  23
ATOM     23  C   UNL     1      33.267 -13.846 -23.094  0.00  0.00    +0.097 C 
BRANCH  23  24
ATOM     24  C   UNL     1      34.609 -14.588 -23.162  0.00  0.00    +0.040 C 
BRANCH  24  25
ATOM     25  C   UNL     1      34.636 -15.810 -24.107  0.00  0.00    +0.091 C 
BRANCH  25  26
ATOM     26  N   UNL     1      34.928 -17.079 -23.420  0.00  0.00    -0.246 NA
ATOM     27  N   UNL     1      35.031 -19.228 -22.872  0.00  0.00    -0.251 NA
ATOM     28  C   UNL     1      35.651 -17.237 -22.264  0.00  0.00    +0.125 C 
ATOM     29  C   UNL     1      34.569 -18.298 -23.760  0.00  0.00    +0.201 C 
ATOM     30  C   UNL     1      35.729 -18.563 -21.905  0.00  0.00    +0.124 C 
BRANCH  30  33
ATOM     31  O   UNL     1      37.561 -18.922 -20.455  0.00  0.00    -0.269 OA
ATOM     32  N   UNL     1      35.639 -20.060 -20.003  0.00  0.00    -0.324 N 
ATOM     33  C   UNL     1      36.376 -19.164 -20.787  0.00  0.00    +0.257 C 
ATOM     34  H   UNL     1      36.057 -20.492 -19.225  0.00  0.00    +0.145 HD
ATOM     35  H   UNL     1      34.702 -20.258 -20.231  0.00  0.00    +0.145 HD
ENDBRANCH  30  33
ENDBRANCH  25  26
BRANCH  25  36
ATOM     36  C   UNL     1      33.318 -15.916 -24.892  0.00  0.00    +0.153 C 
BRANCH  36  37
ATOM     37  O   UNL     1      33.440 -15.222 -26.129  0.00  0.00    -0.381 OA
ATOM     38  H   UNL     1      33.191 -15.813 -26.856  0.00  0.00    +0.210 HD
ENDBRANCH  36  37
ENDBRANCH  25  36
ENDBRANCH  24  25
ENDBRANCH  23  24
ENDBRANCH   1  23
TORSDOF 10
ENDMDL
MODEL 6
REMARK VINA RESULT:     -11.0      7.117     12.334
REMARK  Name = 447546
REMARK  10 active torsions:
REMARK  status: ('A' for Active; 'I' for Inactive)
REMARK    1  A    between atoms: N_1  and  C_23
REMARK    2  A    between atoms: C_8  and  N_11
REMARK    3  A    between atoms: N_12  and  C_16
REMARK    4  A    between atoms: C_16  and  C_17
REMARK    5  A    between atoms: C_23  and  C_24
REMARK    6  A    between atoms: C_24  and  C_25
REMARK    7  A    between atoms: C_25  and  N_26
REMARK    8  A    between atoms: C_25  and  C_36
REMARK    9  A    between atoms: C_30  and  C_33
REMARK   10  A    between atoms: C_36  and  O_37
REMARK                            x       y       z     vdW  Elec       q    Type
REMARK                         _______ _______ _______ _____ _____    ______ ____
ROOT
ATOM      1  N   UNL     1      32.909 -13.567 -21.792  0.00  0.00    -0.286 N 
ATOM      2  C   UNL     1      32.446 -12.331 -21.402  0.00  0.00    +0.053 C 
ATOM      3  C   UNL     1      32.162 -12.412 -20.036  0.00  0.00    +0.015 C 
ATOM      4  C   UNL     1      32.929 -14.424 -20.724  0.00  0.00    +0.065 C 
ATOM      5  C   UNL     1      32.472 -13.737 -19.624  0.00  0.00    +0.017 C 
ATOM      6  C   UNL     1      32.259 -11.160 -22.145  0.00  0.00    +0.030 C 
ATOM      7  C   UNL     1      31.666 -11.269 -19.379  0.00  0.00    +0.003 C 
ATOM      8  C   UNL     1      31.766 -10.039 -21.470  0.00  0.00    +0.053 C 
ATOM      9  C   UNL     1      31.475 -10.090 -20.108  0.00  0.00    +0.015 C 
ENDROOT
BRANCH   8  11
ATOM     10  O   UNL     1      33.640  -7.754 -21.995  0.00  0.00    -0.252 OA
ATOM     11  N   UNL     1      31.567  -8.850 -22.173  0.00  0.00    -0.268 N 
ATOM     12  N   UNL     1      31.891  -6.780 -23.153  0.00  0.00    -0.285 N 
ATOM     13  C   UNL     1      32.480  -7.800 -22.396  0.00  0.00    +0.305 C 
ATOM     14  H   UNL     1      30.672  -8.730 -22.566  0.00  0.00    +0.156 HD
ATOM     15  H   UNL     1      30.956  -6.888 -23.439  0.00  0.00    +0.151 HD
BRANCH  12  16
ATOM     16  C   UNL     1      32.593  -5.576 -23.534  0.00  0.00    +0.118 C 
BRANCH  16  17
ATOM     17  C   UNL     1      31.895  -4.340 -23.045  0.00  0.00    -0.003 C 
ATOM     18  C   UNL     1      32.125  -3.115 -23.670  0.00  0.00    -0.003 C 
ATOM     19  C   UNL     1      31.015  -4.417 -21.966  0.00  0.00    -0.003 C 
ATOM     20  C   UNL     1      31.477  -1.967 -23.216  0.00  0.00    -0.000 C 
ATOM     21  C   UNL     1      30.366  -3.269 -21.511  0.00  0.00    -0.000 C 
ATOM     22  C   UNL     1      30.597  -2.044 -22.137  0.00  0.00    -0.000 C 
ENDBRANCH  16  17
ENDBRANCH  12  16
ENDBRANCH   8  11
BRANCH   1  23
ATOM     23  C   UNL     1      33.319 -13.927 -23.133  0.00  0.00    +0.097 C 
BRANCH  23  24
ATOM     24  C   UNL     1      34.661 -14.670 -23.205  0.00  0.00    +0.040 C 
BRANCH  24  25
ATOM     25  C   UNL     1      34.667 -15.925 -24.108  0.00  0.00    +0.091 C 
BRANCH  25  26
ATOM     26  N   UNL     1      34.923 -17.176 -23.374  0.00  0.00    -0.246 NA
ATOM     27  N   UNL     1      34.977 -19.308 -22.757  0.00  0.00    -0.251 NA
ATOM     28  C   UNL     1      35.617 -17.309 -22.197  0.00  0.00    +0.125 C 
ATOM     29  C   UNL     1      34.551 -18.399 -23.684  0.00  0.00    +0.201 C 
ATOM     30  C   UNL     1      35.664 -18.624 -21.795  0.00  0.00    +0.124 C 
BRANCH  30  33
ATOM     31  O   UNL     1      37.404 -18.862 -20.213  0.00  0.00    -0.269 OA
ATOM     32  N   UNL     1      35.566 -20.182 -19.944  0.00  0.00    -0.324 N 
ATOM     33  C   UNL     1      36.276 -19.200 -20.644  0.00  0.00    +0.257 C 
ATOM     34  H   UNL     1      35.960 -20.600 -19.145  0.00  0.00    +0.145 HD
ATOM     35  H   UNL     1      34.671 -20.456 -20.250  0.00  0.00    +0.145 HD
ENDBRANCH  30  33
ENDBRANCH  25  26
BRANCH  25  36
ATOM     36  C   UNL     1      33.354 -16.027 -24.902  0.00  0.00    +0.153 C 
BRANCH  36  37
ATOM     37  O   UNL     1      33.449 -15.242 -26.085  0.00  0.00    -0.381 OA
ATOM     38  H   UNL     1      33.715 -14.338 -25.853  0.00  0.00    +0.210 HD
ENDBRANCH  36  37
ENDBRANCH  25  36
ENDBRANCH  24  25
ENDBRANCH  23  24
ENDBRANCH   1  23
TORSDOF 10
ENDMDL
MODEL 7
REMARK VINA RESULT:     -10.9      7.557     13.613
REMARK  Name = 447546
REMARK  10 active torsions:
REMARK  status: ('A' for Active; 'I' for Inactive)
REMARK    1  A    between atoms: N_1  and  C_23
REMARK    2  A    between atoms: C_8  and  N_11
REMARK    3  A    between atoms: N_12  and  C_16
REMARK    4  A    between atoms: C_16  and  C_17
REMARK    5  A    between atoms: C_23  and  C_24
REMARK    6  A    between atoms: C_24  and  C_25
REMARK    7  A    between atoms: C_25  and  N_26
REMARK    8  A    between atoms: C_25  and  C_36
REMARK    9  A    between atoms: C_30  and  C_33
REMARK   10  A    between atoms: C_36  and  O_37
REMARK                            x       y       z     vdW  Elec       q    Type
REMARK                         _______ _______ _______ _____ _____    ______ ____
ROOT
ATOM      1  N   UNL     1      32.323 -10.727 -22.395  0.00  0.00    -0.286 N 
ATOM      2  C   UNL     1      32.589 -11.971 -21.870  0.00  0.00    +0.053 C 
ATOM      3  C   UNL     1      31.935 -12.044 -20.637  0.00  0.00    +0.015 C 
ATOM      4  C   UNL     1      31.525 -10.014 -21.541  0.00  0.00    +0.065 C 
ATOM      5  C   UNL     1      31.268 -10.802 -20.445  0.00  0.00    +0.017 C 
ATOM      6  C   UNL     1      33.351 -13.026 -22.384  0.00  0.00    +0.030 C 
ATOM      7  C   UNL     1      32.046 -13.227 -19.880  0.00  0.00    +0.003 C 
ATOM      8  C   UNL     1      33.446 -14.190 -21.615  0.00  0.00    +0.053 C 
ATOM      9  C   UNL     1      32.803 -14.291 -20.383  0.00  0.00    +0.015 C 
ENDROOT
BRANCH   8  11
ATOM     10  O   UNL     1      35.230 -16.115 -20.160  0.00  0.00    -0.252 OA
ATOM     11  N   UNL     1      34.194 -15.267 -22.093  0.00  0.00    -0.268 N 
ATOM     12  N   UNL     1      35.599 -17.099 -22.220  0.00  0.00    -0.285 N 
ATOM     13  C   UNL     1      35.021 -16.149 -21.370  0.00  0.00    +0.305 C 
ATOM     14  H   UNL     1      34.134 -15.433 -23.062  0.00  0.00    +0.156 HD
ATOM     15  H   UNL     1      35.384 -17.063 -23.179  0.00  0.00    +0.151 HD
BRANCH  12  16
ATOM     16  C   UNL     1      36.495 -18.132 -21.753  0.00  0.00    +0.118 C 
BRANCH  16  17
ATOM     17  C   UNL     1      35.772 -19.194 -20.975  0.00  0.00    -0.003 C 
ATOM     18  C   UNL     1      36.469 -19.989 -20.067  0.00  0.00    -0.003 C 
ATOM     19  C   UNL     1      34.402 -19.383 -21.161  0.00  0.00    -0.003 C 
ATOM     20  C   UNL     1      35.797 -20.975 -19.344  0.00  0.00    -0.000 C 
ATOM     21  C   UNL     1      33.731 -20.369 -20.438  0.00  0.00    -0.000 C 
ATOM     22  C   UNL     1      34.428 -21.165 -19.530  0.00  0.00    -0.000 C 
ENDBRANCH  16  17
ENDBRANCH  12  16
ENDBRANCH   8  11
BRANCH   1  23
ATOM     23  C   UNL     1      32.808 -10.229 -23.665  0.00  0.00    +0.097 C 
BRANCH  23  24
ATOM     24  C   UNL     1      32.303  -8.826 -24.027  0.00  0.00    +0.040 C 
BRANCH  24  25
ATOM     25  C   UNL     1      33.288  -7.675 -23.723  0.00  0.00    +0.091 C 
BRANCH  25  26
ATOM     26  N   UNL     1      32.772  -6.700 -22.747  0.00  0.00    -0.246 NA
ATOM     27  N   UNL     1      32.333  -5.592 -20.874  0.00  0.00    -0.251 NA
ATOM     28  C   UNL     1      31.952  -5.631 -23.013  0.00  0.00    +0.125 C 
ATOM     29  C   UNL     1      32.982  -6.647 -21.451  0.00  0.00    +0.201 C 
ATOM     30  C   UNL     1      31.666  -4.928 -21.865  0.00  0.00    +0.124 C 
BRANCH  30  33
ATOM     31  O   UNL     1      29.642  -3.798 -21.403  0.00  0.00    -0.269 OA
ATOM     32  N   UNL     1      31.478  -2.514 -21.822  0.00  0.00    -0.324 N 
ATOM     33  C   UNL     1      30.863  -3.765 -21.689  0.00  0.00    +0.257 C 
ATOM     34  H   UNL     1      30.951  -1.692 -21.707  0.00  0.00    +0.145 HD
ATOM     35  H   UNL     1      32.439  -2.458 -22.031  0.00  0.00    +0.145 HD
ENDBRANCH  30  33
ENDBRANCH  25  26
BRANCH  25  36
ATOM     36  C   UNL     1      34.644  -8.232 -23.258  0.00  0.00    +0.153 C 
BRANCH  36  37
ATOM     37  O   UNL     1      35.621  -7.197 -23.281  0.00  0.00    -0.381 OA
ATOM     38  H   UNL     1      36.288  -7.398 -23.956  0.00  0.00    +0.210 HD
ENDBRANCH  36  37
ENDBRANCH  25  36
ENDBRANCH  24  25
ENDBRANCH  23  24
ENDBRANCH   1  23
TORSDOF 10
ENDMDL
MODEL 8
REMARK VINA RESULT:     -10.6      3.439      7.519
REMARK  Name = 447546
REMARK  10 active torsions:
REMARK  status: ('A' for Active; 'I' for Inactive)
REMARK    1  A    between atoms: N_1  and  C_23
REMARK    2  A    between atoms: C_8  and  N_11
REMARK    3  A    between atoms: N_12  and  C_16
REMARK    4  A    between atoms: C_16  and  C_17
REMARK    5  A    between atoms: C_23  and  C_24
REMARK    6  A    between atoms: C_24  and  C_25
REMARK    7  A    between atoms: C_25  and  N_26
REMARK    8  A    between atoms: C_25  and  C_36
REMARK    9  A    between atoms: C_30  and  C_33
REMARK   10  A    between atoms: C_36  and  O_37
REMARK                            x       y       z     vdW  Elec       q    Type
REMARK                         _______ _______ _______ _____ _____    ______ ____
ROOT
ATOM      1  N   UNL     1      31.959 -24.586 -13.381  0.00  0.00    -0.286 N 
ATOM      2  C   UNL     1      31.553 -23.971 -14.545  0.00  0.00    +0.053 C 
ATOM      3  C   UNL     1      30.163 -24.099 -14.613  0.00  0.00    +0.015 C 
ATOM      4  C   UNL     1      30.877 -25.096 -12.714  0.00  0.00    +0.065 C 
ATOM      5  C   UNL     1      29.752 -24.810 -13.452  0.00  0.00    +0.017 C 
ATOM      6  C   UNL     1      32.302 -23.318 -15.531  0.00  0.00    +0.030 C 
ATOM      7  C   UNL     1      29.486 -23.550 -15.720  0.00  0.00    +0.003 C 
ATOM      8  C   UNL     1      31.607 -22.781 -16.619  0.00  0.00    +0.053 C 
ATOM      9  C   UNL     1      30.221 -22.893 -16.713  0.00  0.00    +0.015 C 
ENDROOT
BRANCH   8  11
ATOM     10  O   UNL     1      34.271 -23.406 -17.852  0.00  0.00    -0.252 OA
ATOM     11  N   UNL     1      32.315 -22.120 -17.624  0.00  0.00    -0.268 N 
ATOM     12  N   UNL     1      33.935 -21.533 -19.166  0.00  0.00    -0.285 N 
ATOM     13  C   UNL     1      33.569 -22.451 -18.175  0.00  0.00    +0.305 C 
ATOM     14  H   UNL     1      31.881 -21.319 -17.997  0.00  0.00    +0.156 HD
ATOM     15  H   UNL     1      33.320 -20.793 -19.370  0.00  0.00    +0.151 HD
BRANCH  12  16
ATOM     16  C   UNL     1      35.174 -21.623 -19.904  0.00  0.00    +0.118 C 
BRANCH  16  17
ATOM     17  C   UNL     1      35.485 -20.350 -20.637  0.00  0.00    -0.003 C 
ATOM     18  C   UNL     1      36.689 -19.688 -20.406  0.00  0.00    -0.003 C 
ATOM     19  C   UNL     1      34.568 -19.831 -21.552  0.00  0.00    -0.003 C 
ATOM     20  C   UNL     1      36.978 -18.506 -21.087  0.00  0.00    -0.000 C 
ATOM     21  C   UNL     1      34.856 -18.649 -22.233  0.00  0.00    -0.000 C 
ATOM     22  C   UNL     1      36.062 -17.986 -22.001  0.00  0.00    -0.000 C 
ENDBRANCH  16  17
ENDBRANCH  12  16
ENDBRANCH   8  11
BRANCH   1  23
ATOM     23  C   UNL     1      33.325 -24.688 -12.917  0.00  0.00    +0.097 C 
BRANCH  23  24
ATOM     24  C   UNL     1      34.372 -24.741 -14.039  0.00  0.00    +0.040 C 
BRANCH  24  25
ATOM     25  C   UNL     1      35.710 -24.038 -13.721  0.00  0.00    +0.091 C 
BRANCH  25  26
ATOM     26  N   UNL     1      36.876 -24.937 -13.783  0.00  0.00    -0.246 NA
ATOM     27  N   UNL     1      38.175 -26.736 -13.853  0.00  0.00    -0.251 NA
ATOM     28  C   UNL     1      38.195 -24.563 -13.859  0.00  0.00    +0.125 C 
ATOM     29  C   UNL     1      36.899 -26.251 -13.782  0.00  0.00    +0.201 C 
ATOM     30  C   UNL     1      39.020 -25.663 -13.904  0.00  0.00    +0.124 C 
BRANCH  30  33
ATOM     31  O   UNL     1      41.171 -24.742 -14.239  0.00  0.00    -0.269 OA
ATOM     32  N   UNL     1      41.057 -26.963 -13.743  0.00  0.00    -0.324 N 
ATOM     33  C   UNL     1      40.441 -25.729 -13.984  0.00  0.00    +0.257 C 
ATOM     34  H   UNL     1      42.036 -27.043 -13.791  0.00  0.00    +0.145 HD
ATOM     35  H   UNL     1      40.509 -27.753 -13.525  0.00  0.00    +0.145 HD
ENDBRANCH  30  33
ENDBRANCH  25  26
BRANCH  25  36
ATOM     36  C   UNL     1      35.917 -22.826 -14.644  0.00  0.00    +0.153 C 
BRANCH  36  37
ATOM     37  O   UNL     1      36.218 -23.273 -15.962  0.00  0.00    -0.381 OA
ATOM     38  H   UNL     1      37.179 -23.343 -16.066  0.00  0.00    +0.210 HD
ENDBRANCH  36  37
ENDBRANCH  25  36
ENDBRANCH  24  25
ENDBRANCH  23  24
ENDBRANCH   1  23
TORSDOF 10
ENDMDL
MODEL 9
REMARK VINA RESULT:     -10.5      7.145     13.091
REMARK  Name = 447546
REMARK  10 active torsions:
REMARK  status: ('A' for Active; 'I' for Inactive)
REMARK    1  A    between atoms: N_1  and  C_23
REMARK    2  A    between atoms: C_8  and  N_11
REMARK    3  A    between atoms: N_12  and  C_16
REMARK    4  A    between atoms: C_16  and  C_17
REMARK    5  A    between atoms: C_23  and  C_24
REMARK    6  A    between atoms: C_24  and  C_25
REMARK    7  A    between atoms: C_25  and  N_26
REMARK    8  A    between atoms: C_25  and  C_36
REMARK    9  A    between atoms: C_30  and  C_33
REMARK   10  A    between atoms: C_36  and  O_37
REMARK                            x       y       z     vdW  Elec       q    Type
REMARK                         _______ _______ _______ _____ _____    ______ ____
ROOT
ATOM      1  N   UNL     1      32.436 -11.484 -22.036  0.00  0.00    -0.286 N 
ATOM      2  C   UNL     1      33.164 -12.608 -22.355  0.00  0.00    +0.053 C 
ATOM      3  C   UNL     1      33.415 -12.558 -23.729  0.00  0.00    +0.015 C 
ATOM      4  C   UNL     1      32.220 -10.727 -23.157  0.00  0.00    +0.065 C 
ATOM      5  C   UNL     1      32.814 -11.366 -24.220  0.00  0.00    +0.017 C 
ATOM      6  C   UNL     1      33.615 -13.655 -21.543  0.00  0.00    +0.030 C 
ATOM      7  C   UNL     1      34.151 -13.603 -24.322  0.00  0.00    +0.003 C 
ATOM      8  C   UNL     1      34.343 -14.679 -22.154  0.00  0.00    +0.053 C 
ATOM      9  C   UNL     1      34.610 -14.655 -23.521  0.00  0.00    +0.015 C 
ENDROOT
BRANCH   8  11
ATOM     10  O   UNL     1      35.329 -17.394 -22.969  0.00  0.00    -0.252 OA
ATOM     11  N   UNL     1      34.813 -15.741 -21.379  0.00  0.00    -0.268 N 
ATOM     12  N   UNL     1      35.657 -17.789 -20.714  0.00  0.00    -0.285 N 
ATOM     13  C   UNL     1      35.269 -17.004 -21.806  0.00  0.00    +0.305 C 
ATOM     14  H   UNL     1      34.830 -15.586 -20.406  0.00  0.00    +0.156 HD
ATOM     15  H   UNL     1      35.580 -17.407 -19.811  0.00  0.00    +0.151 HD
BRANCH  12  16
ATOM     16  C   UNL     1      36.166 -19.134 -20.853  0.00  0.00    +0.118 C 
BRANCH  16  17
ATOM     17  C   UNL     1      35.283 -20.142 -20.175  0.00  0.00    -0.003 C 
ATOM     18  C   UNL     1      33.899 -20.064 -20.317  0.00  0.00    -0.003 C 
ATOM     19  C   UNL     1      35.849 -21.158 -19.404  0.00  0.00    -0.003 C 
ATOM     20  C   UNL     1      33.079 -21.000 -19.687  0.00  0.00    -0.000 C 
ATOM     21  C   UNL     1      35.029 -22.094 -18.774  0.00  0.00    -0.000 C 
ATOM     22  C   UNL     1      33.644 -22.015 -18.916  0.00  0.00    -0.000 C 
ENDBRANCH  16  17
ENDBRANCH  12  16
ENDBRANCH   8  11
BRANCH   1  23
ATOM     23  C   UNL     1      31.960 -11.138 -20.714  0.00  0.00    +0.097 C 
BRANCH  23  24
ATOM     24  C   UNL     1      31.435  -9.701 -20.588  0.00  0.00    +0.040 C 
BRANCH  24  25
ATOM     25  C   UNL     1      32.525  -8.606 -20.546  0.00  0.00    +0.091 C 
BRANCH  25  26
ATOM     26  N   UNL     1      32.306  -7.520 -21.516  0.00  0.00    -0.246 NA
ATOM     27  N   UNL     1      32.482  -6.154 -23.258  0.00  0.00    -0.251 NA
ATOM     28  C   UNL     1      31.322  -6.564 -21.468  0.00  0.00    +0.125 C 
ATOM     29  C   UNL     1      32.986  -7.245 -22.607  0.00  0.00    +0.201 C 
ATOM     30  C   UNL     1      31.411  -5.705 -22.538  0.00  0.00    +0.124 C 
BRANCH  30  33
ATOM     31  O   UNL     1      30.093  -3.811 -22.023  0.00  0.00    -0.269 OA
ATOM     32  N   UNL     1      30.370  -4.317 -24.228  0.00  0.00    -0.324 N 
ATOM     33  C   UNL     1      30.598  -4.584 -22.873  0.00  0.00    +0.257 C 
ATOM     34  H   UNL     1      29.813  -3.550 -24.492  0.00  0.00    +0.145 HD
ATOM     35  H   UNL     1      30.767  -4.898 -24.918  0.00  0.00    +0.145 HD
ENDBRANCH  30  33
ENDBRANCH  25  26
BRANCH  25  36
ATOM     36  C   UNL     1      32.665  -8.036 -19.124  0.00  0.00    +0.153 C 
BRANCH  36  37
ATOM     37  O   UNL     1      33.698  -7.058 -19.100  0.00  0.00    -0.381 OA
ATOM     38  H   UNL     1      33.739  -6.654 -18.219  0.00  0.00    +0.210 HD
ENDBRANCH  36  37
ENDBRANCH  25  36
ENDBRANCH  24  25
ENDBRANCH  23  24
ENDBRANCH   1  23
TORSDOF 10
ENDMDL
