MODEL 1
REMARK VINA RESULT:     -11.4      0.000      0.000
REMARK  Name = 56832738
REMARK  10 active torsions:
REMARK  status: ('A' for Active; 'I' for Inactive)
REMARK    1  A    between atoms: C_2  and  C_11
REMARK    2  A    between atoms: C_5  and  C_25
REMARK    3  A    between atoms: C_10  and  C_22
REMARK    4  A    between atoms: C_12  and  O_16
REMARK    5  A    between atoms: C_13  and  O_18
REMARK    6  A    between atoms: C_14  and  O_20
REMARK    7  A    between atoms: C_22  and  O_23
REMARK    8  A    between atoms: C_25  and  C_27
REMARK    9  A    between atoms: C_32  and  O_33
REMARK   10  A    between atoms: O_33  and  C_34
REMARK                            x       y       z     vdW  Elec       q    Type
REMARK                         _______ _______ _______ _____ _____    ______ ____
ROOT
ATOM      1 CL   UNL     1      30.870 -22.433 -16.851  0.00  0.00    -0.083 Cl
ATOM      2  C   UNL     1      34.485 -23.695 -14.459  0.00  0.00    +0.031 C 
ATOM      3  C   UNL     1      34.508 -23.807 -15.849  0.00  0.00    -0.003 C 
ATOM      4  C   UNL     1      33.352 -23.194 -13.818  0.00  0.00    +0.001 C 
ATOM      5  C   UNL     1      33.397 -23.420 -16.598  0.00  0.00    -0.007 C 
ATOM      6  C   UNL     1      32.241 -22.807 -14.567  0.00  0.00    +0.011 C 
ATOM      7  C   UNL     1      32.263 -22.919 -15.958  0.00  0.00    +0.054 C 
ENDROOT
BRANCH   2  11
ATOM      8  O   UNL     1      35.326 -24.555 -12.322  0.00  0.00    -0.326 OA
ATOM      9  O   UNL     1      36.588 -22.993 -13.488  0.00  0.00    -0.326 OA
ATOM     10  C   UNL     1      36.534 -24.346 -11.579  0.00  0.00    +0.176 C 
ATOM     11  C   UNL     1      35.692 -24.116 -13.644  0.00  0.00    +0.235 C 
ATOM     12  C   UNL     1      37.523 -25.477 -11.964  0.00  0.00    +0.169 C 
ATOM     13  C   UNL     1      36.488 -25.269 -14.297  0.00  0.00    +0.196 C 
ATOM     14  C   UNL     1      37.756 -25.600 -13.485  0.00  0.00    +0.172 C 
ATOM     15  C   UNL     1      36.940 -22.974 -12.097  0.00  0.00    +0.177 C 
BRANCH  12  16
ATOM     16  O   UNL     1      36.989 -26.718 -11.493  0.00  0.00    -0.379 OA
ATOM     17  H   UNL     1      36.436 -26.557 -10.712  0.00  0.00    +0.211 HD
ENDBRANCH  12  16
BRANCH  13  18
ATOM     18  O   UNL     1      35.671 -26.437 -14.370  0.00  0.00    -0.377 OA
ATOM     19  H   UNL     1      35.326 -26.646 -13.487  0.00  0.00    +0.211 HD
ENDBRANCH  13  18
BRANCH  14  20
ATOM     20  O   UNL     1      38.789 -24.696 -13.877  0.00  0.00    -0.379 OA
ATOM     21  H   UNL     1      38.673 -24.458 -14.810  0.00  0.00    +0.211 HD
ENDBRANCH  14  20
BRANCH  10  22
ATOM     22  C   UNL     1      36.219 -24.329 -10.089  0.00  0.00    +0.169 C 
BRANCH  22  23
ATOM     23  O   UNL     1      35.279 -25.352  -9.814  0.00  0.00    -0.379 OA
ATOM     24  H   UNL     1      34.430 -25.130 -10.228  0.00  0.00    +0.211 HD
ENDBRANCH  22  23
ENDBRANCH  10  22
ENDBRANCH   2  11
BRANCH   5  25
ATOM     25  C   UNL     1      33.460 -23.558 -18.085  0.00  0.00    +0.054 C 
BRANCH  25  27
ATOM     26  F   UNL     1      37.113 -20.642 -19.506  0.00  0.00    -0.201 F 
ATOM     27  C   UNL     1      33.966 -22.318 -18.793  0.00  0.00    -0.015 C 
ATOM     28  C   UNL     1      35.333 -22.043 -18.826  0.00  0.00    +0.029 C 
ATOM     29  C   UNL     1      33.065 -21.451 -19.410  0.00  0.00    -0.001 C 
ATOM     30  C   UNL     1      35.798 -20.902 -19.478  0.00  0.00    +0.174 C 
ATOM     31  C   UNL     1      33.530 -20.310 -20.062  0.00  0.00    +0.039 C 
ATOM     32  C   UNL     1      34.897 -20.035 -20.095  0.00  0.00    +0.166 C 
BRANCH  32  33
ATOM     33  O   UNL     1      35.350 -18.919 -20.731  0.00  0.00    -0.473 OA
BRANCH  33  34
ATOM     34  C   UNL     1      35.283 -18.914 -22.157  0.00  0.00    +0.206 C 
ATOM     35  C   UNL     1      35.272 -17.480 -22.643  0.00  0.00    +0.051 C 
ENDBRANCH  33  34
ENDBRANCH  32  33
ENDBRANCH  25  27
ENDBRANCH   5  25
TORSDOF 10
ENDMDL
MODEL 2
REMARK VINA RESULT:     -10.7      0.940      2.356
REMARK  Name = 56832738
REMARK  10 active torsions:
REMARK  status: ('A' for Active; 'I' for Inactive)
REMARK    1  A    between atoms: C_2  and  C_11
REMARK    2  A    between atoms: C_5  and  C_25
REMARK    3  A    between atoms: C_10  and  C_22
REMARK    4  A    between atoms: C_12  and  O_16
REMARK    5  A    between atoms: C_13  and  O_18
REMARK    6  A    between atoms: C_14  and  O_20
REMARK    7  A    between atoms: C_22  and  O_23
REMARK    8  A    between atoms: C_25  and  C_27
REMARK    9  A    between atoms: C_32  and  O_33
REMARK   10  A    between atoms: O_33  and  C_34
REMARK                            x       y       z     vdW  Elec       q    Type
REMARK                         _______ _______ _______ _____ _____    ______ ____
ROOT
ATOM      1 CL   UNL     1      31.102 -22.421 -16.613  0.00  0.00    -0.083 Cl
ATOM      2  C   UNL     1      34.744 -24.098 -14.536  0.00  0.00    +0.031 C 
ATOM      3  C   UNL     1      34.665 -24.142 -15.928  0.00  0.00    -0.003 C 
ATOM      4  C   UNL     1      33.703 -23.537 -13.797  0.00  0.00    +0.001 C 
ATOM      5  C   UNL     1      33.545 -23.627 -16.580  0.00  0.00    -0.007 C 
ATOM      6  C   UNL     1      32.583 -23.021 -14.448  0.00  0.00    +0.011 C 
ATOM      7  C   UNL     1      32.503 -23.066 -15.841  0.00  0.00    +0.054 C 
ENDROOT
BRANCH   2  11
ATOM      8  O   UNL     1      37.165 -23.948 -14.178  0.00  0.00    -0.326 OA
ATOM      9  O   UNL     1      36.153 -26.039 -14.209  0.00  0.00    -0.326 OA
ATOM     10  C   UNL     1      38.186 -24.918 -13.912  0.00  0.00    +0.176 C 
ATOM     11  C   UNL     1      35.961 -24.658 -13.828  0.00  0.00    +0.235 C 
ATOM     12  C   UNL     1      38.370 -24.996 -12.374  0.00  0.00    +0.169 C 
ATOM     13  C   UNL     1      35.840 -24.604 -12.287  0.00  0.00    +0.196 C 
ATOM     14  C   UNL     1      37.056 -25.268 -11.610  0.00  0.00    +0.172 C 
ATOM     15  C   UNL     1      37.549 -26.161 -14.516  0.00  0.00    +0.177 C 
BRANCH  12  16
ATOM     16  O   UNL     1      38.896 -23.744 -11.922  0.00  0.00    -0.379 OA
ATOM     17  H   UNL     1      38.198 -23.071 -11.948  0.00  0.00    +0.211 HD
ENDBRANCH  12  16
BRANCH  13  18
ATOM     18  O   UNL     1      35.759 -23.245 -11.858  0.00  0.00    -0.377 OA
ATOM     19  H   UNL     1      35.969 -23.192 -10.912  0.00  0.00    +0.211 HD
ENDBRANCH  13  18
BRANCH  14  20
ATOM     20  O   UNL     1      36.826 -26.676 -11.556  0.00  0.00    -0.379 OA
ATOM     21  H   UNL     1      35.923 -26.868 -11.853  0.00  0.00    +0.211 HD
ENDBRANCH  14  20
BRANCH  10  22
ATOM     22  C   UNL     1      39.468 -24.520 -14.632  0.00  0.00    +0.169 C 
BRANCH  22  23
ATOM     23  O   UNL     1      40.573 -24.964 -13.865  0.00  0.00    -0.379 OA
ATOM     24  H   UNL     1      41.398 -24.720 -14.315  0.00  0.00    +0.211 HD
ENDBRANCH  22  23
ENDBRANCH  10  22
ENDBRANCH   2  11
BRANCH   5  25
ATOM     25  C   UNL     1      33.498 -23.695 -18.072  0.00  0.00    +0.054 C 
BRANCH  25  27
ATOM     26  F   UNL     1      37.040 -20.692 -19.589  0.00  0.00    -0.201 F 
ATOM     27  C   UNL     1      33.953 -22.423 -18.757  0.00  0.00    -0.015 C 
ATOM     28  C   UNL     1      35.313 -22.135 -18.862  0.00  0.00    +0.029 C 
ATOM     29  C   UNL     1      33.010 -21.539 -19.283  0.00  0.00    -0.001 C 
ATOM     30  C   UNL     1      35.731 -20.964 -19.492  0.00  0.00    +0.174 C 
ATOM     31  C   UNL     1      33.428 -20.368 -19.913  0.00  0.00    +0.039 C 
ATOM     32  C   UNL     1      34.789 -20.080 -20.017  0.00  0.00    +0.166 C 
BRANCH  32  33
ATOM     33  O   UNL     1      35.196 -18.936 -20.633  0.00  0.00    -0.473 OA
BRANCH  33  34
ATOM     34  C   UNL     1      35.421 -19.001 -22.041  0.00  0.00    +0.206 C 
ATOM     35  C   UNL     1      35.298 -17.610 -22.624  0.00  0.00    +0.051 C 
ENDBRANCH  33  34
ENDBRANCH  32  33
ENDBRANCH  25  27
ENDBRANCH   5  25
TORSDOF 10
ENDMDL
MODEL 3
REMARK VINA RESULT:     -10.4      3.170      4.955
REMARK  Name = 56832738
REMARK  10 active torsions:
REMARK  status: ('A' for Active; 'I' for Inactive)
REMARK    1  A    between atoms: C_2  and  C_11
REMARK    2  A    between atoms: C_5  and  C_25
REMARK    3  A    between atoms: C_10  and  C_22
REMARK    4  A    between atoms: C_12  and  O_16
REMARK    5  A    between atoms: C_13  and  O_18
REMARK    6  A    between atoms: C_14  and  O_20
REMARK    7  A    between atoms: C_22  and  O_23
REMARK    8  A    between atoms: C_25  and  C_27
REMARK    9  A    between atoms: C_32  and  O_33
REMARK   10  A    between atoms: O_33  and  C_34
REMARK                            x       y       z     vdW  Elec       q    Type
REMARK                         _______ _______ _______ _____ _____    ______ ____
ROOT
ATOM      1 CL   UNL     1      37.088 -22.022 -17.251  0.00  0.00    -0.083 Cl
ATOM      2  C   UNL     1      33.174 -23.193 -15.329  0.00  0.00    +0.031 C 
ATOM      3  C   UNL     1      33.300 -23.244 -16.717  0.00  0.00    -0.003 C 
ATOM      4  C   UNL     1      34.252 -22.784 -14.545  0.00  0.00    +0.001 C 
ATOM      5  C   UNL     1      34.504 -22.885 -17.321  0.00  0.00    -0.007 C 
ATOM      6  C   UNL     1      35.457 -22.425 -15.150  0.00  0.00    +0.011 C 
ATOM      7  C   UNL     1      35.584 -22.476 -16.538  0.00  0.00    +0.054 C 
ENDROOT
BRANCH   2  11
ATOM      8  O   UNL     1      30.989 -24.278 -15.581  0.00  0.00    -0.326 OA
ATOM      9  O   UNL     1      31.168 -22.395 -14.234  0.00  0.00    -0.326 OA
ATOM     10  C   UNL     1      29.696 -24.040 -15.010  0.00  0.00    +0.176 C 
ATOM     11  C   UNL     1      31.865 -23.583 -14.672  0.00  0.00    +0.235 C 
ATOM     12  C   UNL     1      29.557 -24.955 -13.766  0.00  0.00    +0.169 C 
ATOM     13  C   UNL     1      32.056 -24.501 -13.443  0.00  0.00    +0.196 C 
ATOM     14  C   UNL     1      30.710 -24.795 -12.752  0.00  0.00    +0.172 C 
ATOM     15  C   UNL     1      29.812 -22.561 -14.674  0.00  0.00    +0.177 C 
BRANCH  12  16
ATOM     16  O   UNL     1      29.541 -26.315 -14.210  0.00  0.00    -0.379 OA
ATOM     17  H   UNL     1      30.329 -26.773 -13.880  0.00  0.00    +0.211 HD
ENDBRANCH  12  16
BRANCH  13  18
ATOM     18  O   UNL     1      32.644 -25.736 -13.852  0.00  0.00    -0.377 OA
ATOM     19  H   UNL     1      33.609 -25.672 -13.784  0.00  0.00    +0.211 HD
ENDBRANCH  13  18
BRANCH  14  20
ATOM     20  O   UNL     1      30.413 -23.713 -11.869  0.00  0.00    -0.379 OA
ATOM     21  H   UNL     1      29.571 -23.306 -12.127  0.00  0.00    +0.211 HD
ENDBRANCH  14  20
BRANCH  10  22
ATOM     22  C   UNL     1      28.620 -24.310 -16.055  0.00  0.00    +0.169 C 
BRANCH  22  23
ATOM     23  O   UNL     1      28.532 -23.186 -16.913  0.00  0.00    -0.379 OA
ATOM     24  H   UNL     1      28.792 -22.387 -16.426  0.00  0.00    +0.211 HD
ENDBRANCH  22  23
ENDBRANCH  10  22
ENDBRANCH   2  11
BRANCH   5  25
ATOM     25  C   UNL     1      34.599 -22.952 -18.812  0.00  0.00    +0.054 C 
BRANCH  25  27
ATOM     26  F   UNL     1      37.338 -19.321 -20.596  0.00  0.00    -0.201 F 
ATOM     27  C   UNL     1      34.733 -21.598 -19.477  0.00  0.00    -0.015 C 
ATOM     28  C   UNL     1      35.997 -21.070 -19.737  0.00  0.00    +0.029 C 
ATOM     29  C   UNL     1      33.591 -20.878 -19.829  0.00  0.00    -0.001 C 
ATOM     30  C   UNL     1      36.120 -19.824 -20.350  0.00  0.00    +0.174 C 
ATOM     31  C   UNL     1      33.713 -19.632 -20.442  0.00  0.00    +0.039 C 
ATOM     32  C   UNL     1      34.978 -19.104 -20.702  0.00  0.00    +0.166 C 
BRANCH  32  33
ATOM     33  O   UNL     1      35.096 -17.886 -21.299  0.00  0.00    -0.473 OA
BRANCH  33  34
ATOM     34  C   UNL     1      35.314 -17.875 -22.710  0.00  0.00    +0.206 C 
ATOM     35  C   UNL     1      34.963 -16.505 -23.251  0.00  0.00    +0.051 C 
ENDBRANCH  33  34
ENDBRANCH  32  33
ENDBRANCH  25  27
ENDBRANCH   5  25
TORSDOF 10
ENDMDL
MODEL 4
REMARK VINA RESULT:     -10.0      1.288      2.357
REMARK  Name = 56832738
REMARK  10 active torsions:
REMARK  status: ('A' for Active; 'I' for Inactive)
REMARK    1  A    between atoms: C_2  and  C_11
REMARK    2  A    between atoms: C_5  and  C_25
REMARK    3  A    between atoms: C_10  and  C_22
REMARK    4  A    between atoms: C_12  and  O_16
REMARK    5  A    between atoms: C_13  and  O_18
REMARK    6  A    between atoms: C_14  and  O_20
REMARK    7  A    between atoms: C_22  and  O_23
REMARK    8  A    between atoms: C_25  and  C_27
REMARK    9  A    between atoms: C_32  and  O_33
REMARK   10  A    between atoms: O_33  and  C_34
REMARK                            x       y       z     vdW  Elec       q    Type
REMARK                         _______ _______ _______ _____ _____    ______ ____
ROOT
ATOM      1 CL   UNL     1      30.441 -22.453 -16.454  0.00  0.00    -0.083 Cl
ATOM      2  C   UNL     1      34.434 -23.662 -14.729  0.00  0.00    +0.031 C 
ATOM      3  C   UNL     1      34.263 -23.636 -16.113  0.00  0.00    -0.003 C 
ATOM      4  C   UNL     1      33.377 -23.314 -13.889  0.00  0.00    +0.001 C 
ATOM      5  C   UNL     1      33.034 -23.263 -16.657  0.00  0.00    -0.007 C 
ATOM      6  C   UNL     1      32.148 -22.942 -14.433  0.00  0.00    +0.011 C 
ATOM      7  C   UNL     1      31.976 -22.916 -15.817  0.00  0.00    +0.054 C 
ENDROOT
BRANCH   2  11
ATOM      8  O   UNL     1      36.462 -25.022 -14.966  0.00  0.00    -0.326 OA
ATOM      9  O   UNL     1      35.564 -24.689 -12.850  0.00  0.00    -0.326 OA
ATOM     10  C   UNL     1      37.328 -25.676 -14.030  0.00  0.00    +0.176 C 
ATOM     11  C   UNL     1      35.770 -24.066 -14.138  0.00  0.00    +0.235 C 
ATOM     12  C   UNL     1      38.499 -24.708 -13.719  0.00  0.00    +0.169 C 
ATOM     13  C   UNL     1      36.729 -22.869 -13.937  0.00  0.00    +0.196 C 
ATOM     14  C   UNL     1      38.036 -23.312 -13.249  0.00  0.00    +0.172 C 
ATOM     15  C   UNL     1      36.371 -25.875 -12.864  0.00  0.00    +0.177 C 
BRANCH  12  16
ATOM     16  O   UNL     1      39.271 -24.542 -14.911  0.00  0.00    -0.379 OA
ATOM     17  H   UNL     1      39.278 -25.373 -15.411  0.00  0.00    +0.211 HD
ENDBRANCH  12  16
BRANCH  13  18
ATOM     18  O   UNL     1      37.048 -22.291 -15.203  0.00  0.00    -0.377 OA
ATOM     19  H   UNL     1      38.004 -22.139 -15.256  0.00  0.00    +0.211 HD
ENDBRANCH  13  18
BRANCH  14  20
ATOM     20  O   UNL     1      37.812 -23.340 -11.839  0.00  0.00    -0.379 OA
ATOM     21  H   UNL     1      38.664 -23.375 -11.377  0.00  0.00    +0.211 HD
ENDBRANCH  14  20
BRANCH  10  22
ATOM     22  C   UNL     1      37.805 -26.999 -14.615  0.00  0.00    +0.169 C 
BRANCH  22  23
ATOM     23  O   UNL     1      37.040 -27.281 -15.774  0.00  0.00    -0.379 OA
ATOM     24  H   UNL     1      36.192 -27.675 -15.513  0.00  0.00    +0.211 HD
ENDBRANCH  22  23
ENDBRANCH  10  22
ENDBRANCH   2  11
BRANCH   5  25
ATOM     25  C   UNL     1      32.890 -23.250 -18.145  0.00  0.00    +0.054 C 
BRANCH  25  27
ATOM     26  F   UNL     1      37.199 -21.345 -19.436  0.00  0.00    -0.201 F 
ATOM     27  C   UNL     1      33.712 -22.178 -18.828  0.00  0.00    -0.015 C 
ATOM     28  C   UNL     1      35.105 -22.254 -18.819  0.00  0.00    +0.029 C 
ATOM     29  C   UNL     1      33.076 -21.113 -19.467  0.00  0.00    -0.001 C 
ATOM     30  C   UNL     1      35.861 -21.266 -19.449  0.00  0.00    +0.174 C 
ATOM     31  C   UNL     1      33.833 -20.126 -20.097  0.00  0.00    +0.039 C 
ATOM     32  C   UNL     1      35.225 -20.202 -20.087  0.00  0.00    +0.166 C 
BRANCH  32  33
ATOM     33  O   UNL     1      35.963 -19.236 -20.702  0.00  0.00    -0.473 OA
BRANCH  33  34
ATOM     34  C   UNL     1      35.357 -18.561 -21.804  0.00  0.00    +0.206 C 
ATOM     35  C   UNL     1      35.394 -17.070 -21.548  0.00  0.00    +0.051 C 
ENDBRANCH  33  34
ENDBRANCH  32  33
ENDBRANCH  25  27
ENDBRANCH   5  25
TORSDOF 10
ENDMDL
MODEL 5
REMARK VINA RESULT:      -9.6      3.196      5.224
REMARK  Name = 56832738
REMARK  10 active torsions:
REMARK  status: ('A' for Active; 'I' for Inactive)
REMARK    1  A    between atoms: C_2  and  C_11
REMARK    2  A    between atoms: C_5  and  C_25
REMARK    3  A    between atoms: C_10  and  C_22
REMARK    4  A    between atoms: C_12  and  O_16
REMARK    5  A    between atoms: C_13  and  O_18
REMARK    6  A    between atoms: C_14  and  O_20
REMARK    7  A    between atoms: C_22  and  O_23
REMARK    8  A    between atoms: C_25  and  C_27
REMARK    9  A    between atoms: C_32  and  O_33
REMARK   10  A    between atoms: O_33  and  C_34
REMARK                            x       y       z     vdW  Elec       q    Type
REMARK                         _______ _______ _______ _____ _____    ______ ____
ROOT
ATOM      1 CL   UNL     1      35.525 -20.867 -19.256  0.00  0.00    -0.083 Cl
ATOM      2  C   UNL     1      36.738 -23.029 -15.483  0.00  0.00    +0.031 C 
ATOM      3  C   UNL     1      35.464 -23.233 -16.011  0.00  0.00    -0.003 C 
ATOM      4  C   UNL     1      37.628 -22.165 -16.120  0.00  0.00    +0.001 C 
ATOM      5  C   UNL     1      35.079 -22.570 -17.177  0.00  0.00    -0.007 C 
ATOM      6  C   UNL     1      37.243 -21.502 -17.286  0.00  0.00    +0.011 C 
ATOM      7  C   UNL     1      35.968 -21.705 -17.815  0.00  0.00    +0.054 C 
ENDROOT
BRANCH   2  11
ATOM      8  O   UNL     1      36.034 -24.333 -13.528  0.00  0.00    -0.326 OA
ATOM      9  O   UNL     1      37.775 -22.812 -13.306  0.00  0.00    -0.326 OA
ATOM     10  C   UNL     1      36.510 -24.427 -12.180  0.00  0.00    +0.176 C 
ATOM     11  C   UNL     1      37.158 -23.749 -14.216  0.00  0.00    +0.235 C 
ATOM     12  C   UNL     1      37.501 -25.617 -12.113  0.00  0.00    +0.169 C 
ATOM     13  C   UNL     1      38.167 -24.891 -14.477  0.00  0.00    +0.196 C 
ATOM     14  C   UNL     1      38.636 -25.532 -13.156  0.00  0.00    +0.172 C 
ATOM     15  C   UNL     1      37.174 -23.067 -12.028  0.00  0.00    +0.177 C 
BRANCH  12  16
ATOM     16  O   UNL     1      36.769 -26.823 -12.351  0.00  0.00    -0.379 OA
ATOM     17  H   UNL     1      37.123 -27.533 -11.793  0.00  0.00    +0.211 HD
ENDBRANCH  12  16
BRANCH  13  18
ATOM     18  O   UNL     1      37.558 -25.897 -15.286  0.00  0.00    -0.377 OA
ATOM     19  H   UNL     1      38.210 -26.584 -15.494  0.00  0.00    +0.211 HD
ENDBRANCH  13  18
BRANCH  14  20
ATOM     20  O   UNL     1      39.702 -24.741 -12.627  0.00  0.00    -0.379 OA
ATOM     21  H   UNL     1      40.182 -24.317 -13.355  0.00  0.00    +0.211 HD
ENDBRANCH  14  20
BRANCH  10  22
ATOM     22  C   UNL     1      35.328 -24.599 -11.234  0.00  0.00    +0.169 C 
BRANCH  22  23
ATOM     23  O   UNL     1      35.763 -25.323 -10.096  0.00  0.00    -0.379 OA
ATOM     24  H   UNL     1      36.659 -25.661 -10.251  0.00  0.00    +0.211 HD
ENDBRANCH  22  23
ENDBRANCH  10  22
ENDBRANCH   2  11
BRANCH   5  25
ATOM     25  C   UNL     1      33.704 -22.813 -17.710  0.00  0.00    +0.054 C 
BRANCH  25  27
ATOM     26  F   UNL     1      29.117 -22.392 -16.083  0.00  0.00    -0.201 F 
ATOM     27  C   UNL     1      32.657 -23.013 -16.634  0.00  0.00    -0.015 C 
ATOM     28  C   UNL     1      31.342 -22.604 -16.855  0.00  0.00    +0.029 C 
ATOM     29  C   UNL     1      33.008 -23.605 -15.421  0.00  0.00    -0.001 C 
ATOM     30  C   UNL     1      30.379 -22.788 -15.865  0.00  0.00    +0.174 C 
ATOM     31  C   UNL     1      32.045 -23.789 -14.430  0.00  0.00    +0.039 C 
ATOM     32  C   UNL     1      30.730 -23.380 -14.652  0.00  0.00    +0.166 C 
BRANCH  32  33
ATOM     33  O   UNL     1      29.790 -23.559 -13.683  0.00  0.00    -0.473 OA
BRANCH  33  34
ATOM     34  C   UNL     1      29.634 -24.881 -13.168  0.00  0.00    +0.206 C 
ATOM     35  C   UNL     1      28.997 -25.751 -14.232  0.00  0.00    +0.051 C 
ENDBRANCH  33  34
ENDBRANCH  32  33
ENDBRANCH  25  27
ENDBRANCH   5  25
TORSDOF 10
ENDMDL
MODEL 6
REMARK VINA RESULT:      -9.0     10.453     16.598
REMARK  Name = 56832738
REMARK  10 active torsions:
REMARK  status: ('A' for Active; 'I' for Inactive)
REMARK    1  A    between atoms: C_2  and  C_11
REMARK    2  A    between atoms: C_5  and  C_25
REMARK    3  A    between atoms: C_10  and  C_22
REMARK    4  A    between atoms: C_12  and  O_16
REMARK    5  A    between atoms: C_13  and  O_18
REMARK    6  A    between atoms: C_14  and  O_20
REMARK    7  A    between atoms: C_22  and  O_23
REMARK    8  A    between atoms: C_25  and  C_27
REMARK    9  A    between atoms: C_32  and  O_33
REMARK   10  A    between atoms: O_33  and  C_34
REMARK                            x       y       z     vdW  Elec       q    Type
REMARK                         _______ _______ _______ _____ _____    ______ ____
ROOT
ATOM      1 CL   UNL     1      31.638 -10.839 -17.600  0.00  0.00    -0.083 Cl
ATOM      2  C   UNL     1      31.920  -8.317 -21.334  0.00  0.00    +0.031 C 
ATOM      3  C   UNL     1      31.584  -9.666 -21.440  0.00  0.00    -0.003 C 
ATOM      4  C   UNL     1      32.165  -7.755 -20.081  0.00  0.00    +0.001 C 
ATOM      5  C   UNL     1      31.494 -10.454 -20.293  0.00  0.00    -0.007 C 
ATOM      6  C   UNL     1      32.074  -8.544 -18.934  0.00  0.00    +0.011 C 
ATOM      7  C   UNL     1      31.738  -9.894 -19.040  0.00  0.00    +0.054 C 
ENDROOT
BRANCH   2  11
ATOM      8  O   UNL     1      32.501  -6.134 -22.289  0.00  0.00    -0.326 OA
ATOM      9  O   UNL     1      30.709  -7.315 -23.175  0.00  0.00    -0.326 OA
ATOM     10  C   UNL     1      31.989  -5.368 -23.387  0.00  0.00    +0.176 C 
ATOM     11  C   UNL     1      32.018  -7.460 -22.580  0.00  0.00    +0.235 C 
ATOM     12  C   UNL     1      32.857  -5.692 -24.630  0.00  0.00    +0.169 C 
ATOM     13  C   UNL     1      32.961  -8.056 -23.651  0.00  0.00    +0.196 C 
ATOM     14  C   UNL     1      32.958  -7.202 -24.934  0.00  0.00    +0.172 C 
ATOM     15  C   UNL     1      30.572  -5.918 -23.468  0.00  0.00    +0.177 C 
BRANCH  12  16
ATOM     16  O   UNL     1      34.178  -5.197 -24.395  0.00  0.00    -0.379 OA
ATOM     17  H   UNL     1      34.818  -5.736 -24.885  0.00  0.00    +0.211 HD
ENDBRANCH  12  16
BRANCH  13  18
ATOM     18  O   UNL     1      34.293  -8.113 -23.140  0.00  0.00    -0.377 OA
ATOM     19  H   UNL     1      34.276  -8.454 -22.231  0.00  0.00    +0.211 HD
ENDBRANCH  13  18
BRANCH  14  20
ATOM     20  O   UNL     1      31.841  -7.597 -25.732  0.00  0.00    -0.379 OA
ATOM     21  H   UNL     1      31.041  -7.154 -25.410  0.00  0.00    +0.211 HD
ENDBRANCH  14  20
BRANCH  10  22
ATOM     22  C   UNL     1      32.012  -3.887 -23.030  0.00  0.00    +0.169 C 
BRANCH  22  23
ATOM     23  O   UNL     1      31.911  -3.761 -21.622  0.00  0.00    -0.379 OA
ATOM     24  H   UNL     1      32.394  -4.488 -21.197  0.00  0.00    +0.211 HD
ENDBRANCH  22  23
ENDBRANCH  10  22
ENDBRANCH   2  11
BRANCH   5  25
ATOM     25  C   UNL     1      31.132 -11.897 -20.449  0.00  0.00    +0.054 C 
BRANCH  25  27
ATOM     26  F   UNL     1      34.915 -14.963 -20.055  0.00  0.00    -0.201 F 
ATOM     27  C   UNL     1      32.226 -12.737 -21.074  0.00  0.00    -0.015 C 
ATOM     28  C   UNL     1      33.086 -13.479 -20.264  0.00  0.00    +0.029 C 
ATOM     29  C   UNL     1      32.376 -12.768 -22.460  0.00  0.00    -0.001 C 
ATOM     30  C   UNL     1      34.092 -14.252 -20.839  0.00  0.00    +0.174 C 
ATOM     31  C   UNL     1      33.383 -13.541 -23.036  0.00  0.00    +0.039 C 
ATOM     32  C   UNL     1      34.242 -14.283 -22.226  0.00  0.00    +0.166 C 
BRANCH  32  33
ATOM     33  O   UNL     1      35.225 -15.037 -22.789  0.00  0.00    -0.473 OA
BRANCH  33  34
ATOM     34  C   UNL     1      34.826 -16.246 -23.435  0.00  0.00    +0.206 C 
ATOM     35  C   UNL     1      35.312 -17.424 -22.618  0.00  0.00    +0.051 C 
ENDBRANCH  33  34
ENDBRANCH  32  33
ENDBRANCH  25  27
ENDBRANCH   5  25
TORSDOF 10
ENDMDL
MODEL 7
REMARK VINA RESULT:      -8.9     11.046     16.633
REMARK  Name = 56832738
REMARK  10 active torsions:
REMARK  status: ('A' for Active; 'I' for Inactive)
REMARK    1  A    between atoms: C_2  and  C_11
REMARK    2  A    between atoms: C_5  and  C_25
REMARK    3  A    between atoms: C_10  and  C_22
REMARK    4  A    between atoms: C_12  and  O_16
REMARK    5  A    between atoms: C_13  and  O_18
REMARK    6  A    between atoms: C_14  and  O_20
REMARK    7  A    between atoms: C_22  and  O_23
REMARK    8  A    between atoms: C_25  and  C_27
REMARK    9  A    between atoms: C_32  and  O_33
REMARK   10  A    between atoms: O_33  and  C_34
REMARK                            x       y       z     vdW  Elec       q    Type
REMARK                         _______ _______ _______ _____ _____    ______ ____
ROOT
ATOM      1 CL   UNL     1      31.631 -10.820 -17.519  0.00  0.00    -0.083 Cl
ATOM      2  C   UNL     1      31.897  -8.340 -21.283  0.00  0.00    +0.031 C 
ATOM      3  C   UNL     1      31.580  -9.695 -21.374  0.00  0.00    -0.003 C 
ATOM      4  C   UNL     1      32.127  -7.760 -20.036  0.00  0.00    +0.001 C 
ATOM      5  C   UNL     1      31.495 -10.470 -20.218  0.00  0.00    -0.007 C 
ATOM      6  C   UNL     1      32.042  -8.535 -18.880  0.00  0.00    +0.011 C 
ATOM      7  C   UNL     1      31.725  -9.891 -18.970  0.00  0.00    +0.054 C 
ENDROOT
BRANCH   2  11
ATOM      8  O   UNL     1      32.452  -6.161 -22.262  0.00  0.00    -0.326 OA
ATOM      9  O   UNL     1      30.681  -7.378 -23.143  0.00  0.00    -0.326 OA
ATOM     10  C   UNL     1      31.935  -5.416 -23.372  0.00  0.00    +0.176 C 
ATOM     11  C   UNL     1      31.989  -7.497 -22.540  0.00  0.00    +0.235 C 
ATOM     12  C   UNL     1      32.814  -5.743 -24.607  0.00  0.00    +0.169 C 
ATOM     13  C   UNL     1      32.946  -8.094 -23.598  0.00  0.00    +0.196 C 
ATOM     14  C   UNL     1      32.937  -7.256 -24.892  0.00  0.00    +0.172 C 
ATOM     15  C   UNL     1      30.527  -5.986 -23.453  0.00  0.00    +0.177 C 
BRANCH  12  16
ATOM     16  O   UNL     1      34.127  -5.227 -24.372  0.00  0.00    -0.379 OA
ATOM     17  H   UNL     1      34.784  -5.915 -24.561  0.00  0.00    +0.211 HD
ENDBRANCH  12  16
BRANCH  13  18
ATOM     18  O   UNL     1      34.275  -8.126 -23.080  0.00  0.00    -0.377 OA
ATOM     19  H   UNL     1      34.712  -7.278 -23.259  0.00  0.00    +0.211 HD
ENDBRANCH  13  18
BRANCH  14  20
ATOM     20  O   UNL     1      31.829  -7.676 -25.691  0.00  0.00    -0.379 OA
ATOM     21  H   UNL     1      32.000  -8.564 -26.039  0.00  0.00    +0.211 HD
ENDBRANCH  14  20
BRANCH  10  22
ATOM     22  C   UNL     1      31.936  -3.931 -23.034  0.00  0.00    +0.169 C 
BRANCH  22  23
ATOM     23  O   UNL     1      31.925  -3.789 -21.624  0.00  0.00    -0.379 OA
ATOM     24  H   UNL     1      31.650  -2.888 -21.391  0.00  0.00    +0.211 HD
ENDBRANCH  22  23
ENDBRANCH  10  22
ENDBRANCH   2  11
BRANCH   5  25
ATOM     25  C   UNL     1      31.155 -11.919 -20.358  0.00  0.00    +0.054 C 
BRANCH  25  27
ATOM     26  F   UNL     1      33.366 -13.626 -24.365  0.00  0.00    -0.201 F 
ATOM     27  C   UNL     1      32.239 -12.740 -21.024  0.00  0.00    -0.015 C 
ATOM     28  C   UNL     1      32.307 -12.809 -22.416  0.00  0.00    +0.029 C 
ATOM     29  C   UNL     1      33.168 -13.430 -20.245  0.00  0.00    -0.001 C 
ATOM     30  C   UNL     1      33.306 -13.565 -23.028  0.00  0.00    +0.174 C 
ATOM     31  C   UNL     1      34.166 -14.186 -20.858  0.00  0.00    +0.039 C 
ATOM     32  C   UNL     1      34.235 -14.254 -22.249  0.00  0.00    +0.166 C 
BRANCH  32  33
ATOM     33  O   UNL     1      35.210 -14.994 -22.846  0.00  0.00    -0.473 OA
BRANCH  33  34
ATOM     34  C   UNL     1      35.001 -16.404 -22.920  0.00  0.00    +0.206 C 
ATOM     35  C   UNL     1      34.639 -16.774 -24.342  0.00  0.00    +0.051 C 
ENDBRANCH  33  34
ENDBRANCH  32  33
ENDBRANCH  25  27
ENDBRANCH   5  25
TORSDOF 10
ENDMDL
MODEL 8
REMARK VINA RESULT:      -8.8     10.767     17.482
REMARK  Name = 56832738
REMARK  10 active torsions:
REMARK  status: ('A' for Active; 'I' for Inactive)
REMARK    1  A    between atoms: C_2  and  C_11
REMARK    2  A    between atoms: C_5  and  C_25
REMARK    3  A    between atoms: C_10  and  C_22
REMARK    4  A    between atoms: C_12  and  O_16
REMARK    5  A    between atoms: C_13  and  O_18
REMARK    6  A    between atoms: C_14  and  O_20
REMARK    7  A    between atoms: C_22  and  O_23
REMARK    8  A    between atoms: C_25  and  C_27
REMARK    9  A    between atoms: C_32  and  O_33
REMARK   10  A    between atoms: O_33  and  C_34
REMARK                            x       y       z     vdW  Elec       q    Type
REMARK                         _______ _______ _______ _____ _____    ______ ____
ROOT
ATOM      1 CL   UNL     1      31.816 -11.089 -18.564  0.00  0.00    -0.083 Cl
ATOM      2  C   UNL     1      31.924  -7.449 -21.233  0.00  0.00    +0.031 C 
ATOM      3  C   UNL     1      31.486  -8.668 -21.751  0.00  0.00    -0.003 C 
ATOM      4  C   UNL     1      32.323  -7.361 -19.900  0.00  0.00    +0.001 C 
ATOM      5  C   UNL     1      31.448  -9.798 -20.935  0.00  0.00    -0.007 C 
ATOM      6  C   UNL     1      32.285  -8.491 -19.084  0.00  0.00    +0.011 C 
ATOM      7  C   UNL     1      31.847  -9.711 -19.601  0.00  0.00    +0.054 C 
ENDROOT
BRANCH   2  11
ATOM      8  O   UNL     1      31.537  -6.509 -23.465  0.00  0.00    -0.326 OA
ATOM      9  O   UNL     1      33.320  -5.724 -22.200  0.00  0.00    -0.326 OA
ATOM     10  C   UNL     1      32.170  -5.469 -24.222  0.00  0.00    +0.176 C 
ATOM     11  C   UNL     1      31.965  -6.220 -22.120  0.00  0.00    +0.235 C 
ATOM     12  C   UNL     1      31.377  -4.159 -23.974  0.00  0.00    +0.169 C 
ATOM     13  C   UNL     1      31.070  -5.071 -21.600  0.00  0.00    +0.196 C 
ATOM     14  C   UNL     1      31.214  -3.812 -22.478  0.00  0.00    +0.172 C 
ATOM     15  C   UNL     1      33.555  -5.475 -23.593  0.00  0.00    +0.177 C 
BRANCH  12  16
ATOM     16  O   UNL     1      30.072  -4.312 -24.540  0.00  0.00    -0.379 OA
ATOM     17  H   UNL     1      29.587  -3.475 -24.466  0.00  0.00    +0.211 HD
ENDBRANCH  12  16
BRANCH  13  18
ATOM     18  O   UNL     1      29.703  -5.485 -21.610  0.00  0.00    -0.377 OA
ATOM     19  H   UNL     1      29.527  -6.034 -20.830  0.00  0.00    +0.211 HD
ENDBRANCH  13  18
BRANCH  14  20
ATOM     20  O   UNL     1      32.362  -3.087 -22.036  0.00  0.00    -0.379 OA
ATOM     21  H   UNL     1      33.103  -3.254 -22.640  0.00  0.00    +0.211 HD
ENDBRANCH  14  20
BRANCH  10  22
ATOM     22  C   UNL     1      32.204  -5.859 -25.694  0.00  0.00    +0.169 C 
BRANCH  22  23
ATOM     23  O   UNL     1      32.304  -4.679 -26.472  0.00  0.00    -0.379 OA
ATOM     24  H   UNL     1      32.393  -3.911 -25.884  0.00  0.00    +0.211 HD
ENDBRANCH  22  23
ENDBRANCH  10  22
ENDBRANCH   2  11
BRANCH   5  25
ATOM     25  C   UNL     1      30.973 -11.086 -21.528  0.00  0.00    +0.054 C 
BRANCH  25  27
ATOM     26  F   UNL     1      33.658 -15.049 -20.550  0.00  0.00    -0.201 F 
ATOM     27  C   UNL     1      32.091 -12.047 -21.876  0.00  0.00    -0.015 C 
ATOM     28  C   UNL     1      32.368 -13.128 -21.038  0.00  0.00    +0.029 C 
ATOM     29  C   UNL     1      32.844 -11.851 -23.033  0.00  0.00    -0.001 C 
ATOM     30  C   UNL     1      33.397 -14.012 -21.359  0.00  0.00    +0.174 C 
ATOM     31  C   UNL     1      33.872 -12.736 -23.354  0.00  0.00    +0.039 C 
ATOM     32  C   UNL     1      34.150 -13.816 -22.516  0.00  0.00    +0.166 C 
BRANCH  32  33
ATOM     33  O   UNL     1      35.155 -14.679 -22.830  0.00  0.00    -0.473 OA
BRANCH  33  34
ATOM     34  C   UNL     1      34.809 -15.820 -23.615  0.00  0.00    +0.206 C 
ATOM     35  C   UNL     1      35.185 -17.073 -22.854  0.00  0.00    +0.051 C 
ENDBRANCH  33  34
ENDBRANCH  32  33
ENDBRANCH  25  27
ENDBRANCH   5  25
TORSDOF 10
ENDMDL
MODEL 9
REMARK VINA RESULT:      -8.6      3.195      5.677
REMARK  Name = 56832738
REMARK  10 active torsions:
REMARK  status: ('A' for Active; 'I' for Inactive)
REMARK    1  A    between atoms: C_2  and  C_11
REMARK    2  A    between atoms: C_5  and  C_25
REMARK    3  A    between atoms: C_10  and  C_22
REMARK    4  A    between atoms: C_12  and  O_16
REMARK    5  A    between atoms: C_13  and  O_18
REMARK    6  A    between atoms: C_14  and  O_20
REMARK    7  A    between atoms: C_22  and  O_23
REMARK    8  A    between atoms: C_25  and  C_27
REMARK    9  A    between atoms: C_32  and  O_33
REMARK   10  A    between atoms: O_33  and  C_34
REMARK                            x       y       z     vdW  Elec       q    Type
REMARK                         _______ _______ _______ _____ _____    ______ ____
ROOT
ATOM      1 CL   UNL     1      35.525 -20.786 -19.254  0.00  0.00    -0.083 Cl
ATOM      2  C   UNL     1      36.584 -23.225 -15.605  0.00  0.00    +0.031 C 
ATOM      3  C   UNL     1      35.298 -23.309 -16.138  0.00  0.00    -0.003 C 
ATOM      4  C   UNL     1      37.533 -22.394 -16.200  0.00  0.00    +0.001 C 
ATOM      5  C   UNL     1      34.960 -22.560 -17.265  0.00  0.00    -0.007 C 
ATOM      6  C   UNL     1      37.195 -21.645 -17.327  0.00  0.00    +0.011 C 
ATOM      7  C   UNL     1      35.908 -21.728 -17.861  0.00  0.00    +0.054 C 
ENDROOT
BRANCH   2  11
ATOM      8  O   UNL     1      38.378 -24.113 -14.188  0.00  0.00    -0.326 OA
ATOM      9  O   UNL     1      36.473 -25.394 -14.535  0.00  0.00    -0.326 OA
ATOM     10  C   UNL     1      38.526 -25.312 -13.417  0.00  0.00    +0.176 C 
ATOM     11  C   UNL     1      36.952 -24.039 -14.381  0.00  0.00    +0.235 C 
ATOM     12  C   UNL     1      38.084 -24.994 -11.965  0.00  0.00    +0.169 C 
ATOM     13  C   UNL     1      36.350 -23.471 -13.075  0.00  0.00    +0.196 C 
ATOM     14  C   UNL     1      36.671 -24.380 -11.871  0.00  0.00    +0.172 C 
ATOM     15  C   UNL     1      37.572 -26.235 -14.159  0.00  0.00    +0.177 C 
BRANCH  12  16
ATOM     16  O   UNL     1      39.013 -24.058 -11.409  0.00  0.00    -0.379 OA
ATOM     17  H   UNL     1      38.555 -23.485 -10.775  0.00  0.00    +0.211 HD
ENDBRANCH  12  16
BRANCH  13  18
ATOM     18  O   UNL     1      36.885 -22.171 -12.825  0.00  0.00    -0.377 OA
ATOM     19  H   UNL     1      36.946 -22.025 -11.868  0.00  0.00    +0.211 HD
ENDBRANCH  13  18
BRANCH  14  20
ATOM     20  O   UNL     1      35.703 -25.430 -11.833  0.00  0.00    -0.379 OA
ATOM     21  H   UNL     1      34.827 -25.070 -12.038  0.00  0.00    +0.211 HD
ENDBRANCH  14  20
BRANCH  10  22
ATOM     22  C   UNL     1      39.970 -25.792 -13.494  0.00  0.00    +0.169 C 
BRANCH  22  23
ATOM     23  O   UNL     1      40.784 -24.708 -13.906  0.00  0.00    -0.379 OA
ATOM     24  H   UNL     1      41.231 -24.328 -13.133  0.00  0.00    +0.211 HD
ENDBRANCH  22  23
ENDBRANCH  10  22
ENDBRANCH   2  11
BRANCH   5  25
ATOM     25  C   UNL     1      33.571 -22.677 -17.805  0.00  0.00    +0.054 C 
BRANCH  25  27
ATOM     26  F   UNL     1      28.954 -22.397 -16.233  0.00  0.00    -0.201 F 
ATOM     27  C   UNL     1      32.518 -22.904 -16.740  0.00  0.00    -0.015 C 
ATOM     28  C   UNL     1      31.193 -22.540 -16.978  0.00  0.00    +0.029 C 
ATOM     29  C   UNL     1      32.875 -23.478 -15.519  0.00  0.00    -0.001 C 
ATOM     30  C   UNL     1      30.225 -22.750 -15.998  0.00  0.00    +0.174 C 
ATOM     31  C   UNL     1      31.907 -23.688 -14.538  0.00  0.00    +0.039 C 
ATOM     32  C   UNL     1      30.581 -23.323 -14.777  0.00  0.00    +0.166 C 
BRANCH  32  33
ATOM     33  O   UNL     1      29.637 -23.528 -13.818  0.00  0.00    -0.473 OA
BRANCH  33  34
ATOM     34  C   UNL     1      29.562 -24.836 -13.251  0.00  0.00    +0.206 C 
ATOM     35  C   UNL     1      29.010 -25.791 -14.289  0.00  0.00    +0.051 C 
ENDBRANCH  33  34
ENDBRANCH  32  33
ENDBRANCH  25  27
ENDBRANCH   5  25
TORSDOF 10
ENDMDL
