MODEL 1
REMARK VINA RESULT:     -10.2      0.000      0.000
REMARK  Name = 5287792
REMARK  2 active torsions:
REMARK  status: ('A' for Active; 'I' for Inactive)
REMARK    1  A    between atoms: N_2  and  C_16
REMARK    2  A    between atoms: C_4  and  O_22
REMARK                            x       y       z     vdW  Elec       q    Type
REMARK                         _______ _______ _______ _____ _____    ______ ____
ROOT
ATOM      1  O   UNL     1      32.026 -21.791 -18.242  0.00  0.00    -0.288 OA
ATOM      2  N   UNL     1      34.858 -23.791 -15.222  0.00  0.00    -0.264 N 
ATOM      3  N   UNL     1      35.857 -22.473 -17.015  0.00  0.00    -0.392 NA
ATOM      4  C   UNL     1      33.543 -23.288 -17.120  0.00  0.00    +0.204 C 
ATOM      5  C   UNL     1      32.632 -23.509 -15.917  0.00  0.00    +0.065 C 
ATOM      6  C   UNL     1      33.510 -24.297 -14.935  0.00  0.00    +0.101 C 
ATOM      7  C   UNL     1      34.897 -23.130 -16.447  0.00  0.00    +0.195 C 
ATOM      8  C   UNL     1      33.176 -22.149 -18.029  0.00  0.00    +0.207 C 
ATOM      9  C   UNL     1      34.324 -21.535 -18.723  0.00  0.00    +0.063 C 
ATOM     10  C   UNL     1      35.611 -21.775 -18.215  0.00  0.00    +0.117 C 
ATOM     11  C   UNL     1      34.125 -20.764 -19.871  0.00  0.00    +0.001 C 
ATOM     12  C   UNL     1      36.703 -21.225 -18.897  0.00  0.00    +0.085 C 
ATOM     13  C   UNL     1      35.227 -20.228 -20.534  0.00  0.00    -0.026 C 
ATOM     14  C   UNL     1      36.513 -20.461 -20.051  0.00  0.00    -0.023 C 
ATOM     15  C   UNL     1      35.031 -19.408 -21.764  0.00  0.00    +0.031 C 
ENDROOT
BRANCH   2  16
ATOM     16  C   UNL     1      35.909 -24.002 -14.364  0.00  0.00    +0.053 C 
ATOM     17  C   UNL     1      36.116 -23.172 -13.238  0.00  0.00    +0.015 C 
ATOM     18  C   UNL     1      36.827 -25.057 -14.572  0.00  0.00    +0.015 C 
ATOM     19  C   UNL     1      37.183 -23.388 -12.365  0.00  0.00    +0.001 C 
ATOM     20  C   UNL     1      37.894 -25.272 -13.700  0.00  0.00    +0.001 C 
ATOM     21  C   UNL     1      38.073 -24.437 -12.597  0.00  0.00    +0.000 C 
ENDBRANCH   2  16
BRANCH   4  22
ATOM     22  O   UNL     1      33.598 -24.433 -17.955  0.00  0.00    -0.372 OA
ATOM     23  H   UNL     1      32.794 -24.479 -18.496  0.00  0.00    +0.211 HD
ENDBRANCH   4  22
TORSDOF 2
ENDMDL
MODEL 2
REMARK VINA RESULT:     -10.1     10.490     13.546
REMARK  Name = 5287792
REMARK  2 active torsions:
REMARK  status: ('A' for Active; 'I' for Inactive)
REMARK    1  A    between atoms: N_2  and  C_16
REMARK    2  A    between atoms: C_4  and  O_22
REMARK                            x       y       z     vdW  Elec       q    Type
REMARK                         _______ _______ _______ _____ _____    ______ ____
ROOT
ATOM      1  O   UNL     1      31.654  -9.190 -19.654  0.00  0.00    -0.288 OA
ATOM      2  N   UNL     1      32.776 -13.093 -21.811  0.00  0.00    -0.264 N 
ATOM      3  N   UNL     1      32.526 -11.078 -23.164  0.00  0.00    -0.392 NA
ATOM      4  C   UNL     1      31.607 -11.255 -20.893  0.00  0.00    +0.204 C 
ATOM      5  C   UNL     1      32.202 -12.091 -19.765  0.00  0.00    +0.065 C 
ATOM      6  C   UNL     1      32.467 -13.453 -20.422  0.00  0.00    +0.101 C 
ATOM      7  C   UNL     1      32.362 -11.795 -22.098  0.00  0.00    +0.195 C 
ATOM      8  C   UNL     1      31.700  -9.764 -20.733  0.00  0.00    +0.207 C 
ATOM      9  C   UNL     1      31.768  -9.022 -22.007  0.00  0.00    +0.063 C 
ATOM     10  C   UNL     1      32.122  -9.728 -23.168  0.00  0.00    +0.117 C 
ATOM     11  C   UNL     1      31.456  -7.660 -22.049  0.00  0.00    +0.001 C 
ATOM     12  C   UNL     1      32.148  -9.032 -24.382  0.00  0.00    +0.085 C 
ATOM     13  C   UNL     1      31.487  -6.989 -23.269  0.00  0.00    -0.026 C 
ATOM     14  C   UNL     1      31.828  -7.673 -24.433  0.00  0.00    -0.023 C 
ATOM     15  C   UNL     1      31.151  -5.536 -23.330  0.00  0.00    +0.031 C 
ENDROOT
BRANCH   2  16
ATOM     16  C   UNL     1      33.371 -13.979 -22.674  0.00  0.00    +0.053 C 
ATOM     17  C   UNL     1      34.428 -14.818 -22.252  0.00  0.00    +0.015 C 
ATOM     18  C   UNL     1      32.950 -14.090 -24.019  0.00  0.00    +0.015 C 
ATOM     19  C   UNL     1      35.032 -15.720 -23.129  0.00  0.00    +0.001 C 
ATOM     20  C   UNL     1      33.554 -14.992 -24.895  0.00  0.00    +0.001 C 
ATOM     21  C   UNL     1      34.595 -15.807 -24.451  0.00  0.00    +0.000 C 
ENDBRANCH   2  16
BRANCH   4  22
ATOM     22  O   UNL     1      30.228 -11.529 -21.080  0.00  0.00    -0.372 OA
ATOM     23  H   UNL     1      29.970 -11.290 -21.984  0.00  0.00    +0.211 HD
ENDBRANCH   4  22
TORSDOF 2
ENDMDL
MODEL 3
REMARK VINA RESULT:     -10.0      0.609      1.191
REMARK  Name = 5287792
REMARK  2 active torsions:
REMARK  status: ('A' for Active; 'I' for Inactive)
REMARK    1  A    between atoms: N_2  and  C_16
REMARK    2  A    between atoms: C_4  and  O_22
REMARK                            x       y       z     vdW  Elec       q    Type
REMARK                         _______ _______ _______ _____ _____    ______ ____
ROOT
ATOM      1  O   UNL     1      31.881 -22.240 -17.688  0.00  0.00    -0.288 OA
ATOM      2  N   UNL     1      34.897 -23.935 -14.659  0.00  0.00    -0.264 N 
ATOM      3  N   UNL     1      35.773 -22.638 -16.530  0.00  0.00    -0.392 NA
ATOM      4  C   UNL     1      33.511 -23.594 -16.543  0.00  0.00    +0.204 C 
ATOM      5  C   UNL     1      32.642 -23.818 -15.309  0.00  0.00    +0.065 C 
ATOM      6  C   UNL     1      33.589 -24.509 -14.318  0.00  0.00    +0.101 C 
ATOM      7  C   UNL     1      34.868 -23.327 -15.911  0.00  0.00    +0.195 C 
ATOM      8  C   UNL     1      33.055 -22.519 -17.488  0.00  0.00    +0.207 C 
ATOM      9  C   UNL     1      34.148 -21.868 -18.236  0.00  0.00    +0.063 C 
ATOM     10  C   UNL     1      35.458 -22.008 -17.751  0.00  0.00    +0.117 C 
ATOM     11  C   UNL     1      33.877 -21.160 -19.410  0.00  0.00    +0.001 C 
ATOM     12  C   UNL     1      36.499 -21.423 -18.482  0.00  0.00    +0.085 C 
ATOM     13  C   UNL     1      34.929 -20.588 -20.122  0.00  0.00    -0.026 C 
ATOM     14  C   UNL     1      36.237 -20.722 -19.661  0.00  0.00    -0.023 C 
ATOM     15  C   UNL     1      34.655 -19.834 -21.380  0.00  0.00    +0.031 C 
ENDROOT
BRANCH   2  16
ATOM     16  C   UNL     1      35.978 -24.046 -13.820  0.00  0.00    +0.053 C 
ATOM     17  C   UNL     1      37.041 -24.934 -14.106  0.00  0.00    +0.015 C 
ATOM     18  C   UNL     1      36.072 -23.278 -12.638  0.00  0.00    +0.015 C 
ATOM     19  C   UNL     1      38.140 -25.046 -13.253  0.00  0.00    +0.001 C 
ATOM     20  C   UNL     1      37.170 -23.390 -11.786  0.00  0.00    +0.001 C 
ATOM     21  C   UNL     1      38.204 -24.274 -12.092  0.00  0.00    +0.000 C 
ENDBRANCH   2  16
BRANCH   4  22
ATOM     22  O   UNL     1      33.617 -24.769 -17.331  0.00  0.00    -0.372 OA
ATOM     23  H   UNL     1      33.397 -24.560 -18.253  0.00  0.00    +0.211 HD
ENDBRANCH   4  22
TORSDOF 2
ENDMDL
MODEL 4
REMARK VINA RESULT:      -9.5      5.946      9.067
REMARK  Name = 5287792
REMARK  2 active torsions:
REMARK  status: ('A' for Active; 'I' for Inactive)
REMARK    1  A    between atoms: N_2  and  C_16
REMARK    2  A    between atoms: C_4  and  O_22
REMARK                            x       y       z     vdW  Elec       q    Type
REMARK                         _______ _______ _______ _____ _____    ______ ____
ROOT
ATOM      1  O   UNL     1      32.728 -15.558 -25.672  0.00  0.00    -0.288 OA
ATOM      2  N   UNL     1      34.919 -18.463 -22.861  0.00  0.00    -0.264 N 
ATOM      3  N   UNL     1      34.734 -16.133 -22.166  0.00  0.00    -0.392 NA
ATOM      4  C   UNL     1      34.394 -16.837 -24.494  0.00  0.00    +0.204 C 
ATOM      5  C   UNL     1      33.846 -18.191 -24.933  0.00  0.00    +0.065 C 
ATOM      6  C   UNL     1      34.656 -19.197 -24.105  0.00  0.00    +0.101 C 
ATOM      7  C   UNL     1      34.701 -17.098 -23.027  0.00  0.00    +0.195 C 
ATOM      8  C   UNL     1      33.501 -15.652 -24.729  0.00  0.00    +0.207 C 
ATOM      9  C   UNL     1      33.689 -14.552 -23.764  0.00  0.00    +0.063 C 
ATOM     10  C   UNL     1      34.346 -14.834 -22.556  0.00  0.00    +0.117 C 
ATOM     11  C   UNL     1      33.248 -13.261 -24.069  0.00  0.00    +0.001 C 
ATOM     12  C   UNL     1      34.560 -13.782 -21.658  0.00  0.00    +0.085 C 
ATOM     13  C   UNL     1      33.473 -12.229 -23.161  0.00  0.00    -0.026 C 
ATOM     14  C   UNL     1      34.130 -12.487 -21.960  0.00  0.00    -0.023 C 
ATOM     15  C   UNL     1      33.013 -10.845 -23.477  0.00  0.00    +0.031 C 
ENDROOT
BRANCH   2  16
ATOM     16  C   UNL     1      35.352 -19.097 -21.722  0.00  0.00    +0.053 C 
ATOM     17  C   UNL     1      34.514 -19.992 -21.017  0.00  0.00    +0.015 C 
ATOM     18  C   UNL     1      36.651 -18.883 -21.210  0.00  0.00    +0.015 C 
ATOM     19  C   UNL     1      34.954 -20.637 -19.860  0.00  0.00    +0.001 C 
ATOM     20  C   UNL     1      37.091 -19.528 -20.055  0.00  0.00    +0.001 C 
ATOM     21  C   UNL     1      36.242 -20.404 -19.379  0.00  0.00    +0.000 C 
ENDBRANCH   2  16
BRANCH   4  22
ATOM     22  O   UNL     1      35.613 -16.525 -25.149  0.00  0.00    -0.372 OA
ATOM     23  H   UNL     1      35.443 -15.895 -25.867  0.00  0.00    +0.211 HD
ENDBRANCH   4  22
TORSDOF 2
ENDMDL
MODEL 5
REMARK VINA RESULT:      -9.1      5.816      8.932
REMARK  Name = 5287792
REMARK  2 active torsions:
REMARK  status: ('A' for Active; 'I' for Inactive)
REMARK    1  A    between atoms: N_2  and  C_16
REMARK    2  A    between atoms: C_4  and  O_22
REMARK                            x       y       z     vdW  Elec       q    Type
REMARK                         _______ _______ _______ _____ _____    ______ ____
ROOT
ATOM      1  O   UNL     1      33.086 -14.549 -24.622  0.00  0.00    -0.288 OA
ATOM      2  N   UNL     1      35.131 -17.934 -22.276  0.00  0.00    -0.264 N 
ATOM      3  N   UNL     1      34.201 -16.072 -21.005  0.00  0.00    -0.392 NA
ATOM      4  C   UNL     1      34.657 -15.917 -23.413  0.00  0.00    +0.204 C 
ATOM      5  C   UNL     1      34.594 -17.080 -24.398  0.00  0.00    +0.065 C 
ATOM      6  C   UNL     1      35.387 -18.192 -23.699  0.00  0.00    +0.101 C 
ATOM      7  C   UNL     1      34.632 -16.649 -22.080  0.00  0.00    +0.195 C 
ATOM      8  C   UNL     1      33.589 -14.869 -23.554  0.00  0.00    +0.207 C 
ATOM      9  C   UNL     1      33.244 -14.184 -22.294  0.00  0.00    +0.063 C 
ATOM     10  C   UNL     1      33.618 -14.791 -21.084  0.00  0.00    +0.117 C 
ATOM     11  C   UNL     1      32.591 -12.948 -22.318  0.00  0.00    +0.001 C 
ATOM     12  C   UNL     1      33.325 -14.121 -19.891  0.00  0.00    +0.085 C 
ATOM     13  C   UNL     1      32.312 -12.299 -21.117  0.00  0.00    -0.026 C 
ATOM     14  C   UNL     1      32.681 -12.882 -19.906  0.00  0.00    -0.023 C 
ATOM     15  C   UNL     1      31.620 -10.978 -21.127  0.00  0.00    +0.031 C 
ENDROOT
BRANCH   2  16
ATOM     16  C   UNL     1      35.400 -18.872 -21.310  0.00  0.00    +0.053 C 
ATOM     17  C   UNL     1      34.395 -19.748 -20.837  0.00  0.00    +0.015 C 
ATOM     18  C   UNL     1      36.691 -19.000 -20.750  0.00  0.00    +0.015 C 
ATOM     19  C   UNL     1      34.669 -20.701 -19.856  0.00  0.00    +0.001 C 
ATOM     20  C   UNL     1      36.964 -19.953 -19.769  0.00  0.00    +0.001 C 
ATOM     21  C   UNL     1      35.953 -20.804 -19.321  0.00  0.00    +0.000 C 
ENDBRANCH   2  16
BRANCH   4  22
ATOM     22  O   UNL     1      35.887 -15.215 -23.505  0.00  0.00    -0.372 OA
ATOM     23  H   UNL     1      36.409 -15.371 -22.702  0.00  0.00    +0.211 HD
ENDBRANCH   4  22
TORSDOF 2
ENDMDL
MODEL 6
REMARK VINA RESULT:      -8.8      2.105      6.449
REMARK  Name = 5287792
REMARK  2 active torsions:
REMARK  status: ('A' for Active; 'I' for Inactive)
REMARK    1  A    between atoms: N_2  and  C_16
REMARK    2  A    between atoms: C_4  and  O_22
REMARK                            x       y       z     vdW  Elec       q    Type
REMARK                         _______ _______ _______ _____ _____    ______ ____
ROOT
ATOM      1  O   UNL     1      35.136 -23.766 -12.689  0.00  0.00    -0.288 OA
ATOM      2  N   UNL     1      35.912 -22.221 -16.949  0.00  0.00    -0.264 N 
ATOM      3  N   UNL     1      33.631 -22.862 -16.372  0.00  0.00    -0.392 NA
ATOM      4  C   UNL     1      35.570 -23.587 -15.051  0.00  0.00    +0.204 C 
ATOM      5  C   UNL     1      36.864 -22.797 -14.880  0.00  0.00    +0.065 C 
ATOM      6  C   UNL     1      37.225 -22.377 -16.311  0.00  0.00    +0.101 C 
ATOM      7  C   UNL     1      34.914 -22.844 -16.204  0.00  0.00    +0.195 C 
ATOM      8  C   UNL     1      34.702 -23.709 -13.831  0.00  0.00    +0.207 C 
ATOM      9  C   UNL     1      33.262 -23.840 -14.124  0.00  0.00    +0.063 C 
ATOM     10  C   UNL     1      32.807 -23.463 -15.398  0.00  0.00    +0.117 C 
ATOM     11  C   UNL     1      32.389 -24.355 -13.162  0.00  0.00    +0.001 C 
ATOM     12  C   UNL     1      31.448 -23.625 -15.689  0.00  0.00    +0.085 C 
ATOM     13  C   UNL     1      31.040 -24.509 -13.474  0.00  0.00    -0.026 C 
ATOM     14  C   UNL     1      30.570 -24.148 -14.736  0.00  0.00    -0.023 C 
ATOM     15  C   UNL     1      30.097 -25.062 -12.459  0.00  0.00    +0.031 C 
ENDROOT
BRANCH   2  16
ATOM     16  C   UNL     1      35.760 -21.560 -18.143  0.00  0.00    +0.053 C 
ATOM     17  C   UNL     1      34.541 -21.606 -18.859  0.00  0.00    +0.015 C 
ATOM     18  C   UNL     1      36.815 -20.806 -18.705  0.00  0.00    +0.015 C 
ATOM     19  C   UNL     1      34.387 -20.934 -20.071  0.00  0.00    +0.001 C 
ATOM     20  C   UNL     1      36.661 -20.134 -19.917  0.00  0.00    +0.001 C 
ATOM     21  C   UNL     1      35.447 -20.198 -20.601  0.00  0.00    +0.000 C 
ENDBRANCH   2  16
BRANCH   4  22
ATOM     22  O   UNL     1      35.818 -24.919 -15.471  0.00  0.00    -0.372 OA
ATOM     23  H   UNL     1      36.773 -25.091 -15.454  0.00  0.00    +0.211 HD
ENDBRANCH   4  22
TORSDOF 2
ENDMDL
MODEL 7
REMARK VINA RESULT:      -8.6      2.402      4.668
REMARK  Name = 5287792
REMARK  2 active torsions:
REMARK  status: ('A' for Active; 'I' for Inactive)
REMARK    1  A    between atoms: N_2  and  C_16
REMARK    2  A    between atoms: C_4  and  O_22
REMARK                            x       y       z     vdW  Elec       q    Type
REMARK                         _______ _______ _______ _____ _____    ______ ____
ROOT
ATOM      1  O   UNL     1      36.974 -23.218 -16.168  0.00  0.00    -0.288 OA
ATOM      2  N   UNL     1      32.637 -23.976 -14.840  0.00  0.00    -0.264 N 
ATOM      3  N   UNL     1      32.991 -22.743 -16.915  0.00  0.00    -0.392 NA
ATOM      4  C   UNL     1      34.762 -23.019 -15.236  0.00  0.00    +0.204 C 
ATOM      5  C   UNL     1      34.912 -24.217 -14.303  0.00  0.00    +0.065 C 
ATOM      6  C   UNL     1      33.499 -24.415 -13.736  0.00  0.00    +0.101 C 
ATOM      7  C   UNL     1      33.354 -23.229 -15.771  0.00  0.00    +0.195 C 
ATOM      8  C   UNL     1      35.807 -22.878 -16.306  0.00  0.00    +0.207 C 
ATOM      9  C   UNL     1      35.331 -22.208 -17.531  0.00  0.00    +0.063 C 
ATOM     10  C   UNL     1      33.946 -22.123 -17.746  0.00  0.00    +0.117 C 
ATOM     11  C   UNL     1      36.243 -21.648 -18.430  0.00  0.00    +0.001 C 
ATOM     12  C   UNL     1      33.494 -21.453 -18.889  0.00  0.00    +0.085 C 
ATOM     13  C   UNL     1      35.770 -20.984 -19.560  0.00  0.00    -0.026 C 
ATOM     14  C   UNL     1      34.399 -20.883 -19.787  0.00  0.00    -0.023 C 
ATOM     15  C   UNL     1      36.732 -20.378 -20.526  0.00  0.00    +0.031 C 
ENDROOT
BRANCH   2  16
ATOM     16  C   UNL     1      31.297 -24.272 -14.875  0.00  0.00    +0.053 C 
ATOM     17  C   UNL     1      30.770 -25.376 -14.164  0.00  0.00    +0.015 C 
ATOM     18  C   UNL     1      30.390 -23.487 -15.622  0.00  0.00    +0.015 C 
ATOM     19  C   UNL     1      29.408 -25.676 -14.199  0.00  0.00    +0.001 C 
ATOM     20  C   UNL     1      29.029 -23.788 -15.656  0.00  0.00    +0.001 C 
ATOM     21  C   UNL     1      28.537 -24.882 -14.945  0.00  0.00    +0.000 C 
ENDBRANCH   2  16
BRANCH   4  22
ATOM     22  O   UNL     1      34.783 -21.792 -14.524  0.00  0.00    -0.372 OA
ATOM     23  H   UNL     1      35.665 -21.394 -14.592  0.00  0.00    +0.211 HD
ENDBRANCH   4  22
TORSDOF 2
ENDMDL
MODEL 8
REMARK VINA RESULT:      -8.2     12.697     16.995
REMARK  Name = 5287792
REMARK  2 active torsions:
REMARK  status: ('A' for Active; 'I' for Inactive)
REMARK    1  A    between atoms: N_2  and  C_16
REMARK    2  A    between atoms: C_4  and  O_22
REMARK                            x       y       z     vdW  Elec       q    Type
REMARK                         _______ _______ _______ _____ _____    ______ ____
ROOT
ATOM      1  O   UNL     1      31.157  -8.834 -19.095  0.00  0.00    -0.288 OA
ATOM      2  N   UNL     1      32.570  -6.211 -22.597  0.00  0.00    -0.264 N 
ATOM      3  N   UNL     1      32.703  -8.631 -22.865  0.00  0.00    -0.392 NA
ATOM      4  C   UNL     1      32.474  -7.567 -20.664  0.00  0.00    +0.204 C 
ATOM      5  C   UNL     1      31.755  -6.249 -20.394  0.00  0.00    +0.065 C 
ATOM      6  C   UNL     1      32.309  -5.306 -21.470  0.00  0.00    +0.101 C 
ATOM      7  C   UNL     1      32.595  -7.539 -22.180  0.00  0.00    +0.195 C 
ATOM      8  C   UNL     1      31.812  -8.805 -20.127  0.00  0.00    +0.207 C 
ATOM      9  C   UNL     1      32.086 -10.025 -20.911  0.00  0.00    +0.063 C 
ATOM     10  C   UNL     1      32.571  -9.878 -22.220  0.00  0.00    +0.117 C 
ATOM     11  C   UNL     1      31.893 -11.287 -20.343  0.00  0.00    +0.001 C 
ATOM     12  C   UNL     1      32.869 -11.035 -22.949  0.00  0.00    +0.085 C 
ATOM     13  C   UNL     1      32.197 -12.426 -21.086  0.00  0.00    -0.026 C 
ATOM     14  C   UNL     1      32.687 -12.301 -22.385  0.00  0.00    -0.023 C 
ATOM     15  C   UNL     1      32.001 -13.779 -20.491  0.00  0.00    +0.031 C 
ENDROOT
BRANCH   2  16
ATOM     16  C   UNL     1      32.784  -5.741 -23.869  0.00  0.00    +0.053 C 
ATOM     17  C   UNL     1      31.732  -5.186 -24.634  0.00  0.00    +0.015 C 
ATOM     18  C   UNL     1      34.064  -5.792 -24.466  0.00  0.00    +0.015 C 
ATOM     19  C   UNL     1      31.950  -4.708 -25.926  0.00  0.00    +0.001 C 
ATOM     20  C   UNL     1      34.282  -5.314 -25.757  0.00  0.00    +0.001 C 
ATOM     21  C   UNL     1      33.225  -4.772 -26.488  0.00  0.00    +0.000 C 
ENDBRANCH   2  16
BRANCH   4  22
ATOM     22  O   UNL     1      33.783  -7.574 -20.119  0.00  0.00    -0.372 OA
ATOM     23  H   UNL     1      33.860  -6.874 -19.452  0.00  0.00    +0.211 HD
ENDBRANCH   4  22
TORSDOF 2
ENDMDL
MODEL 9
REMARK VINA RESULT:      -8.0     10.706     14.077
REMARK  Name = 5287792
REMARK  2 active torsions:
REMARK  status: ('A' for Active; 'I' for Inactive)
REMARK    1  A    between atoms: N_2  and  C_16
REMARK    2  A    between atoms: C_4  and  O_22
REMARK                            x       y       z     vdW  Elec       q    Type
REMARK                         _______ _______ _______ _____ _____    ______ ____
ROOT
ATOM      1  O   UNL     1      31.873  -8.544 -24.995  0.00  0.00    -0.288 OA
ATOM      2  N   UNL     1      33.179 -12.202 -22.535  0.00  0.00    -0.264 N 
ATOM      3  N   UNL     1      32.493 -10.202 -21.319  0.00  0.00    -0.392 NA
ATOM      4  C   UNL     1      33.118 -10.143 -23.694  0.00  0.00    +0.204 C 
ATOM      5  C   UNL     1      32.924 -11.287 -24.684  0.00  0.00    +0.065 C 
ATOM      6  C   UNL     1      33.478 -12.509 -23.939  0.00  0.00    +0.101 C 
ATOM      7  C   UNL     1      32.888 -10.851 -22.367  0.00  0.00    +0.195 C 
ATOM      8  C   UNL     1      32.248  -8.935 -23.899  0.00  0.00    +0.207 C 
ATOM      9  C   UNL     1      31.944  -8.191 -22.661  0.00  0.00    +0.063 C 
ATOM     10  C   UNL     1      32.136  -8.843 -21.432  0.00  0.00    +0.117 C 
ATOM     11  C   UNL     1      31.507  -6.865 -22.723  0.00  0.00    +0.001 C 
ATOM     12  C   UNL     1      31.885  -8.124 -20.257  0.00  0.00    +0.085 C 
ATOM     13  C   UNL     1      31.265  -6.169 -21.540  0.00  0.00    -0.026 C 
ATOM     14  C   UNL     1      31.457  -6.795 -20.311  0.00  0.00    -0.023 C 
ATOM     15  C   UNL     1      30.803  -4.752 -21.591  0.00  0.00    +0.031 C 
ENDROOT
BRANCH   2  16
ATOM     16  C   UNL     1      33.229 -13.163 -21.556  0.00  0.00    +0.053 C 
ATOM     17  C   UNL     1      32.128 -13.396 -20.699  0.00  0.00    +0.015 C 
ATOM     18  C   UNL     1      34.381 -13.960 -21.365  0.00  0.00    +0.015 C 
ATOM     19  C   UNL     1      32.178 -14.374 -19.705  0.00  0.00    +0.001 C 
ATOM     20  C   UNL     1      34.430 -14.937 -20.372  0.00  0.00    +0.001 C 
ATOM     21  C   UNL     1      33.329 -15.144 -19.541  0.00  0.00    +0.000 C 
ENDBRANCH   2  16
BRANCH   4  22
ATOM     22  O   UNL     1      34.450  -9.655 -23.707  0.00  0.00    -0.372 OA
ATOM     23  H   UNL     1      34.605  -9.118 -22.914  0.00  0.00    +0.211 HD
ENDBRANCH   4  22
TORSDOF 2
ENDMDL
