MODEL 1
REMARK VINA RESULT:     -12.2      0.000      0.000
REMARK  Name = 44472635
REMARK  7 active torsions:
REMARK  status: ('A' for Active; 'I' for Inactive)
REMARK    1  A    between atoms: C_1  and  C_21
REMARK    2  A    between atoms: C_4  and  N_8
REMARK    3  A    between atoms: C_9  and  C_14
REMARK    4  A    between atoms: C_21  and  C_24
REMARK    5  A    between atoms: C_23  and  C_29
REMARK    6  A    between atoms: C_29  and  C_30
REMARK    7  A    between atoms: C_29  and  O_36
REMARK                            x       y       z     vdW  Elec       q    Type
REMARK                         _______ _______ _______ _____ _____    ______ ____
ROOT
ATOM      1  C   UNL     1      35.616 -19.738 -20.614  0.00  0.00    -0.024 C 
ATOM      2  C   UNL     1      34.242 -19.954 -20.505  0.00  0.00    -0.003 C 
ATOM      3  C   UNL     1      36.502 -20.484 -19.836  0.00  0.00    -0.003 C 
ATOM      4  C   UNL     1      34.642 -21.662 -18.843  0.00  0.00    +0.050 C 
ATOM      5  C   UNL     1      33.754 -20.915 -19.620  0.00  0.00    +0.014 C 
ATOM      6  C   UNL     1      36.016 -21.445 -18.952  0.00  0.00    +0.014 C 
ENDROOT
BRANCH   4   8
ATOM      7  O   UNL     1      35.431 -22.284 -16.005  0.00  0.00    -0.273 OA
ATOM      8  N   UNL     1      34.148 -22.637 -17.945  0.00  0.00    -0.283 N 
ATOM      9  C   UNL     1      34.562 -22.872 -16.641  0.00  0.00    +0.245 C 
ATOM     10  H   UNL     1      33.428 -23.217 -18.286  0.00  0.00    +0.155 HD
BRANCH   9  14
ATOM     11  O   UNL     1      36.201 -25.557 -15.294  0.00  0.00    -0.269 OA
ATOM     12  N   UNL     1      34.366 -24.246 -14.720  0.00  0.00    -0.237 N 
ATOM     13  N   UNL     1      33.882 -23.722 -12.444  0.00  0.00    -0.233 NA
ATOM     14  C   UNL     1      33.788 -23.997 -16.023  0.00  0.00    +0.158 C 
ATOM     15  C   UNL     1      32.356 -23.590 -15.708  0.00  0.00    +0.037 C 
ATOM     16  C   UNL     1      32.431 -22.965 -14.312  0.00  0.00    +0.064 C 
ATOM     17  C   UNL     1      33.607 -23.668 -13.706  0.00  0.00    +0.115 C 
ATOM     18  C   UNL     1      35.500 -24.991 -14.463  0.00  0.00    +0.256 C 
ATOM     19  C   UNL     1      35.823 -25.055 -13.015  0.00  0.00    +0.079 C 
ATOM     20  C   UNL     1      35.018 -24.434 -12.139  0.00  0.00    +0.105 C 
ENDBRANCH   9  14
ENDBRANCH   4   8
BRANCH   1  21
ATOM     21  C   UNL     1      36.137 -18.708 -21.558  0.00  0.00    +0.005 C 
BRANCH  21  24
ATOM     22  N   UNL     1      35.115 -16.492 -21.123  0.00  0.00    +0.388 N 
ATOM     23  C   UNL     1      34.325 -15.500 -21.868  0.00  0.00    -0.030 C 
ATOM     24  C   UNL     1      35.072 -17.700 -21.959  0.00  0.00    -0.057 C 
ATOM     25  C   UNL     1      34.603 -15.787 -23.344  0.00  0.00    -0.021 C 
ATOM     26  C   UNL     1      35.265 -17.159 -23.368  0.00  0.00    -0.023 C 
ATOM     27  H   UNL     1      34.699 -16.671 -20.210  0.00  0.00    -0.084 HD
ATOM     28  H   UNL     1      36.068 -16.175 -20.947  0.00  0.00    -0.084 HD
BRANCH  23  29
ATOM     29  C   UNL     1      34.679 -14.076 -21.463  0.00  0.00    +0.113 C 
BRANCH  29  30
ATOM     30  C   UNL     1      33.531 -13.117 -21.681  0.00  0.00    +0.002 C 
ATOM     31  C   UNL     1      33.482 -12.338 -22.837  0.00  0.00    -0.002 C 
ATOM     32  C   UNL     1      32.520 -13.012 -20.726  0.00  0.00    -0.002 C 
ATOM     33  C   UNL     1      32.423 -11.453 -23.038  0.00  0.00    -0.000 C 
ATOM     34  C   UNL     1      31.460 -12.127 -20.926  0.00  0.00    -0.000 C 
ATOM     35  C   UNL     1      31.412 -11.348 -22.082  0.00  0.00    -0.000 C 
ENDBRANCH  29  30
BRANCH  29  36
ATOM     36  O   UNL     1      35.055 -14.046 -20.086  0.00  0.00    -0.382 OA
ATOM     37  H   UNL     1      35.815 -13.454 -19.972  0.00  0.00    +0.211 HD
ENDBRANCH  29  36
ENDBRANCH  23  29
ENDBRANCH  21  24
ENDBRANCH   1  21
TORSDOF 7
ENDMDL
MODEL 2
REMARK VINA RESULT:     -12.0      3.560     11.835
REMARK  Name = 44472635
REMARK  7 active torsions:
REMARK  status: ('A' for Active; 'I' for Inactive)
REMARK    1  A    between atoms: C_1  and  C_21
REMARK    2  A    between atoms: C_4  and  N_8
REMARK    3  A    between atoms: C_9  and  C_14
REMARK    4  A    between atoms: C_21  and  C_24
REMARK    5  A    between atoms: C_23  and  C_29
REMARK    6  A    between atoms: C_29  and  C_30
REMARK    7  A    between atoms: C_29  and  O_36
REMARK                            x       y       z     vdW  Elec       q    Type
REMARK                         _______ _______ _______ _____ _____    ______ ____
ROOT
ATOM      1  C   UNL     1      34.627 -15.903 -23.152  0.00  0.00    -0.024 C 
ATOM      2  C   UNL     1      34.598 -15.182 -21.958  0.00  0.00    -0.003 C 
ATOM      3  C   UNL     1      33.992 -15.397 -24.287  0.00  0.00    -0.003 C 
ATOM      4  C   UNL     1      33.302 -13.450 -23.034  0.00  0.00    +0.050 C 
ATOM      5  C   UNL     1      33.936 -13.956 -21.899  0.00  0.00    +0.014 C 
ATOM      6  C   UNL     1      33.331 -14.171 -24.228  0.00  0.00    +0.014 C 
ENDROOT
BRANCH   4   8
ATOM      7  O   UNL     1      34.272 -10.672 -23.673  0.00  0.00    -0.273 OA
ATOM      8  N   UNL     1      32.630 -12.206 -22.975  0.00  0.00    -0.283 N 
ATOM      9  C   UNL     1      33.142 -10.954 -23.285  0.00  0.00    +0.245 C 
ATOM     10  H   UNL     1      31.691 -12.233 -22.680  0.00  0.00    +0.155 HD
BRANCH   9  14
ATOM     11  O   UNL     1      30.608 -11.389 -21.025  0.00  0.00    -0.269 OA
ATOM     12  N   UNL     1      32.005  -9.642 -21.670  0.00  0.00    -0.237 N 
ATOM     13  N   UNL     1      32.800  -8.044 -20.088  0.00  0.00    -0.233 NA
ATOM     14  C   UNL     1      32.109  -9.885 -23.092  0.00  0.00    +0.158 C 
ATOM     15  C   UNL     1      32.572  -8.547 -23.651  0.00  0.00    +0.037 C 
ATOM     16  C   UNL     1      33.355  -7.901 -22.505  0.00  0.00    +0.064 C 
ATOM     17  C   UNL     1      32.710  -8.502 -21.293  0.00  0.00    +0.115 C 
ATOM     18  C   UNL     1      31.278 -10.395 -20.769  0.00  0.00    +0.256 C 
ATOM     19  C   UNL     1      31.379  -9.875 -19.381  0.00  0.00    +0.079 C 
ATOM     20  C   UNL     1      32.111  -8.775 -19.149  0.00  0.00    +0.105 C 
ENDBRANCH   9  14
ENDBRANCH   4   8
BRANCH   1  21
ATOM     21  C   UNL     1      35.333 -17.215 -23.215  0.00  0.00    +0.005 C 
BRANCH  21  24
ATOM     22  N   UNL     1      34.688 -18.854 -21.470  0.00  0.00    +0.388 N 
ATOM     23  C   UNL     1      35.330 -19.532 -20.333  0.00  0.00    -0.030 C 
ATOM     24  C   UNL     1      35.624 -17.781 -21.835  0.00  0.00    -0.057 C 
ATOM     25  C   UNL     1      36.830 -19.478 -20.623  0.00  0.00    -0.021 C 
ATOM     26  C   UNL     1      36.985 -18.457 -21.744  0.00  0.00    -0.023 C 
ATOM     27  H   UNL     1      33.786 -18.466 -21.195  0.00  0.00    -0.084 HD
ATOM     28  H   UNL     1      34.504 -19.489 -22.246  0.00  0.00    -0.084 HD
BRANCH  23  29
ATOM     29  C   UNL     1      34.810 -20.951 -20.156  0.00  0.00    +0.113 C 
BRANCH  29  30
ATOM     30  C   UNL     1      35.188 -21.535 -18.813  0.00  0.00    +0.002 C 
ATOM     31  C   UNL     1      34.265 -22.300 -18.099  0.00  0.00    -0.002 C 
ATOM     32  C   UNL     1      36.460 -21.308 -18.288  0.00  0.00    -0.002 C 
ATOM     33  C   UNL     1      34.615 -22.837 -16.861  0.00  0.00    -0.000 C 
ATOM     34  C   UNL     1      36.810 -21.844 -17.049  0.00  0.00    -0.000 C 
ATOM     35  C   UNL     1      35.887 -22.610 -16.336  0.00  0.00    -0.000 C 
ENDBRANCH  29  30
BRANCH  29  36
ATOM     36  O   UNL     1      33.388 -20.963 -20.285  0.00  0.00    -0.382 OA
ATOM     37  H   UNL     1      33.055 -20.053 -20.268  0.00  0.00    +0.211 HD
ENDBRANCH  29  36
ENDBRANCH  23  29
ENDBRANCH  21  24
ENDBRANCH   1  21
TORSDOF 7
ENDMDL
MODEL 3
REMARK VINA RESULT:     -11.5      1.502      2.214
REMARK  Name = 44472635
REMARK  7 active torsions:
REMARK  status: ('A' for Active; 'I' for Inactive)
REMARK    1  A    between atoms: C_1  and  C_21
REMARK    2  A    between atoms: C_4  and  N_8
REMARK    3  A    between atoms: C_9  and  C_14
REMARK    4  A    between atoms: C_21  and  C_24
REMARK    5  A    between atoms: C_23  and  C_29
REMARK    6  A    between atoms: C_29  and  C_30
REMARK    7  A    between atoms: C_29  and  O_36
REMARK                            x       y       z     vdW  Elec       q    Type
REMARK                         _______ _______ _______ _____ _____    ______ ____
ROOT
ATOM      1  C   UNL     1      35.986 -20.544 -19.599  0.00  0.00    -0.024 C 
ATOM      2  C   UNL     1      34.693 -21.069 -19.612  0.00  0.00    -0.003 C 
ATOM      3  C   UNL     1      36.878 -20.916 -18.593  0.00  0.00    -0.003 C 
ATOM      4  C   UNL     1      35.187 -22.337 -17.615  0.00  0.00    +0.050 C 
ATOM      5  C   UNL     1      34.294 -21.965 -18.620  0.00  0.00    +0.014 C 
ATOM      6  C   UNL     1      36.480 -21.812 -17.602  0.00  0.00    +0.014 C 
ENDROOT
BRANCH   4   8
ATOM      7  O   UNL     1      36.241 -22.763 -14.827  0.00  0.00    -0.273 OA
ATOM      8  N   UNL     1      34.783 -23.246 -16.609  0.00  0.00    -0.283 N 
ATOM      9  C   UNL     1      35.318 -23.391 -15.337  0.00  0.00    +0.245 C 
ATOM     10  H   UNL     1      34.035 -23.845 -16.839  0.00  0.00    +0.155 HD
BRANCH   9  14
ATOM     11  O   UNL     1      36.330 -26.650 -15.602  0.00  0.00    -0.269 OA
ATOM     12  N   UNL     1      35.621 -25.243 -13.888  0.00  0.00    -0.237 N 
ATOM     13  N   UNL     1      36.545 -25.400 -11.696  0.00  0.00    -0.233 NA
ATOM     14  C   UNL     1      34.608 -24.468 -14.572  0.00  0.00    +0.158 C 
ATOM     15  C   UNL     1      33.771 -23.894 -13.438  0.00  0.00    +0.037 C 
ATOM     16  C   UNL     1      34.741 -23.789 -12.257  0.00  0.00    +0.064 C 
ATOM     17  C   UNL     1      35.724 -24.881 -12.548  0.00  0.00    +0.115 C 
ATOM     18  C   UNL     1      36.383 -26.252 -14.444  0.00  0.00    +0.256 C 
ATOM     19  C   UNL     1      37.332 -26.851 -13.470  0.00  0.00    +0.079 C 
ATOM     20  C   UNL     1      37.344 -26.395 -12.208  0.00  0.00    +0.105 C 
ENDBRANCH   9  14
ENDBRANCH   4   8
BRANCH   1  21
ATOM     21  C   UNL     1      36.412 -19.585 -20.657  0.00  0.00    +0.005 C 
BRANCH  21  24
ATOM     22  N   UNL     1      35.313 -17.562 -21.577  0.00  0.00    +0.388 N 
ATOM     23  C   UNL     1      34.358 -17.244 -22.650  0.00  0.00    -0.030 C 
ATOM     24  C   UNL     1      35.234 -19.023 -21.437  0.00  0.00    -0.057 C 
ATOM     25  C   UNL     1      34.441 -18.415 -23.628  0.00  0.00    -0.021 C 
ATOM     26  C   UNL     1      35.187 -19.512 -22.878  0.00  0.00    -0.023 C 
ATOM     27  H   UNL     1      35.044 -17.102 -20.708  0.00  0.00    -0.084 HD
ATOM     28  H   UNL     1      36.257 -17.243 -21.792  0.00  0.00    -0.084 HD
BRANCH  23  29
ATOM     29  C   UNL     1      34.667 -15.903 -23.301  0.00  0.00    +0.113 C 
BRANCH  29  30
ATOM     30  C   UNL     1      33.919 -14.764 -22.646  0.00  0.00    +0.002 C 
ATOM     31  C   UNL     1      33.929 -14.629 -21.258  0.00  0.00    -0.002 C 
ATOM     32  C   UNL     1      33.217 -13.848 -23.431  0.00  0.00    -0.002 C 
ATOM     33  C   UNL     1      33.238 -13.578 -20.655  0.00  0.00    -0.000 C 
ATOM     34  C   UNL     1      32.526 -12.798 -22.828  0.00  0.00    -0.000 C 
ATOM     35  C   UNL     1      32.537 -12.662 -21.439  0.00  0.00    -0.000 C 
ENDBRANCH  29  30
BRANCH  29  36
ATOM     36  O   UNL     1      36.068 -15.643 -23.227  0.00  0.00    -0.382 OA
ATOM     37  H   UNL     1      36.224 -14.867 -22.667  0.00  0.00    +0.211 HD
ENDBRANCH  29  36
ENDBRANCH  23  29
ENDBRANCH  21  24
ENDBRANCH   1  21
TORSDOF 7
ENDMDL
MODEL 4
REMARK VINA RESULT:     -11.1      1.954      3.696
REMARK  Name = 44472635
REMARK  7 active torsions:
REMARK  status: ('A' for Active; 'I' for Inactive)
REMARK    1  A    between atoms: C_1  and  C_21
REMARK    2  A    between atoms: C_4  and  N_8
REMARK    3  A    between atoms: C_9  and  C_14
REMARK    4  A    between atoms: C_21  and  C_24
REMARK    5  A    between atoms: C_23  and  C_29
REMARK    6  A    between atoms: C_29  and  C_30
REMARK    7  A    between atoms: C_29  and  O_36
REMARK                            x       y       z     vdW  Elec       q    Type
REMARK                         _______ _______ _______ _____ _____    ______ ____
ROOT
ATOM      1  C   UNL     1      33.452 -21.583 -18.928  0.00  0.00    -0.024 C 
ATOM      2  C   UNL     1      34.777 -21.950 -18.691  0.00  0.00    -0.003 C 
ATOM      3  C   UNL     1      32.452 -21.970 -18.035  0.00  0.00    -0.003 C 
ATOM      4  C   UNL     1      34.102 -23.088 -16.670  0.00  0.00    +0.050 C 
ATOM      5  C   UNL     1      35.102 -22.703 -17.563  0.00  0.00    +0.014 C 
ATOM      6  C   UNL     1      32.777 -22.722 -16.906  0.00  0.00    +0.014 C 
ENDROOT
BRANCH   4   8
ATOM      7  O   UNL     1      35.625 -22.329 -14.186  0.00  0.00    -0.273 OA
ATOM      8  N   UNL     1      34.431 -23.851 -15.525  0.00  0.00    -0.283 N 
ATOM      9  C   UNL     1      35.143 -23.436 -14.408  0.00  0.00    +0.245 C 
ATOM     10  H   UNL     1      34.118 -24.785 -15.520  0.00  0.00    +0.155 HD
BRANCH   9  14
ATOM     11  O   UNL     1      36.320 -26.498 -15.382  0.00  0.00    -0.269 OA
ATOM     12  N   UNL     1      36.613 -25.088 -13.554  0.00  0.00    -0.237 N 
ATOM     13  N   UNL     1      38.720 -24.911 -12.452  0.00  0.00    -0.233 NA
ATOM     14  C   UNL     1      35.279 -24.545 -13.409  0.00  0.00    +0.158 C 
ATOM     15  C   UNL     1      35.258 -24.023 -11.980  0.00  0.00    +0.037 C 
ATOM     16  C   UNL     1      36.716 -23.665 -11.679  0.00  0.00    +0.064 C 
ATOM     17  C   UNL     1      37.471 -24.604 -12.570  0.00  0.00    +0.115 C 
ATOM     18  C   UNL     1      37.018 -26.002 -14.506  0.00  0.00    +0.256 C 
ATOM     19  C   UNL     1      38.456 -26.357 -14.378  0.00  0.00    +0.079 C 
ATOM     20  C   UNL     1      39.178 -25.802 -13.394  0.00  0.00    +0.105 C 
ENDBRANCH   9  14
ENDBRANCH   4   8
BRANCH   1  21
ATOM     21  C   UNL     1      33.105 -20.781 -20.136  0.00  0.00    +0.005 C 
BRANCH  21  24
ATOM     22  N   UNL     1      34.186 -18.878 -21.300  0.00  0.00    +0.388 N 
ATOM     23  C   UNL     1      35.554 -18.442 -21.619  0.00  0.00    -0.030 C 
ATOM     24  C   UNL     1      34.337 -20.275 -20.868  0.00  0.00    -0.057 C 
ATOM     25  C   UNL     1      36.453 -19.155 -20.608  0.00  0.00    -0.021 C 
ATOM     26  C   UNL     1      35.578 -20.239 -19.988  0.00  0.00    -0.023 C 
ATOM     27  H   UNL     1      33.588 -18.819 -22.124  0.00  0.00    -0.084 HD
ATOM     28  H   UNL     1      33.750 -18.296 -20.586  0.00  0.00    -0.084 HD
BRANCH  23  29
ATOM     29  C   UNL     1      35.690 -16.927 -21.568  0.00  0.00    +0.113 C 
BRANCH  29  30
ATOM     30  C   UNL     1      34.954 -16.249 -22.702  0.00  0.00    +0.002 C 
ATOM     31  C   UNL     1      34.742 -16.929 -23.901  0.00  0.00    -0.002 C 
ATOM     32  C   UNL     1      34.487 -14.944 -22.549  0.00  0.00    -0.002 C 
ATOM     33  C   UNL     1      34.063 -16.304 -24.947  0.00  0.00    -0.000 C 
ATOM     34  C   UNL     1      33.809 -14.317 -23.594  0.00  0.00    -0.000 C 
ATOM     35  C   UNL     1      33.597 -14.998 -24.794  0.00  0.00    -0.000 C 
ENDBRANCH  29  30
BRANCH  29  36
ATOM     36  O   UNL     1      35.182 -16.439 -20.326  0.00  0.00    -0.382 OA
ATOM     37  H   UNL     1      34.900 -15.517 -20.433  0.00  0.00    +0.211 HD
ENDBRANCH  29  36
ENDBRANCH  23  29
ENDBRANCH  21  24
ENDBRANCH   1  21
TORSDOF 7
ENDMDL
MODEL 5
REMARK VINA RESULT:     -11.1      2.266      3.943
REMARK  Name = 44472635
REMARK  7 active torsions:
REMARK  status: ('A' for Active; 'I' for Inactive)
REMARK    1  A    between atoms: C_1  and  C_21
REMARK    2  A    between atoms: C_4  and  N_8
REMARK    3  A    between atoms: C_9  and  C_14
REMARK    4  A    between atoms: C_21  and  C_24
REMARK    5  A    between atoms: C_23  and  C_29
REMARK    6  A    between atoms: C_29  and  C_30
REMARK    7  A    between atoms: C_29  and  O_36
REMARK                            x       y       z     vdW  Elec       q    Type
REMARK                         _______ _______ _______ _____ _____    ______ ____
ROOT
ATOM      1  C   UNL     1      34.895 -21.517 -18.539  0.00  0.00    -0.024 C 
ATOM      2  C   UNL     1      36.253 -21.224 -18.415  0.00  0.00    -0.003 C 
ATOM      3  C   UNL     1      34.281 -22.379 -17.630  0.00  0.00    -0.003 C 
ATOM      4  C   UNL     1      36.383 -22.656 -16.472  0.00  0.00    +0.050 C 
ATOM      5  C   UNL     1      36.998 -21.794 -17.382  0.00  0.00    +0.014 C 
ATOM      6  C   UNL     1      35.025 -22.948 -16.597  0.00  0.00    +0.014 C 
ENDROOT
BRANCH   4   8
ATOM      7  O   UNL     1      36.159 -25.356 -15.160  0.00  0.00    -0.273 OA
ATOM      8  N   UNL     1      37.138 -23.233 -15.424  0.00  0.00    -0.283 N 
ATOM      9  C   UNL     1      36.979 -24.492 -14.862  0.00  0.00    +0.245 C 
ATOM     10  H   UNL     1      37.860 -22.677 -15.050  0.00  0.00    +0.155 HD
BRANCH   9  14
ATOM     11  O   UNL     1      37.531 -22.100 -12.478  0.00  0.00    -0.269 OA
ATOM     12  N   UNL     1      37.328 -24.418 -12.518  0.00  0.00    -0.237 N 
ATOM     13  N   UNL     1      36.288 -25.601 -10.727  0.00  0.00    -0.233 NA
ATOM     14  C   UNL     1      37.980 -24.729 -13.772  0.00  0.00    +0.158 C 
ATOM     15  C   UNL     1      38.328 -26.205 -13.638  0.00  0.00    +0.037 C 
ATOM     16  C   UNL     1      37.266 -26.767 -12.690  0.00  0.00    +0.064 C 
ATOM     17  C   UNL     1      36.904 -25.571 -11.863  0.00  0.00    +0.115 C 
ATOM     18  C   UNL     1      37.160 -23.157 -11.981  0.00  0.00    +0.256 C 
ATOM     19  C   UNL     1      36.450 -23.184 -10.676  0.00  0.00    +0.079 C 
ATOM     20  C   UNL     1      36.076 -24.366 -10.163  0.00  0.00    +0.105 C 
ENDBRANCH   9  14
ENDBRANCH   4   8
BRANCH   1  21
ATOM     21  C   UNL     1      34.099 -20.910 -19.645  0.00  0.00    +0.005 C 
BRANCH  21  24
ATOM     22  N   UNL     1      34.520 -18.834 -20.933  0.00  0.00    +0.388 N 
ATOM     23  C   UNL     1      35.658 -18.191 -21.607  0.00  0.00    -0.030 C 
ATOM     24  C   UNL     1      34.975 -20.206 -20.668  0.00  0.00    -0.057 C 
ATOM     25  C   UNL     1      36.905 -18.795 -20.961  0.00  0.00    -0.021 C 
ATOM     26  C   UNL     1      36.409 -20.014 -20.193  0.00  0.00    -0.023 C 
ATOM     27  H   UNL     1      33.699 -18.838 -21.537  0.00  0.00    -0.084 HD
ATOM     28  H   UNL     1      34.247 -18.344 -20.081  0.00  0.00    -0.084 HD
BRANCH  23  29
ATOM     29  C   UNL     1      35.603 -16.675 -21.488  0.00  0.00    +0.113 C 
BRANCH  29  30
ATOM     30  C   UNL     1      34.872 -16.037 -22.647  0.00  0.00    +0.002 C 
ATOM     31  C   UNL     1      34.357 -14.747 -22.523  0.00  0.00    -0.002 C 
ATOM     32  C   UNL     1      34.713 -16.739 -23.842  0.00  0.00    -0.002 C 
ATOM     33  C   UNL     1      33.683 -14.159 -23.593  0.00  0.00    -0.000 C 
ATOM     34  C   UNL     1      34.038 -16.152 -24.912  0.00  0.00    -0.000 C 
ATOM     35  C   UNL     1      33.524 -14.861 -24.788  0.00  0.00    -0.000 C 
ENDBRANCH  29  30
BRANCH  29  36
ATOM     36  O   UNL     1      34.951 -16.311 -20.270  0.00  0.00    -0.382 OA
ATOM     37  H   UNL     1      35.250 -15.431 -19.995  0.00  0.00    +0.211 HD
ENDBRANCH  29  36
ENDBRANCH  23  29
ENDBRANCH  21  24
ENDBRANCH   1  21
TORSDOF 7
ENDMDL
MODEL 6
REMARK VINA RESULT:     -11.1      1.362      1.964
REMARK  Name = 44472635
REMARK  7 active torsions:
REMARK  status: ('A' for Active; 'I' for Inactive)
REMARK    1  A    between atoms: C_1  and  C_21
REMARK    2  A    between atoms: C_4  and  N_8
REMARK    3  A    between atoms: C_9  and  C_14
REMARK    4  A    between atoms: C_21  and  C_24
REMARK    5  A    between atoms: C_23  and  C_29
REMARK    6  A    between atoms: C_29  and  C_30
REMARK    7  A    between atoms: C_29  and  O_36
REMARK                            x       y       z     vdW  Elec       q    Type
REMARK                         _______ _______ _______ _____ _____    ______ ____
ROOT
ATOM      1  C   UNL     1      35.599 -20.679 -19.658  0.00  0.00    -0.024 C 
ATOM      2  C   UNL     1      36.421 -21.173 -18.644  0.00  0.00    -0.003 C 
ATOM      3  C   UNL     1      34.264 -21.079 -19.730  0.00  0.00    -0.003 C 
ATOM      4  C   UNL     1      34.573 -22.463 -17.774  0.00  0.00    +0.050 C 
ATOM      5  C   UNL     1      35.908 -22.065 -17.702  0.00  0.00    +0.014 C 
ATOM      6  C   UNL     1      33.751 -21.970 -18.788  0.00  0.00    +0.014 C 
ENDROOT
BRANCH   4   8
ATOM      7  O   UNL     1      31.935 -22.470 -16.323  0.00  0.00    -0.273 OA
ATOM      8  N   UNL     1      34.052 -23.368 -16.819  0.00  0.00    -0.283 N 
ATOM      9  C   UNL     1      32.820 -23.310 -16.184  0.00  0.00    +0.245 C 
ATOM     10  H   UNL     1      34.632 -24.126 -16.577  0.00  0.00    +0.155 HD
BRANCH   9  14
ATOM     11  O   UNL     1      35.476 -25.320 -15.397  0.00  0.00    -0.269 OA
ATOM     12  N   UNL     1      33.694 -24.361 -14.247  0.00  0.00    -0.237 N 
ATOM     13  N   UNL     1      33.940 -23.589 -12.004  0.00  0.00    -0.233 NA
ATOM     14  C   UNL     1      32.643 -24.459 -15.237  0.00  0.00    +0.158 C 
ATOM     15  C   UNL     1      31.367 -24.325 -14.420  0.00  0.00    +0.037 C 
ATOM     16  C   UNL     1      31.771 -23.479 -13.209  0.00  0.00    +0.064 C 
ATOM     17  C   UNL     1      33.227 -23.802 -13.060  0.00  0.00    +0.115 C 
ATOM     18  C   UNL     1      34.997 -24.791 -14.400  0.00  0.00    +0.256 C 
ATOM     19  C   UNL     1      35.824 -24.546 -13.190  0.00  0.00    +0.079 C 
ATOM     20  C   UNL     1      35.253 -23.979 -12.116  0.00  0.00    +0.105 C 
ENDBRANCH   9  14
ENDBRANCH   4   8
BRANCH   1  21
ATOM     21  C   UNL     1      36.148 -19.728 -20.667  0.00  0.00    +0.005 C 
BRANCH  21  24
ATOM     22  N   UNL     1      35.181 -17.650 -21.612  0.00  0.00    +0.388 N 
ATOM     23  C   UNL     1      34.338 -17.273 -22.757  0.00  0.00    -0.030 C 
ATOM     24  C   UNL     1      35.060 -19.113 -21.532  0.00  0.00    -0.057 C 
ATOM     25  C   UNL     1      34.489 -18.413 -23.764  0.00  0.00    -0.021 C 
ATOM     26  C   UNL     1      35.138 -19.552 -22.987  0.00  0.00    -0.023 C 
ATOM     27  H   UNL     1      34.842 -17.213 -20.756  0.00  0.00    -0.084 HD
ATOM     28  H   UNL     1      36.147 -17.346 -21.726  0.00  0.00    -0.084 HD
BRANCH  23  29
ATOM     29  C   UNL     1      34.734 -15.919 -23.328  0.00  0.00    +0.113 C 
BRANCH  29  30
ATOM     30  C   UNL     1      33.968 -14.783 -22.689  0.00  0.00    +0.002 C 
ATOM     31  C   UNL     1      33.178 -13.944 -23.475  0.00  0.00    -0.002 C 
ATOM     32  C   UNL     1      34.052 -14.573 -21.313  0.00  0.00    -0.002 C 
ATOM     33  C   UNL     1      32.472 -12.896 -22.886  0.00  0.00    -0.000 C 
ATOM     34  C   UNL     1      33.347 -13.524 -20.722  0.00  0.00    -0.000 C 
ATOM     35  C   UNL     1      32.556 -12.686 -21.509  0.00  0.00    -0.000 C 
ENDBRANCH  29  30
BRANCH  29  36
ATOM     36  O   UNL     1      36.132 -15.705 -23.134  0.00  0.00    -0.382 OA
ATOM     37  H   UNL     1      36.312 -14.752 -23.105  0.00  0.00    +0.211 HD
ENDBRANCH  29  36
ENDBRANCH  23  29
ENDBRANCH  21  24
ENDBRANCH   1  21
TORSDOF 7
ENDMDL
MODEL 7
REMARK VINA RESULT:     -10.9      4.371      7.969
REMARK  Name = 44472635
REMARK  7 active torsions:
REMARK  status: ('A' for Active; 'I' for Inactive)
REMARK    1  A    between atoms: C_1  and  C_21
REMARK    2  A    between atoms: C_4  and  N_8
REMARK    3  A    between atoms: C_9  and  C_14
REMARK    4  A    between atoms: C_21  and  C_24
REMARK    5  A    between atoms: C_23  and  C_29
REMARK    6  A    between atoms: C_29  and  C_30
REMARK    7  A    between atoms: C_29  and  O_36
REMARK                            x       y       z     vdW  Elec       q    Type
REMARK                         _______ _______ _______ _____ _____    ______ ____
ROOT
ATOM      1  C   UNL     1      33.441 -12.587 -23.880  0.00  0.00    -0.024 C 
ATOM      2  C   UNL     1      34.190 -12.987 -22.773  0.00  0.00    -0.003 C 
ATOM      3  C   UNL     1      33.123 -13.510 -24.877  0.00  0.00    -0.003 C 
ATOM      4  C   UNL     1      34.303 -15.232 -23.661  0.00  0.00    +0.050 C 
ATOM      5  C   UNL     1      34.622 -14.309 -22.664  0.00  0.00    +0.014 C 
ATOM      6  C   UNL     1      33.553 -14.832 -24.767  0.00  0.00    +0.014 C 
ENDROOT
BRANCH   4   8
ATOM      7  O   UNL     1      35.506 -16.710 -21.330  0.00  0.00    -0.273 OA
ATOM      8  N   UNL     1      34.740 -16.573 -23.550  0.00  0.00    -0.283 N 
ATOM      9  C   UNL     1      35.290 -17.193 -22.437  0.00  0.00    +0.245 C 
ATOM     10  H   UNL     1      34.641 -17.131 -24.356  0.00  0.00    +0.155 HD
BRANCH   9  14
ATOM     11  O   UNL     1      38.181 -18.570 -21.229  0.00  0.00    -0.269 OA
ATOM     12  N   UNL     1      35.967 -19.247 -21.464  0.00  0.00    -0.237 N 
ATOM     13  N   UNL     1      34.921 -20.648 -19.842  0.00  0.00    -0.233 NA
ATOM     14  C   UNL     1      35.623 -18.626 -22.725  0.00  0.00    +0.158 C 
ATOM     15  C   UNL     1      34.400 -19.406 -23.187  0.00  0.00    +0.037 C 
ATOM     16  C   UNL     1      33.741 -19.891 -21.893  0.00  0.00    +0.064 C 
ATOM     17  C   UNL     1      34.905 -19.989 -20.954  0.00  0.00    +0.115 C 
ATOM     18  C   UNL     1      37.191 -19.173 -20.830  0.00  0.00    +0.256 C 
ATOM     19  C   UNL     1      37.216 -19.926 -19.550  0.00  0.00    +0.079 C 
ATOM     20  C   UNL     1      36.114 -20.585 -19.161  0.00  0.00    +0.105 C 
ENDBRANCH   9  14
ENDBRANCH   4   8
BRANCH   1  21
ATOM     21  C   UNL     1      32.982 -11.174 -23.999  0.00  0.00    +0.005 C 
BRANCH  21  24
ATOM     22  N   UNL     1      33.498  -9.332 -22.422  0.00  0.00    +0.388 N 
ATOM     23  C   UNL     1      32.837  -8.655 -21.295  0.00  0.00    -0.030 C 
ATOM     24  C   UNL     1      32.696 -10.543 -22.646  0.00  0.00    -0.057 C 
ATOM     25  C   UNL     1      31.344  -8.928 -21.479  0.00  0.00    -0.021 C 
ATOM     26  C   UNL     1      31.264 -10.046 -22.511  0.00  0.00    -0.023 C 
ATOM     27  H   UNL     1      34.458  -9.575 -22.182  0.00  0.00    -0.084 HD
ATOM     28  H   UNL     1      33.549  -8.741 -23.252  0.00  0.00    -0.084 HD
BRANCH  23  29
ATOM     29  C   UNL     1      33.169  -7.170 -21.255  0.00  0.00    +0.113 C 
BRANCH  29  30
ATOM     30  C   UNL     1      33.651  -6.656 -22.592  0.00  0.00    +0.002 C 
ATOM     31  C   UNL     1      32.758  -6.030 -23.463  0.00  0.00    -0.002 C 
ATOM     32  C   UNL     1      34.988  -6.809 -22.957  0.00  0.00    -0.002 C 
ATOM     33  C   UNL     1      33.203  -5.556 -24.696  0.00  0.00    -0.000 C 
ATOM     34  C   UNL     1      35.434  -6.336 -24.191  0.00  0.00    -0.000 C 
ATOM     35  C   UNL     1      34.541  -5.709 -25.061  0.00  0.00    -0.000 C 
ENDBRANCH  29  30
BRANCH  29  36
ATOM     36  O   UNL     1      32.015  -6.429 -20.859  0.00  0.00    -0.382 OA
ATOM     37  H   UNL     1      31.228  -6.991 -20.938  0.00  0.00    +0.211 HD
ENDBRANCH  29  36
ENDBRANCH  23  29
ENDBRANCH  21  24
ENDBRANCH   1  21
TORSDOF 7
ENDMDL
MODEL 8
REMARK VINA RESULT:     -10.8      5.420     14.349
REMARK  Name = 44472635
REMARK  7 active torsions:
REMARK  status: ('A' for Active; 'I' for Inactive)
REMARK    1  A    between atoms: C_1  and  C_21
REMARK    2  A    between atoms: C_4  and  N_8
REMARK    3  A    between atoms: C_9  and  C_14
REMARK    4  A    between atoms: C_21  and  C_24
REMARK    5  A    between atoms: C_23  and  C_29
REMARK    6  A    between atoms: C_29  and  C_30
REMARK    7  A    between atoms: C_29  and  O_36
REMARK                            x       y       z     vdW  Elec       q    Type
REMARK                         _______ _______ _______ _____ _____    ______ ____
ROOT
ATOM      1  C   UNL     1      33.581 -12.453 -23.534  0.00  0.00    -0.024 C 
ATOM      2  C   UNL     1      32.507 -12.027 -22.751  0.00  0.00    -0.003 C 
ATOM      3  C   UNL     1      34.536 -11.533 -23.967  0.00  0.00    -0.003 C 
ATOM      4  C   UNL     1      33.344  -9.762 -22.835  0.00  0.00    +0.050 C 
ATOM      5  C   UNL     1      32.388 -10.682 -22.402  0.00  0.00    +0.014 C 
ATOM      6  C   UNL     1      34.418 -10.188 -23.617  0.00  0.00    +0.014 C 
ENDROOT
BRANCH   4   8
ATOM      7  O   UNL     1      31.250  -7.728 -23.570  0.00  0.00    -0.273 OA
ATOM      8  N   UNL     1      33.225  -8.397 -22.481  0.00  0.00    -0.283 N 
ATOM      9  C   UNL     1      32.227  -7.510 -22.860  0.00  0.00    +0.245 C 
ATOM     10  H   UNL     1      33.932  -8.036 -21.898  0.00  0.00    +0.155 HD
BRANCH   9  14
ATOM     11  O   UNL     1      33.946  -5.140 -24.630  0.00  0.00    -0.269 OA
ATOM     12  N   UNL     1      32.059  -5.181 -23.269  0.00  0.00    -0.237 N 
ATOM     13  N   UNL     1      30.177  -3.787 -23.719  0.00  0.00    -0.233 NA
ATOM     14  C   UNL     1      32.460  -6.151 -22.273  0.00  0.00    +0.158 C 
ATOM     15  C   UNL     1      31.525  -5.873 -21.105  0.00  0.00    +0.037 C 
ATOM     16  C   UNL     1      30.260  -5.301 -21.752  0.00  0.00    +0.064 C 
ATOM     17  C   UNL     1      30.794  -4.666 -23.000  0.00  0.00    +0.115 C 
ATOM     18  C   UNL     1      32.817  -4.760 -24.344  0.00  0.00    +0.256 C 
ATOM     19  C   UNL     1      32.112  -3.752 -25.177  0.00  0.00    +0.079 C 
ATOM     20  C   UNL     1      30.883  -3.354 -24.817  0.00  0.00    +0.105 C 
ENDBRANCH   9  14
ENDBRANCH   4   8
BRANCH   1  21
ATOM     21  C   UNL     1      33.706 -13.891 -23.909  0.00  0.00    +0.005 C 
BRANCH  21  24
ATOM     22  N   UNL     1      34.460 -16.049 -22.949  0.00  0.00    +0.388 N 
ATOM     23  C   UNL     1      34.704 -16.611 -21.612  0.00  0.00    -0.030 C 
ATOM     24  C   UNL     1      33.717 -14.806 -22.696  0.00  0.00    -0.057 C 
ATOM     25  C   UNL     1      34.923 -15.405 -20.699  0.00  0.00    -0.021 C 
ATOM     26  C   UNL     1      34.441 -14.202 -21.501  0.00  0.00    -0.023 C 
ATOM     27  H   UNL     1      33.905 -16.691 -23.514  0.00  0.00    -0.084 HD
ATOM     28  H   UNL     1      35.324 -15.886 -23.464  0.00  0.00    -0.084 HD
BRANCH  23  29
ATOM     29  C   UNL     1      35.881 -17.577 -21.612  0.00  0.00    +0.113 C 
BRANCH  29  30
ATOM     30  C   UNL     1      35.576 -18.848 -20.852  0.00  0.00    +0.002 C 
ATOM     31  C   UNL     1      34.268 -19.327 -20.787  0.00  0.00    -0.002 C 
ATOM     32  C   UNL     1      36.605 -19.541 -20.213  0.00  0.00    -0.002 C 
ATOM     33  C   UNL     1      33.988 -20.498 -20.085  0.00  0.00    -0.000 C 
ATOM     34  C   UNL     1      36.325 -20.713 -19.510  0.00  0.00    -0.000 C 
ATOM     35  C   UNL     1      35.016 -21.192 -19.447  0.00  0.00    -0.000 C 
ENDBRANCH  29  30
BRANCH  29  36
ATOM     36  O   UNL     1      36.230 -17.910 -22.955  0.00  0.00    -0.382 OA
ATOM     37  H   UNL     1      35.426 -18.111 -23.458  0.00  0.00    +0.211 HD
ENDBRANCH  29  36
ENDBRANCH  23  29
ENDBRANCH  21  24
ENDBRANCH   1  21
TORSDOF 7
ENDMDL
MODEL 9
REMARK VINA RESULT:     -10.5      4.452      8.165
REMARK  Name = 44472635
REMARK  7 active torsions:
REMARK  status: ('A' for Active; 'I' for Inactive)
REMARK    1  A    between atoms: C_1  and  C_21
REMARK    2  A    between atoms: C_4  and  N_8
REMARK    3  A    between atoms: C_9  and  C_14
REMARK    4  A    between atoms: C_21  and  C_24
REMARK    5  A    between atoms: C_23  and  C_29
REMARK    6  A    between atoms: C_29  and  C_30
REMARK    7  A    between atoms: C_29  and  O_36
REMARK                            x       y       z     vdW  Elec       q    Type
REMARK                         _______ _______ _______ _____ _____    ______ ____
ROOT
ATOM      1  C   UNL     1      32.099 -12.497 -21.191  0.00  0.00    -0.024 C 
ATOM      2  C   UNL     1      32.567 -12.635 -22.498  0.00  0.00    -0.003 C 
ATOM      3  C   UNL     1      32.406 -13.466 -20.235  0.00  0.00    -0.003 C 
ATOM      4  C   UNL     1      33.649 -14.709 -21.893  0.00  0.00    +0.050 C 
ATOM      5  C   UNL     1      33.341 -13.741 -22.849  0.00  0.00    +0.014 C 
ATOM      6  C   UNL     1      33.181 -14.571 -20.586  0.00  0.00    +0.014 C 
ENDROOT
BRANCH   4   8
ATOM      7  O   UNL     1      35.342 -16.528 -20.193  0.00  0.00    -0.273 OA
ATOM      8  N   UNL     1      34.435 -15.830 -22.248  0.00  0.00    -0.283 N 
ATOM      9  C   UNL     1      35.197 -16.629 -21.407  0.00  0.00    +0.245 C 
ATOM     10  H   UNL     1      34.441 -16.072 -23.203  0.00  0.00    +0.155 HD
BRANCH   9  14
ATOM     11  O   UNL     1      37.654 -18.494 -19.924  0.00  0.00    -0.269 OA
ATOM     12  N   UNL     1      35.855 -18.906 -21.343  0.00  0.00    -0.237 N 
ATOM     13  N   UNL     1      34.581 -20.915 -21.178  0.00  0.00    -0.233 NA
ATOM     14  C   UNL     1      35.883 -17.720 -22.173  0.00  0.00    +0.158 C 
ATOM     15  C   UNL     1      35.091 -18.127 -23.406  0.00  0.00    +0.037 C 
ATOM     16  C   UNL     1      34.112 -19.191 -22.902  0.00  0.00    +0.064 C 
ATOM     17  C   UNL     1      34.846 -19.780 -21.737  0.00  0.00    +0.115 C 
ATOM     18  C   UNL     1      36.724 -19.194 -20.309  0.00  0.00    +0.256 C 
ATOM     19  C   UNL     1      36.423 -20.496 -19.660  0.00  0.00    +0.079 C 
ATOM     20  C   UNL     1      35.406 -21.236 -20.125  0.00  0.00    +0.105 C 
ENDBRANCH   9  14
ENDBRANCH   4   8
BRANCH   1  21
ATOM     21  C   UNL     1      31.269 -11.316 -20.816  0.00  0.00    +0.005 C 
BRANCH  21  24
ATOM     22  N   UNL     1      32.276  -9.104 -21.305  0.00  0.00    +0.388 N 
ATOM     23  C   UNL     1      32.749  -7.939 -20.542  0.00  0.00    -0.030 C 
ATOM     24  C   UNL     1      32.110 -10.161 -20.297  0.00  0.00    -0.057 C 
ATOM     25  C   UNL     1      32.037  -8.022 -19.192  0.00  0.00    -0.021 C 
ATOM     26  C   UNL     1      31.462  -9.432 -19.128  0.00  0.00    -0.023 C 
ATOM     27  H   UNL     1      32.964  -9.380 -22.005  0.00  0.00    -0.084 HD
ATOM     28  H   UNL     1      31.413  -8.911 -21.812  0.00  0.00    -0.084 HD
BRANCH  23  29
ATOM     29  C   UNL     1      32.476  -6.634 -21.278  0.00  0.00    +0.113 C 
BRANCH  29  30
ATOM     30  C   UNL     1      33.399  -6.441 -22.459  0.00  0.00    +0.002 C 
ATOM     31  C   UNL     1      34.669  -7.018 -22.455  0.00  0.00    -0.002 C 
ATOM     32  C   UNL     1      32.981  -5.685 -23.554  0.00  0.00    -0.002 C 
ATOM     33  C   UNL     1      35.520  -6.839 -23.545  0.00  0.00    -0.000 C 
ATOM     34  C   UNL     1      33.832  -5.504 -24.644  0.00  0.00    -0.000 C 
ATOM     35  C   UNL     1      35.102  -6.082 -24.640  0.00  0.00    -0.000 C 
ENDBRANCH  29  30
BRANCH  29  36
ATOM     36  O   UNL     1      31.124  -6.613 -21.735  0.00  0.00    -0.382 OA
ATOM     37  H   UNL     1      30.962  -7.382 -22.302  0.00  0.00    +0.211 HD
ENDBRANCH  29  36
ENDBRANCH  23  29
ENDBRANCH  21  24
ENDBRANCH   1  21
TORSDOF 7
ENDMDL
