MODEL 1
REMARK VINA RESULT:     -12.3      0.000      0.000
REMARK  Name = 9823454
REMARK  7 active torsions:
REMARK  status: ('A' for Active; 'I' for Inactive)
REMARK    1  A    between atoms: C_1  and  C_4
REMARK    2  A    between atoms: C_1  and  N_8
REMARK    3  A    between atoms: C_1  and  C_23
REMARK    4  A    between atoms: N_3  and  O_6
REMARK    5  A    between atoms: N_8  and  S_10
REMARK    6  A    between atoms: S_10  and  C_13
REMARK    7  A    between atoms: C_23  and  C_24
REMARK                            x       y       z     vdW  Elec       q    Type
REMARK                         _______ _______ _______ _____ _____    ______ ____
ROOT
ATOM      1  C   UNL     1      34.728 -24.113 -13.054  0.00  0.00    +0.158 C 
ENDROOT
BRANCH   1   4
ATOM      2  O   UNL     1      35.266 -24.364 -10.712  0.00  0.00    -0.272 OA
ATOM      3  N   UNL     1      36.329 -25.718 -12.250  0.00  0.00    -0.196 N 
ATOM      4  C   UNL     1      35.454 -24.731 -11.870  0.00  0.00    +0.260 C 
ATOM      5  H   UNL     1      36.447 -25.980 -13.192  0.00  0.00    +0.182 HD
BRANCH   3   6
ATOM      6  O   UNL     1      37.046 -26.332 -11.213  0.00  0.00    -0.295 OA
ATOM      7  H   UNL     1      37.944 -25.966 -11.181  0.00  0.00    +0.241 HD
ENDBRANCH   3   6
ENDBRANCH   1   4
BRANCH   1   8
ATOM      8  N   UNL     1      35.674 -23.127 -13.630  0.00  0.00    -0.172 NA
ATOM      9  H   UNL     1      35.124 -22.310 -13.895  0.00  0.00    +0.149 HD
BRANCH   8  10
ATOM     10  S   UNL     1      36.612 -23.546 -14.982  0.00  0.00    +0.061 S 
ATOM     11  O   UNL     1      36.642 -24.990 -15.120  0.00  0.00    -0.153 OA
ATOM     12  O   UNL     1      37.850 -22.791 -14.943  0.00  0.00    -0.153 OA
BRANCH  10  13
ATOM     13  C   UNL     1      35.650 -22.892 -16.311  0.00  0.00    +0.122 C 
ATOM     14  C   UNL     1      36.267 -22.103 -17.268  0.00  0.00    +0.020 C 
ATOM     15  C   UNL     1      35.516 -21.575 -18.331  0.00  0.00    +0.001 C 
ATOM     16  C   UNL     1      34.301 -23.178 -16.372  0.00  0.00    +0.020 C 
ATOM     17  C   UNL     1      34.132 -21.858 -18.408  0.00  0.00    +0.000 C 
ATOM     18  C   UNL     1      33.540 -22.662 -17.422  0.00  0.00    +0.001 C 
ATOM     19  C   UNL     1      36.109 -20.771 -19.318  0.00  0.00    +0.000 C 
ATOM     20  C   UNL     1      33.381 -21.329 -19.471  0.00  0.00    +0.000 C 
ATOM     21  C   UNL     1      35.348 -20.253 -20.367  0.00  0.00    +0.000 C 
ATOM     22  C   UNL     1      33.987 -20.532 -20.443  0.00  0.00    +0.000 C 
ENDBRANCH  10  13
ENDBRANCH   8  10
ENDBRANCH   1   8
BRANCH   1  23
ATOM     23  C   UNL     1      33.441 -23.400 -12.607  0.00  0.00    +0.053 C 
BRANCH  23  24
ATOM     24  C   UNL     1      32.235 -23.818 -13.379  0.00  0.00    -0.020 C 
ATOM     25  C   UNL     1      31.558 -22.891 -14.173  0.00  0.00    -0.004 C 
ATOM     26  C   UNL     1      30.421 -23.269 -14.906  0.00  0.00    -0.000 C 
ATOM     27  C   UNL     1      31.785 -25.133 -13.307  0.00  0.00    -0.004 C 
ATOM     28  C   UNL     1      29.964 -24.607 -14.832  0.00  0.00    -0.000 C 
ATOM     29  C   UNL     1      30.658 -25.526 -14.029  0.00  0.00    -0.000 C 
ATOM     30  C   UNL     1      29.728 -22.349 -15.709  0.00  0.00    -0.000 C 
ATOM     31  C   UNL     1      28.827 -24.985 -15.565  0.00  0.00    -0.000 C 
ATOM     32  C   UNL     1      28.600 -22.742 -16.430  0.00  0.00    -0.000 C 
ATOM     33  C   UNL     1      28.150 -24.057 -16.357  0.00  0.00    -0.000 C 
ENDBRANCH  23  24
ENDBRANCH   1  23
TORSDOF 7
ENDMDL
MODEL 2
REMARK VINA RESULT:     -12.0      1.528      6.072
REMARK  Name = 9823454
REMARK  7 active torsions:
REMARK  status: ('A' for Active; 'I' for Inactive)
REMARK    1  A    between atoms: C_1  and  C_4
REMARK    2  A    between atoms: C_1  and  N_8
REMARK    3  A    between atoms: C_1  and  C_23
REMARK    4  A    between atoms: N_3  and  O_6
REMARK    5  A    between atoms: N_8  and  S_10
REMARK    6  A    between atoms: S_10  and  C_13
REMARK    7  A    between atoms: C_23  and  C_24
REMARK                            x       y       z     vdW  Elec       q    Type
REMARK                         _______ _______ _______ _____ _____    ______ ____
ROOT
ATOM      1  C   UNL     1      35.924 -22.516 -15.063  0.00  0.00    +0.158 C 
ENDROOT
BRANCH   1   4
ATOM      2  O   UNL     1      37.616 -22.778 -13.356  0.00  0.00    -0.272 OA
ATOM      3  N   UNL     1      37.955 -23.757 -15.420  0.00  0.00    -0.196 N 
ATOM      4  C   UNL     1      37.244 -23.022 -14.503  0.00  0.00    +0.260 C 
ATOM      5  H   UNL     1      37.617 -23.927 -16.329  0.00  0.00    +0.182 HD
BRANCH   3   6
ATOM      6  O   UNL     1      39.191 -24.251 -14.981  0.00  0.00    -0.295 OA
ATOM      7  H   UNL     1      39.232 -25.207 -15.141  0.00  0.00    +0.241 HD
ENDBRANCH   3   6
ENDBRANCH   1   4
BRANCH   1   8
ATOM      8  N   UNL     1      34.936 -22.691 -13.972  0.00  0.00    -0.172 NA
ATOM      9  H   UNL     1      35.300 -22.192 -13.161  0.00  0.00    +0.149 HD
BRANCH   8  10
ATOM     10  S   UNL     1      34.524 -24.252 -13.446  0.00  0.00    +0.061 S 
ATOM     11  O   UNL     1      34.643 -24.322 -12.002  0.00  0.00    -0.153 OA
ATOM     12  O   UNL     1      35.207 -25.221 -14.282  0.00  0.00    -0.153 OA
BRANCH  10  13
ATOM     13  C   UNL     1      32.808 -24.335 -13.856  0.00  0.00    +0.122 C 
ATOM     14  C   UNL     1      32.296 -23.461 -14.800  0.00  0.00    +0.020 C 
ATOM     15  C   UNL     1      30.933 -23.514 -15.138  0.00  0.00    +0.001 C 
ATOM     16  C   UNL     1      32.009 -25.270 -13.228  0.00  0.00    +0.020 C 
ATOM     17  C   UNL     1      30.100 -24.466 -14.503  0.00  0.00    +0.000 C 
ATOM     18  C   UNL     1      30.653 -25.336 -13.552  0.00  0.00    +0.001 C 
ATOM     19  C   UNL     1      30.380 -22.642 -16.090  0.00  0.00    +0.000 C 
ATOM     20  C   UNL     1      28.737 -24.518 -14.840  0.00  0.00    +0.000 C 
ATOM     21  C   UNL     1      29.024 -22.708 -16.413  0.00  0.00    +0.000 C 
ATOM     22  C   UNL     1      28.205 -23.644 -15.789  0.00  0.00    +0.000 C 
ENDBRANCH  10  13
ENDBRANCH   8  10
ENDBRANCH   1   8
BRANCH   1  23
ATOM     23  C   UNL     1      35.492 -23.332 -16.293  0.00  0.00    +0.053 C 
BRANCH  23  24
ATOM     24  C   UNL     1      35.109 -22.485 -17.460  0.00  0.00    -0.020 C 
ATOM     25  C   UNL     1      36.070 -21.700 -18.098  0.00  0.00    -0.004 C 
ATOM     26  C   UNL     1      35.725 -20.898 -19.198  0.00  0.00    -0.000 C 
ATOM     27  C   UNL     1      33.793 -22.479 -17.912  0.00  0.00    -0.004 C 
ATOM     28  C   UNL     1      34.386 -20.893 -19.657  0.00  0.00    -0.000 C 
ATOM     29  C   UNL     1      33.433 -21.689 -19.003  0.00  0.00    -0.000 C 
ATOM     30  C   UNL     1      36.680 -20.102 -19.852  0.00  0.00    -0.000 C 
ATOM     31  C   UNL     1      34.042 -20.091 -20.757  0.00  0.00    -0.000 C 
ATOM     32  C   UNL     1      36.319 -19.311 -20.944  0.00  0.00    -0.000 C 
ATOM     33  C   UNL     1      35.003 -19.305 -21.394  0.00  0.00    -0.000 C 
ENDBRANCH  23  24
ENDBRANCH   1  23
TORSDOF 7
ENDMDL
MODEL 3
REMARK VINA RESULT:     -11.1      8.449     11.691
REMARK  Name = 9823454
REMARK  7 active torsions:
REMARK  status: ('A' for Active; 'I' for Inactive)
REMARK    1  A    between atoms: C_1  and  C_4
REMARK    2  A    between atoms: C_1  and  N_8
REMARK    3  A    between atoms: C_1  and  C_23
REMARK    4  A    between atoms: N_3  and  O_6
REMARK    5  A    between atoms: N_8  and  S_10
REMARK    6  A    between atoms: S_10  and  C_13
REMARK    7  A    between atoms: C_23  and  C_24
REMARK                            x       y       z     vdW  Elec       q    Type
REMARK                         _______ _______ _______ _____ _____    ______ ____
ROOT
ATOM      1  C   UNL     1      34.552 -16.374 -22.865  0.00  0.00    +0.158 C 
ENDROOT
BRANCH   1   4
ATOM      2  O   UNL     1      34.542 -17.263 -25.112  0.00  0.00    -0.272 OA
ATOM      3  N   UNL     1      33.454 -15.269 -24.698  0.00  0.00    -0.196 N 
ATOM      4  C   UNL     1      34.192 -16.371 -24.341  0.00  0.00    +0.260 C 
ATOM      5  H   UNL     1      33.196 -14.578 -24.046  0.00  0.00    +0.182 HD
BRANCH   3   6
ATOM      6  O   UNL     1      33.090 -15.188 -26.050  0.00  0.00    -0.295 OA
ATOM      7  H   UNL     1      32.178 -15.501 -26.158  0.00  0.00    +0.241 HD
ENDBRANCH   3   6
ENDBRANCH   1   4
BRANCH   1   8
ATOM      8  N   UNL     1      34.612 -14.947 -22.466  0.00  0.00    -0.172 NA
ATOM      9  H   UNL     1      35.589 -14.663 -22.531  0.00  0.00    +0.149 HD
BRANCH   8  10
ATOM     10  S   UNL     1      34.063 -14.475 -20.930  0.00  0.00    +0.061 S 
ATOM     11  O   UNL     1      35.193 -14.061 -20.120  0.00  0.00    -0.153 OA
ATOM     12  O   UNL     1      33.139 -15.478 -20.436  0.00  0.00    -0.153 OA
BRANCH  10  13
ATOM     13  C   UNL     1      33.109 -13.037 -21.310  0.00  0.00    +0.122 C 
ATOM     14  C   UNL     1      33.453 -12.269 -22.409  0.00  0.00    +0.020 C 
ATOM     15  C   UNL     1      32.705 -11.122 -22.724  0.00  0.00    +0.001 C 
ATOM     16  C   UNL     1      32.038 -12.707 -20.503  0.00  0.00    +0.020 C 
ATOM     17  C   UNL     1      31.604 -10.769 -21.908  0.00  0.00    +0.000 C 
ATOM     18  C   UNL     1      31.283 -11.572 -20.802  0.00  0.00    +0.001 C 
ATOM     19  C   UNL     1      33.026 -10.319 -23.830  0.00  0.00    +0.000 C 
ATOM     20  C   UNL     1      30.856  -9.622 -22.222  0.00  0.00    +0.000 C 
ATOM     21  C   UNL     1      32.271  -9.184 -24.128  0.00  0.00    +0.000 C 
ATOM     22  C   UNL     1      31.189  -8.836 -23.326  0.00  0.00    +0.000 C 
ENDBRANCH  10  13
ENDBRANCH   8  10
ENDBRANCH   1   8
BRANCH   1  23
ATOM     23  C   UNL     1      35.918 -17.039 -22.627  0.00  0.00    +0.053 C 
BRANCH  23  24
ATOM     24  C   UNL     1      35.856 -18.200 -21.692  0.00  0.00    -0.020 C 
ATOM     25  C   UNL     1      34.625 -18.771 -21.369  0.00  0.00    -0.004 C 
ATOM     26  C   UNL     1      34.550 -19.865 -20.490  0.00  0.00    -0.000 C 
ATOM     27  C   UNL     1      37.027 -18.713 -21.143  0.00  0.00    -0.004 C 
ATOM     28  C   UNL     1      35.742 -20.386 -19.932  0.00  0.00    -0.000 C 
ATOM     29  C   UNL     1      36.971 -19.799 -20.269  0.00  0.00    -0.000 C 
ATOM     30  C   UNL     1      33.319 -20.451 -20.154  0.00  0.00    -0.000 C 
ATOM     31  C   UNL     1      35.667 -21.479 -19.054  0.00  0.00    -0.000 C 
ATOM     32  C   UNL     1      33.264 -21.537 -19.280  0.00  0.00    -0.000 C 
ATOM     33  C   UNL     1      34.435 -22.049 -18.730  0.00  0.00    -0.000 C 
ENDBRANCH  23  24
ENDBRANCH   1  23
TORSDOF 7
ENDMDL
MODEL 4
REMARK VINA RESULT:     -10.8      1.431      1.711
REMARK  Name = 9823454
REMARK  7 active torsions:
REMARK  status: ('A' for Active; 'I' for Inactive)
REMARK    1  A    between atoms: C_1  and  C_4
REMARK    2  A    between atoms: C_1  and  N_8
REMARK    3  A    between atoms: C_1  and  C_23
REMARK    4  A    between atoms: N_3  and  O_6
REMARK    5  A    between atoms: N_8  and  S_10
REMARK    6  A    between atoms: S_10  and  C_13
REMARK    7  A    between atoms: C_23  and  C_24
REMARK                            x       y       z     vdW  Elec       q    Type
REMARK                         _______ _______ _______ _____ _____    ______ ____
ROOT
ATOM      1  C   UNL     1      35.378 -25.119 -14.487  0.00  0.00    +0.158 C 
ENDROOT
BRANCH   1   4
ATOM      2  O   UNL     1      37.154 -24.861 -12.868  0.00  0.00    -0.272 OA
ATOM      3  N   UNL     1      37.438 -26.356 -14.604  0.00  0.00    -0.196 N 
ATOM      4  C   UNL     1      36.741 -25.418 -13.884  0.00  0.00    +0.260 C 
ATOM      5  H   UNL     1      37.067 -26.776 -15.414  0.00  0.00    +0.182 HD
BRANCH   3   6
ATOM      6  O   UNL     1      38.712 -26.679 -14.116  0.00  0.00    -0.295 OA
ATOM      7  H   UNL     1      38.629 -27.076 -13.236  0.00  0.00    +0.241 HD
ENDBRANCH   3   6
ENDBRANCH   1   4
BRANCH   1   8
ATOM      8  N   UNL     1      35.652 -24.404 -15.756  0.00  0.00    -0.172 NA
ATOM      9  H   UNL     1      36.268 -25.003 -16.305  0.00  0.00    +0.149 HD
BRANCH   8  10
ATOM     10  S   UNL     1      36.366 -22.864 -15.722  0.00  0.00    +0.061 S 
ATOM     11  O   UNL     1      37.805 -22.996 -15.847  0.00  0.00    -0.153 OA
ATOM     12  O   UNL     1      35.795 -22.109 -14.623  0.00  0.00    -0.153 OA
BRANCH  10  13
ATOM     13  C   UNL     1      35.753 -22.144 -17.215  0.00  0.00    +0.122 C 
ATOM     14  C   UNL     1      36.558 -21.269 -17.924  0.00  0.00    +0.020 C 
ATOM     15  C   UNL     1      36.086 -20.688 -19.112  0.00  0.00    +0.001 C 
ATOM     16  C   UNL     1      34.482 -22.468 -17.647  0.00  0.00    +0.020 C 
ATOM     17  C   UNL     1      34.785 -21.009 -19.569  0.00  0.00    +0.000 C 
ATOM     18  C   UNL     1      33.997 -21.901 -18.826  0.00  0.00    +0.001 C 
ATOM     19  C   UNL     1      36.875 -19.796 -19.856  0.00  0.00    +0.000 C 
ATOM     20  C   UNL     1      34.312 -20.427 -20.757  0.00  0.00    +0.000 C 
ATOM     21  C   UNL     1      36.389 -19.228 -21.034  0.00  0.00    +0.000 C 
ATOM     22  C   UNL     1      35.111 -19.543 -21.484  0.00  0.00    +0.000 C 
ENDBRANCH  10  13
ENDBRANCH   8  10
ENDBRANCH   1   8
BRANCH   1  23
ATOM     23  C   UNL     1      34.542 -24.225 -13.556  0.00  0.00    +0.053 C 
BRANCH  23  24
ATOM     24  C   UNL     1      33.077 -24.293 -13.829  0.00  0.00    -0.020 C 
ATOM     25  C   UNL     1      32.505 -23.456 -14.788  0.00  0.00    -0.004 C 
ATOM     26  C   UNL     1      31.128 -23.509 -15.056  0.00  0.00    -0.000 C 
ATOM     27  C   UNL     1      32.280 -25.193 -13.127  0.00  0.00    -0.004 C 
ATOM     28  C   UNL     1      30.318 -24.424 -14.342  0.00  0.00    -0.000 C 
ATOM     29  C   UNL     1      30.910 -25.259 -13.381  0.00  0.00    -0.000 C 
ATOM     30  C   UNL     1      30.537 -22.673 -16.017  0.00  0.00    -0.000 C 
ATOM     31  C   UNL     1      28.941 -24.477 -14.610  0.00  0.00    -0.000 C 
ATOM     32  C   UNL     1      29.166 -22.739 -16.271  0.00  0.00    -0.000 C 
ATOM     33  C   UNL     1      28.370 -23.638 -15.568  0.00  0.00    -0.000 C 
ENDBRANCH  23  24
ENDBRANCH   1  23
TORSDOF 7
ENDMDL
MODEL 5
REMARK VINA RESULT:     -10.8      1.991      3.223
REMARK  Name = 9823454
REMARK  7 active torsions:
REMARK  status: ('A' for Active; 'I' for Inactive)
REMARK    1  A    between atoms: C_1  and  C_4
REMARK    2  A    between atoms: C_1  and  N_8
REMARK    3  A    between atoms: C_1  and  C_23
REMARK    4  A    between atoms: N_3  and  O_6
REMARK    5  A    between atoms: N_8  and  S_10
REMARK    6  A    between atoms: S_10  and  C_13
REMARK    7  A    between atoms: C_23  and  C_24
REMARK                            x       y       z     vdW  Elec       q    Type
REMARK                         _______ _______ _______ _____ _____    ______ ____
ROOT
ATOM      1  C   UNL     1      34.482 -24.282 -15.391  0.00  0.00    +0.158 C 
ENDROOT
BRANCH   1   4
ATOM      2  O   UNL     1      36.612 -25.372 -15.046  0.00  0.00    -0.272 OA
ATOM      3  N   UNL     1      36.467 -23.089 -14.739  0.00  0.00    -0.196 N 
ATOM      4  C   UNL     1      35.962 -24.328 -15.048  0.00  0.00    +0.260 C 
ATOM      5  H   UNL     1      35.909 -22.277 -14.754  0.00  0.00    +0.182 HD
BRANCH   3   6
ATOM      6  O   UNL     1      37.827 -23.049 -14.400  0.00  0.00    -0.295 OA
ATOM      7  H   UNL     1      38.030 -22.199 -13.980  0.00  0.00    +0.241 HD
ENDBRANCH   3   6
ENDBRANCH   1   4
BRANCH   1   8
ATOM      8  N   UNL     1      34.279 -23.002 -16.111  0.00  0.00    -0.172 NA
ATOM      9  H   UNL     1      33.682 -22.423 -15.522  0.00  0.00    +0.149 HD
BRANCH   8  10
ATOM     10  S   UNL     1      33.586 -23.005 -17.661  0.00  0.00    +0.061 S 
ATOM     11  O   UNL     1      32.265 -22.408 -17.600  0.00  0.00    -0.153 OA
ATOM     12  O   UNL     1      33.768 -24.317 -18.252  0.00  0.00    -0.153 OA
BRANCH  10  13
ATOM     13  C   UNL     1      34.646 -21.894 -18.537  0.00  0.00    +0.122 C 
ATOM     14  C   UNL     1      34.135 -21.171 -19.601  0.00  0.00    +0.020 C 
ATOM     15  C   UNL     1      34.965 -20.284 -20.307  0.00  0.00    +0.001 C 
ATOM     16  C   UNL     1      35.963 -21.768 -18.143  0.00  0.00    +0.020 C 
ATOM     17  C   UNL     1      36.318 -20.143 -19.917  0.00  0.00    +0.000 C 
ATOM     18  C   UNL     1      36.801 -20.892 -18.833  0.00  0.00    +0.001 C 
ATOM     19  C   UNL     1      34.480 -19.535 -21.392  0.00  0.00    +0.000 C 
ATOM     20  C   UNL     1      37.148 -19.257 -20.624  0.00  0.00    +0.000 C 
ATOM     21  C   UNL     1      35.319 -18.659 -22.083  0.00  0.00    +0.000 C 
ATOM     22  C   UNL     1      36.649 -18.521 -21.700  0.00  0.00    +0.000 C 
ENDBRANCH  10  13
ENDBRANCH   8  10
ENDBRANCH   1   8
BRANCH   1  23
ATOM     23  C   UNL     1      33.615 -24.309 -14.122  0.00  0.00    +0.053 C 
BRANCH  23  24
ATOM     24  C   UNL     1      32.243 -23.764 -14.331  0.00  0.00    -0.020 C 
ATOM     25  C   UNL     1      31.345 -24.432 -15.165  0.00  0.00    -0.004 C 
ATOM     26  C   UNL     1      30.050 -23.931 -15.371  0.00  0.00    -0.000 C 
ATOM     27  C   UNL     1      31.857 -22.589 -13.693  0.00  0.00    -0.004 C 
ATOM     28  C   UNL     1      29.658 -22.735 -14.722  0.00  0.00    -0.000 C 
ATOM     29  C   UNL     1      30.574 -22.077 -13.886  0.00  0.00    -0.000 C 
ATOM     30  C   UNL     1      29.135 -24.590 -16.208  0.00  0.00    -0.000 C 
ATOM     31  C   UNL     1      28.363 -22.235 -14.929  0.00  0.00    -0.000 C 
ATOM     32  C   UNL     1      27.851 -24.078 -16.402  0.00  0.00    -0.000 C 
ATOM     33  C   UNL     1      27.467 -22.903 -15.764  0.00  0.00    -0.000 C 
ENDBRANCH  23  24
ENDBRANCH   1  23
TORSDOF 7
ENDMDL
MODEL 6
REMARK VINA RESULT:     -10.8      3.120      5.662
REMARK  Name = 9823454
REMARK  7 active torsions:
REMARK  status: ('A' for Active; 'I' for Inactive)
REMARK    1  A    between atoms: C_1  and  C_4
REMARK    2  A    between atoms: C_1  and  N_8
REMARK    3  A    between atoms: C_1  and  C_23
REMARK    4  A    between atoms: N_3  and  O_6
REMARK    5  A    between atoms: N_8  and  S_10
REMARK    6  A    between atoms: S_10  and  C_13
REMARK    7  A    between atoms: C_23  and  C_24
REMARK                            x       y       z     vdW  Elec       q    Type
REMARK                         _______ _______ _______ _____ _____    ______ ____
ROOT
ATOM      1  C   UNL     1      32.281 -22.954 -15.655  0.00  0.00    +0.158 C 
ENDROOT
BRANCH   1   4
ATOM      2  O   UNL     1      30.299 -22.758 -14.285  0.00  0.00    -0.272 OA
ATOM      3  N   UNL     1      30.105 -22.482 -16.569  0.00  0.00    -0.196 N 
ATOM      4  C   UNL     1      30.799 -22.722 -15.409  0.00  0.00    +0.260 C 
ATOM      5  H   UNL     1      30.548 -22.462 -17.449  0.00  0.00    +0.182 HD
BRANCH   3   6
ATOM      6  O   UNL     1      28.728 -22.268 -16.426  0.00  0.00    -0.295 OA
ATOM      7  H   UNL     1      28.496 -21.399 -16.789  0.00  0.00    +0.241 HD
ENDBRANCH   3   6
ENDBRANCH   1   4
BRANCH   1   8
ATOM      8  N   UNL     1      32.487 -22.710 -17.103  0.00  0.00    -0.172 NA
ATOM      9  H   UNL     1      31.772 -23.244 -17.597  0.00  0.00    +0.149 HD
BRANCH   8  10
ATOM     10  S   UNL     1      33.975 -23.100 -17.823  0.00  0.00    +0.061 S 
ATOM     11  O   UNL     1      33.831 -24.314 -18.603  0.00  0.00    -0.153 OA
ATOM     12  O   UNL     1      35.019 -22.995 -16.821  0.00  0.00    -0.153 OA
BRANCH  10  13
ATOM     13  C   UNL     1      34.200 -21.754 -18.945  0.00  0.00    +0.122 C 
ATOM     14  C   UNL     1      35.481 -21.300 -19.207  0.00  0.00    +0.020 C 
ATOM     15  C   UNL     1      35.678 -20.231 -20.097  0.00  0.00    +0.001 C 
ATOM     16  C   UNL     1      33.094 -21.181 -19.541  0.00  0.00    +0.020 C 
ATOM     17  C   UNL     1      34.555 -19.631 -20.716  0.00  0.00    +0.000 C 
ATOM     18  C   UNL     1      33.271 -20.118 -20.428  0.00  0.00    +0.001 C 
ATOM     19  C   UNL     1      36.963 -19.744 -20.385  0.00  0.00    +0.000 C 
ATOM     20  C   UNL     1      34.751 -18.562 -21.605  0.00  0.00    +0.000 C 
ATOM     21  C   UNL     1      37.139 -18.681 -21.271  0.00  0.00    +0.000 C 
ATOM     22  C   UNL     1      36.036 -18.092 -21.880  0.00  0.00    +0.000 C 
ENDBRANCH  10  13
ENDBRANCH   8  10
ENDBRANCH   1   8
BRANCH   1  23
ATOM     23  C   UNL     1      32.683 -24.397 -15.307  0.00  0.00    +0.053 C 
BRANCH  23  24
ATOM     24  C   UNL     1      33.777 -24.478 -14.296  0.00  0.00    -0.020 C 
ATOM     25  C   UNL     1      34.998 -25.063 -14.634  0.00  0.00    -0.004 C 
ATOM     26  C   UNL     1      36.037 -25.147 -13.693  0.00  0.00    -0.000 C 
ATOM     27  C   UNL     1      33.579 -23.971 -13.016  0.00  0.00    -0.004 C 
ATOM     28  C   UNL     1      35.835 -24.631 -12.391  0.00  0.00    -0.000 C 
ATOM     29  C   UNL     1      34.600 -24.046 -12.069  0.00  0.00    -0.000 C 
ATOM     30  C   UNL     1      37.272 -25.733 -14.017  0.00  0.00    -0.000 C 
ATOM     31  C   UNL     1      36.874 -24.715 -11.450  0.00  0.00    -0.000 C 
ATOM     32  C   UNL     1      38.294 -25.807 -13.069  0.00  0.00    -0.000 C 
ATOM     33  C   UNL     1      38.095 -25.301 -11.789  0.00  0.00    -0.000 C 
ENDBRANCH  23  24
ENDBRANCH   1  23
TORSDOF 7
ENDMDL
MODEL 7
REMARK VINA RESULT:     -10.6      2.159      3.351
REMARK  Name = 9823454
REMARK  7 active torsions:
REMARK  status: ('A' for Active; 'I' for Inactive)
REMARK    1  A    between atoms: C_1  and  C_4
REMARK    2  A    between atoms: C_1  and  N_8
REMARK    3  A    between atoms: C_1  and  C_23
REMARK    4  A    between atoms: N_3  and  O_6
REMARK    5  A    between atoms: N_8  and  S_10
REMARK    6  A    between atoms: S_10  and  C_13
REMARK    7  A    between atoms: C_23  and  C_24
REMARK                            x       y       z     vdW  Elec       q    Type
REMARK                         _______ _______ _______ _____ _____    ______ ____
ROOT
ATOM      1  C   UNL     1      35.272 -23.167 -15.754  0.00  0.00    +0.158 C 
ENDROOT
BRANCH   1   4
ATOM      2  O   UNL     1      37.305 -21.915 -16.129  0.00  0.00    -0.272 OA
ATOM      3  N   UNL     1      37.445 -23.992 -15.132  0.00  0.00    -0.196 N 
ATOM      4  C   UNL     1      36.773 -22.937 -15.699  0.00  0.00    +0.260 C 
ATOM      5  H   UNL     1      36.978 -24.792 -14.800  0.00  0.00    +0.182 HD
BRANCH   3   6
ATOM      6  O   UNL     1      38.839 -23.859 -15.054  0.00  0.00    -0.295 OA
ATOM      7  H   UNL     1      39.093 -23.656 -14.141  0.00  0.00    +0.241 HD
ENDBRANCH   3   6
ENDBRANCH   1   4
BRANCH   1   8
ATOM      8  N   UNL     1      34.748 -22.152 -16.698  0.00  0.00    -0.172 NA
ATOM      9  H   UNL     1      34.194 -21.496 -16.149  0.00  0.00    +0.149 HD
BRANCH   8  10
ATOM     10  S   UNL     1      33.780 -22.636 -18.008  0.00  0.00    +0.061 S 
ATOM     11  O   UNL     1      32.381 -22.496 -17.652  0.00  0.00    -0.153 OA
ATOM     12  O   UNL     1      34.282 -23.899 -18.517  0.00  0.00    -0.153 OA
BRANCH  10  13
ATOM     13  C   UNL     1      34.161 -21.405 -19.216  0.00  0.00    +0.122 C 
ATOM     14  C   UNL     1      35.472 -20.987 -19.367  0.00  0.00    +0.020 C 
ATOM     15  C   UNL     1      35.791 -20.009 -20.323  0.00  0.00    +0.001 C 
ATOM     16  C   UNL     1      33.143 -20.882 -19.989  0.00  0.00    +0.020 C 
ATOM     17  C   UNL     1      34.760 -19.462 -21.124  0.00  0.00    +0.000 C 
ATOM     18  C   UNL     1      33.442 -19.910 -20.945  0.00  0.00    +0.001 C 
ATOM     19  C   UNL     1      37.110 -19.562 -20.502  0.00  0.00    +0.000 C 
ATOM     20  C   UNL     1      35.078 -18.483 -22.079  0.00  0.00    +0.000 C 
ATOM     21  C   UNL     1      37.409 -18.589 -21.456  0.00  0.00    +0.000 C 
ATOM     22  C   UNL     1      36.395 -18.052 -22.243  0.00  0.00    +0.000 C 
ENDBRANCH  10  13
ENDBRANCH   8  10
ENDBRANCH   1   8
BRANCH   1  23
ATOM     23  C   UNL     1      34.629 -22.973 -14.370  0.00  0.00    +0.053 C 
BRANCH  23  24
ATOM     24  C   UNL     1      33.274 -23.588 -14.256  0.00  0.00    -0.020 C 
ATOM     25  C   UNL     1      32.180 -22.989 -14.882  0.00  0.00    -0.004 C 
ATOM     26  C   UNL     1      30.899 -23.556 -14.784  0.00  0.00    -0.000 C 
ATOM     27  C   UNL     1      33.102 -24.760 -13.526  0.00  0.00    -0.004 C 
ATOM     28  C   UNL     1      30.725 -24.748 -14.041  0.00  0.00    -0.000 C 
ATOM     29  C   UNL     1      31.837 -25.337 -13.418  0.00  0.00    -0.000 C 
ATOM     30  C   UNL     1      29.788 -22.965 -15.407  0.00  0.00    -0.000 C 
ATOM     31  C   UNL     1      29.444 -25.315 -13.943  0.00  0.00    -0.000 C 
ATOM     32  C   UNL     1      28.522 -23.543 -15.300  0.00  0.00    -0.000 C 
ATOM     33  C   UNL     1      28.351 -24.714 -14.568  0.00  0.00    -0.000 C 
ENDBRANCH  23  24
ENDBRANCH   1  23
TORSDOF 7
ENDMDL
MODEL 8
REMARK VINA RESULT:     -10.4     12.922     16.033
REMARK  Name = 9823454
REMARK  7 active torsions:
REMARK  status: ('A' for Active; 'I' for Inactive)
REMARK    1  A    between atoms: C_1  and  C_4
REMARK    2  A    between atoms: C_1  and  N_8
REMARK    3  A    between atoms: C_1  and  C_23
REMARK    4  A    between atoms: N_3  and  O_6
REMARK    5  A    between atoms: N_8  and  S_10
REMARK    6  A    between atoms: S_10  and  C_13
REMARK    7  A    between atoms: C_23  and  C_24
REMARK                            x       y       z     vdW  Elec       q    Type
REMARK                         _______ _______ _______ _____ _____    ______ ____
ROOT
ATOM      1  C   UNL     1      31.983  -9.861 -20.800  0.00  0.00    +0.158 C 
ENDROOT
BRANCH   1   4
ATOM      2  O   UNL     1      30.307 -10.065 -19.070  0.00  0.00    -0.272 OA
ATOM      3  N   UNL     1      32.527  -9.894 -18.456  0.00  0.00    -0.196 N 
ATOM      4  C   UNL     1      31.497  -9.955 -19.363  0.00  0.00    +0.260 C 
ATOM      5  H   UNL     1      33.467  -9.806 -18.737  0.00  0.00    +0.182 HD
BRANCH   3   6
ATOM      6  O   UNL     1      32.158  -9.965 -17.106  0.00  0.00    -0.295 OA
ATOM      7  H   UNL     1      32.929  -9.773 -16.550  0.00  0.00    +0.241 HD
ENDBRANCH   3   6
ENDBRANCH   1   4
BRANCH   1   8
ATOM      8  N   UNL     1      31.561  -8.521 -21.276  0.00  0.00    -0.172 NA
ATOM      9  H   UNL     1      31.634  -8.533 -22.292  0.00  0.00    +0.149 HD
BRANCH   8  10
ATOM     10  S   UNL     1      32.385  -7.136 -20.740  0.00  0.00    +0.061 S 
ATOM     11  O   UNL     1      33.314  -7.504 -19.688  0.00  0.00    -0.153 OA
ATOM     12  O   UNL     1      31.421  -6.074 -20.523  0.00  0.00    -0.153 OA
BRANCH  10  13
ATOM     13  C   UNL     1      33.326  -6.696 -22.168  0.00  0.00    +0.122 C 
ATOM     14  C   UNL     1      32.799  -5.788 -23.071  0.00  0.00    +0.020 C 
ATOM     15  C   UNL     1      33.534  -5.427 -24.212  0.00  0.00    +0.001 C 
ATOM     16  C   UNL     1      34.570  -7.264 -22.358  0.00  0.00    +0.020 C 
ATOM     17  C   UNL     1      34.811  -6.001 -24.423  0.00  0.00    +0.000 C 
ATOM     18  C   UNL     1      35.314  -6.917 -23.486  0.00  0.00    +0.001 C 
ATOM     19  C   UNL     1      33.030  -4.510 -25.149  0.00  0.00    +0.000 C 
ATOM     20  C   UNL     1      35.545  -5.641 -25.564  0.00  0.00    +0.000 C 
ATOM     21  C   UNL     1      33.774  -4.164 -26.278  0.00  0.00    +0.000 C 
ATOM     22  C   UNL     1      35.029  -4.728 -26.484  0.00  0.00    +0.000 C 
ENDBRANCH  10  13
ENDBRANCH   8  10
ENDBRANCH   1   8
BRANCH   1  23
ATOM     23  C   UNL     1      31.342 -10.950 -21.677  0.00  0.00    +0.053 C 
BRANCH  23  24
ATOM     24  C   UNL     1      32.272 -12.071 -22.001  0.00  0.00    -0.020 C 
ATOM     25  C   UNL     1      32.670 -12.959 -21.001  0.00  0.00    -0.004 C 
ATOM     26  C   UNL     1      33.544 -14.019 -21.290  0.00  0.00    -0.000 C 
ATOM     27  C   UNL     1      32.741 -12.231 -23.301  0.00  0.00    -0.004 C 
ATOM     28  C   UNL     1      34.021 -14.181 -22.613  0.00  0.00    -0.000 C 
ATOM     29  C   UNL     1      33.610 -13.279 -23.606  0.00  0.00    -0.000 C 
ATOM     30  C   UNL     1      33.955 -14.921 -20.296  0.00  0.00    -0.000 C 
ATOM     31  C   UNL     1      34.895 -15.242 -22.902  0.00  0.00    -0.000 C 
ATOM     32  C   UNL     1      34.824 -15.970 -20.601  0.00  0.00    -0.000 C 
ATOM     33  C   UNL     1      35.294 -16.128 -21.901  0.00  0.00    -0.000 C 
ENDBRANCH  23  24
ENDBRANCH   1  23
TORSDOF 7
ENDMDL
MODEL 9
REMARK VINA RESULT:     -10.3     12.612     16.252
REMARK  Name = 9823454
REMARK  7 active torsions:
REMARK  status: ('A' for Active; 'I' for Inactive)
REMARK    1  A    between atoms: C_1  and  C_4
REMARK    2  A    between atoms: C_1  and  N_8
REMARK    3  A    between atoms: C_1  and  C_23
REMARK    4  A    between atoms: N_3  and  O_6
REMARK    5  A    between atoms: N_8  and  S_10
REMARK    6  A    between atoms: S_10  and  C_13
REMARK    7  A    between atoms: C_23  and  C_24
REMARK                            x       y       z     vdW  Elec       q    Type
REMARK                         _______ _______ _______ _____ _____    ______ ____
ROOT
ATOM      1  C   UNL     1      31.784  -8.998 -20.387  0.00  0.00    +0.158 C 
ENDROOT
BRANCH   1   4
ATOM      2  O   UNL     1      30.312 -10.105 -18.822  0.00  0.00    -0.272 OA
ATOM      3  N   UNL     1      32.449  -9.557 -18.143  0.00  0.00    -0.196 N 
ATOM      4  C   UNL     1      31.418  -9.618 -19.048  0.00  0.00    +0.260 C 
ATOM      5  H   UNL     1      33.320  -9.157 -18.369  0.00  0.00    +0.182 HD
BRANCH   3   6
ATOM      6  O   UNL     1      32.186 -10.100 -16.878  0.00  0.00    -0.295 OA
ATOM      7  H   UNL     1      32.051 -11.057 -16.959  0.00  0.00    +0.241 HD
ENDBRANCH   3   6
ENDBRANCH   1   4
BRANCH   1   8
ATOM      8  N   UNL     1      32.527 -10.048 -21.123  0.00  0.00    -0.172 NA
ATOM      9  H   UNL     1      33.429  -9.648 -21.378  0.00  0.00    +0.149 HD
BRANCH   8  10
ATOM     10  S   UNL     1      31.868 -10.717 -22.538  0.00  0.00    +0.061 S 
ATOM     11  O   UNL     1      32.208  -9.878 -23.672  0.00  0.00    -0.153 OA
ATOM     12  O   UNL     1      30.485 -11.076 -22.284  0.00  0.00    -0.153 OA
BRANCH  10  13
ATOM     13  C   UNL     1      32.774 -12.226 -22.685  0.00  0.00    +0.122 C 
ATOM     14  C   UNL     1      33.122 -12.920 -21.538  0.00  0.00    +0.020 C 
ATOM     15  C   UNL     1      33.843 -14.121 -21.638  0.00  0.00    +0.001 C 
ATOM     16  C   UNL     1      33.118 -12.687 -23.940  0.00  0.00    +0.020 C 
ATOM     17  C   UNL     1      34.204 -14.608 -22.917  0.00  0.00    +0.000 C 
ATOM     18  C   UNL     1      33.834 -13.879 -24.058  0.00  0.00    +0.001 C 
ATOM     19  C   UNL     1      34.214 -14.850 -20.496  0.00  0.00    +0.000 C 
ATOM     20  C   UNL     1      34.926 -15.808 -23.017  0.00  0.00    +0.000 C 
ATOM     21  C   UNL     1      34.930 -16.042 -20.614  0.00  0.00    +0.000 C 
ATOM     22  C   UNL     1      35.285 -16.520 -21.871  0.00  0.00    +0.000 C 
ENDBRANCH  10  13
ENDBRANCH   8  10
ENDBRANCH   1   8
BRANCH   1  23
ATOM     23  C   UNL     1      32.677  -7.760 -20.202  0.00  0.00    +0.053 C 
BRANCH  23  24
ATOM     24  C   UNL     1      32.804  -6.932 -21.436  0.00  0.00    -0.020 C 
ATOM     25  C   UNL     1      33.937  -7.049 -22.242  0.00  0.00    -0.004 C 
ATOM     26  C   UNL     1      34.071  -6.276 -23.407  0.00  0.00    -0.000 C 
ATOM     27  C   UNL     1      31.791  -6.043 -21.784  0.00  0.00    -0.004 C 
ATOM     28  C   UNL     1      33.041  -5.372 -23.760  0.00  0.00    -0.000 C 
ATOM     29  C   UNL     1      31.907  -5.269 -22.938  0.00  0.00    -0.000 C 
ATOM     30  C   UNL     1      35.205  -6.381 -24.228  0.00  0.00    -0.000 C 
ATOM     31  C   UNL     1      33.175  -4.600 -24.925  0.00  0.00    -0.000 C 
ATOM     32  C   UNL     1      35.322  -5.605 -25.383  0.00  0.00    -0.000 C 
ATOM     33  C   UNL     1      34.309  -4.716 -25.729  0.00  0.00    -0.000 C 
ENDBRANCH  23  24
ENDBRANCH   1  23
TORSDOF 7
ENDMDL
