MODEL 1
REMARK VINA RESULT:     -11.8      0.000      0.000
REMARK  Name = 446129
REMARK  7 active torsions:
REMARK  status: ('A' for Active; 'I' for Inactive)
REMARK    1  A    between atoms: C_1  and  O_2
REMARK    2  A    between atoms: C_1  and  C_4
REMARK    3  A    between atoms: C_1  and  C_18
REMARK    4  A    between atoms: C_4  and  N_5
REMARK    5  A    between atoms: C_18  and  O_19
REMARK    6  A    between atoms: O_19  and  C_23
REMARK    7  A    between atoms: C_20  and  C_26
REMARK                            x       y       z     vdW  Elec       q    Type
REMARK                         _______ _______ _______ _____ _____    ______ ____
ROOT
ATOM      1  C   UNL     1      33.509 -15.540 -24.531  0.00  0.00    +0.133 C 
ENDROOT
BRANCH   1   2
ATOM      2  O   UNL     1      33.091 -15.957 -25.833  0.00  0.00    -0.383 OA
ATOM      3  H   UNL     1      32.447 -16.677 -25.751  0.00  0.00    +0.210 HD
ENDBRANCH   1   2
BRANCH   1   4
ATOM      4  C   UNL     1      35.020 -15.757 -24.423  0.00  0.00    -0.043 C 
BRANCH   4   5
ATOM      5  N   UNL     1      35.351 -16.933 -23.617  0.00  0.00    +0.391 N 
ATOM      6  N   UNL     1      34.958 -18.885 -21.570  0.00  0.00    -0.298 N 
ATOM      7  C   UNL     1      34.317 -17.965 -23.763  0.00  0.00    -0.055 C 
ATOM      8  C   UNL     1      35.493 -16.564 -22.204  0.00  0.00    -0.055 C 
ATOM      9  C   UNL     1      34.679 -19.222 -22.969  0.00  0.00    +0.069 C 
ATOM     10  C   UNL     1      35.896 -17.775 -21.358  0.00  0.00    +0.069 C 
ATOM     11  H   UNL     1      36.239 -17.307 -23.951  0.00  0.00    -0.079 HD
ATOM     12  N   UNL     1      35.987 -20.182 -19.835  0.00  0.00    -0.229 NA
ATOM     13  C   UNL     1      34.885 -19.880 -20.587  0.00  0.00    +0.132 C 
ATOM     14  C   UNL     1      33.665 -20.547 -20.402  0.00  0.00    +0.034 C 
ATOM     15  C   UNL     1      33.577 -21.538 -19.431  0.00  0.00    +0.004 C 
ATOM     16  C   UNL     1      35.863 -21.151 -18.901  0.00  0.00    +0.100 C 
ATOM     17  C   UNL     1      34.691 -21.851 -18.662  0.00  0.00    +0.021 C 
ENDBRANCH   4   5
ENDBRANCH   1   4
BRANCH   1  18
ATOM     18  C   UNL     1      33.093 -14.084 -24.328  0.00  0.00    +0.232 C 
BRANCH  18  19
ATOM     19  O   UNL     1      33.042 -13.811 -22.931  0.00  0.00    -0.473 OA
BRANCH  19  23
ATOM     20  C   UNL     1      32.090  -9.926 -21.822  0.00  0.00    -0.022 C 
ATOM     21  C   UNL     1      31.685 -10.997 -21.026  0.00  0.00    -0.001 C 
ATOM     22  C   UNL     1      32.815 -10.160 -22.990  0.00  0.00    -0.001 C 
ATOM     23  C   UNL     1      32.728 -12.530 -22.565  0.00  0.00    +0.139 C 
ATOM     24  C   UNL     1      32.005 -12.303 -21.398  0.00  0.00    +0.037 C 
ATOM     25  C   UNL     1      33.134 -11.466 -23.363  0.00  0.00    +0.037 C 
BRANCH  20  26
ATOM     26  C   UNL     1      31.741  -8.506 -21.417  0.00  0.00    +0.022 C 
ATOM     27  C   UNL     1      32.938  -7.780 -20.777  0.00  0.00    +0.004 C 
ATOM     28  C   UNL     1      31.173  -7.698 -22.596  0.00  0.00    +0.004 C 
ATOM     29  C   UNL     1      32.573  -6.355 -20.365  0.00  0.00    +0.000 C 
ATOM     30  C   UNL     1      30.815  -6.273 -22.177  0.00  0.00    +0.000 C 
ATOM     31  C   UNL     1      32.002  -5.560 -21.536  0.00  0.00    +0.000 C 
ENDBRANCH  20  26
ENDBRANCH  19  23
ENDBRANCH  18  19
ENDBRANCH   1  18
TORSDOF 7
ENDMDL
MODEL 2
REMARK VINA RESULT:     -11.6      3.386     11.213
REMARK  Name = 446129
REMARK  7 active torsions:
REMARK  status: ('A' for Active; 'I' for Inactive)
REMARK    1  A    between atoms: C_1  and  O_2
REMARK    2  A    between atoms: C_1  and  C_4
REMARK    3  A    between atoms: C_1  and  C_18
REMARK    4  A    between atoms: C_4  and  N_5
REMARK    5  A    between atoms: C_18  and  O_19
REMARK    6  A    between atoms: O_19  and  C_23
REMARK    7  A    between atoms: C_20  and  C_26
REMARK                            x       y       z     vdW  Elec       q    Type
REMARK                         _______ _______ _______ _____ _____    ______ ____
ROOT
ATOM      1  C   UNL     1      36.137 -18.481 -21.105  0.00  0.00    +0.133 C 
ENDROOT
BRANCH   1   2
ATOM      2  O   UNL     1      37.536 -18.721 -20.937  0.00  0.00    -0.383 OA
ATOM      3  H   UNL     1      37.804 -18.462 -20.042  0.00  0.00    +0.210 HD
ENDBRANCH   1   2
BRANCH   1   4
ATOM      4  C   UNL     1      35.923 -17.852 -22.484  0.00  0.00    -0.043 C 
BRANCH   4   5
ATOM      5  N   UNL     1      35.556 -16.439 -22.394  0.00  0.00    +0.391 N 
ATOM      6  N   UNL     1      33.786 -14.218 -22.087  0.00  0.00    -0.298 N 
ATOM      7  C   UNL     1      34.952 -16.145 -21.089  0.00  0.00    -0.055 C 
ATOM      8  C   UNL     1      34.623 -16.079 -23.469  0.00  0.00    -0.055 C 
ATOM      9  C   UNL     1      34.615 -14.657 -20.961  0.00  0.00    +0.069 C 
ATOM     10  C   UNL     1      34.276 -14.589 -23.420  0.00  0.00    +0.069 C 
ATOM     11  H   UNL     1      36.406 -15.883 -22.496  0.00  0.00    -0.079 HD
ATOM     12  N   UNL     1      33.218 -12.011 -22.830  0.00  0.00    -0.229 NA
ATOM     13  C   UNL     1      33.015 -13.056 -21.971  0.00  0.00    +0.132 C 
ATOM     14  C   UNL     1      32.043 -12.997 -20.961  0.00  0.00    +0.034 C 
ATOM     15  C   UNL     1      31.270 -11.848 -20.832  0.00  0.00    +0.004 C 
ATOM     16  C   UNL     1      32.447 -10.911 -22.674  0.00  0.00    +0.100 C 
ATOM     17  C   UNL     1      31.469 -10.782 -21.701  0.00  0.00    +0.021 C 
ENDBRANCH   4   5
ENDBRANCH   1   4
BRANCH   1  18
ATOM     18  C   UNL     1      35.387 -19.800 -20.920  0.00  0.00    +0.232 C 
BRANCH  18  19
ATOM     19  O   UNL     1      36.157 -20.652 -20.078  0.00  0.00    -0.473 OA
BRANCH  19  23
ATOM     20  C   UNL     1      34.094 -22.732 -17.138  0.00  0.00    -0.022 C 
ATOM     21  C   UNL     1      33.428 -22.304 -18.287  0.00  0.00    -0.001 C 
ATOM     22  C   UNL     1      35.452 -22.459 -16.977  0.00  0.00    -0.001 C 
ATOM     23  C   UNL     1      35.476 -21.337 -19.108  0.00  0.00    +0.139 C 
ATOM     24  C   UNL     1      34.122 -21.606 -19.276  0.00  0.00    +0.037 C 
ATOM     25  C   UNL     1      36.145 -21.759 -17.965  0.00  0.00    +0.037 C 
BRANCH  20  26
ATOM     26  C   UNL     1      33.339 -23.491 -16.063  0.00  0.00    +0.022 C 
ATOM     27  C   UNL     1      34.020 -23.371 -14.689  0.00  0.00    +0.004 C 
ATOM     28  C   UNL     1      31.864 -23.059 -15.986  0.00  0.00    +0.004 C 
ATOM     29  C   UNL     1      33.258 -24.146 -13.616  0.00  0.00    +0.000 C 
ATOM     30  C   UNL     1      31.110 -23.836 -14.908  0.00  0.00    +0.000 C 
ATOM     31  C   UNL     1      31.793 -23.721 -13.549  0.00  0.00    +0.000 C 
ENDBRANCH  20  26
ENDBRANCH  19  23
ENDBRANCH  18  19
ENDBRANCH   1  18
TORSDOF 7
ENDMDL
MODEL 3
REMARK VINA RESULT:     -11.6      2.719     10.691
REMARK  Name = 446129
REMARK  7 active torsions:
REMARK  status: ('A' for Active; 'I' for Inactive)
REMARK    1  A    between atoms: C_1  and  O_2
REMARK    2  A    between atoms: C_1  and  C_4
REMARK    3  A    between atoms: C_1  and  C_18
REMARK    4  A    between atoms: C_4  and  N_5
REMARK    5  A    between atoms: C_18  and  O_19
REMARK    6  A    between atoms: O_19  and  C_23
REMARK    7  A    between atoms: C_20  and  C_26
REMARK                            x       y       z     vdW  Elec       q    Type
REMARK                         _______ _______ _______ _____ _____    ______ ____
ROOT
ATOM      1  C   UNL     1      33.569 -14.498 -24.797  0.00  0.00    +0.133 C 
ENDROOT
BRANCH   1   2
ATOM      2  O   UNL     1      32.436 -14.385 -25.661  0.00  0.00    -0.383 OA
ATOM      3  H   UNL     1      32.033 -15.259 -25.783  0.00  0.00    +0.210 HD
ENDBRANCH   1   2
BRANCH   1   4
ATOM      4  C   UNL     1      33.176 -13.958 -23.420  0.00  0.00    -0.043 C 
BRANCH   4   5
ATOM      5  N   UNL     1      32.748 -12.561 -23.478  0.00  0.00    +0.391 N 
ATOM      6  N   UNL     1      32.560  -9.851 -22.594  0.00  0.00    -0.298 N 
ATOM      7  C   UNL     1      33.909 -11.668 -23.568  0.00  0.00    -0.055 C 
ATOM      8  C   UNL     1      31.944 -12.219 -22.298  0.00  0.00    -0.055 C 
ATOM      9  C   UNL     1      33.472 -10.206 -23.686  0.00  0.00    +0.069 C 
ATOM     10  C   UNL     1      31.441 -10.775 -22.375  0.00  0.00    +0.069 C 
ATOM     11  H   UNL     1      32.173 -12.439 -24.313  0.00  0.00    -0.079 HD
ATOM     12  N   UNL     1      31.135  -7.943 -22.320  0.00  0.00    -0.229 NA
ATOM     13  C   UNL     1      32.380  -8.507 -22.249  0.00  0.00    +0.132 C 
ATOM     14  C   UNL     1      33.498  -7.767 -21.837  0.00  0.00    +0.034 C 
ATOM     15  C   UNL     1      33.335  -6.430 -21.492  0.00  0.00    +0.004 C 
ATOM     16  C   UNL     1      31.015  -6.641 -21.977  0.00  0.00    +0.100 C 
ATOM     17  C   UNL     1      32.073  -5.849 -21.560  0.00  0.00    +0.021 C 
ENDBRANCH   4   5
ENDBRANCH   1   4
BRANCH   1  18
ATOM     18  C   UNL     1      34.018 -15.958 -24.767  0.00  0.00    +0.232 C 
BRANCH  18  19
ATOM     19  O   UNL     1      35.115 -16.085 -23.867  0.00  0.00    -0.473 OA
BRANCH  19  23
ATOM     20  C   UNL     1      35.126 -19.415 -21.391  0.00  0.00    -0.022 C 
ATOM     21  C   UNL     1      34.723 -19.537 -22.721  0.00  0.00    -0.001 C 
ATOM     22  C   UNL     1      35.524 -18.175 -20.893  0.00  0.00    -0.001 C 
ATOM     23  C   UNL     1      35.118 -17.183 -23.051  0.00  0.00    +0.139 C 
ATOM     24  C   UNL     1      34.720 -18.418 -23.553  0.00  0.00    +0.037 C 
ATOM     25  C   UNL     1      35.519 -17.055 -21.726  0.00  0.00    +0.037 C 
BRANCH  20  26
ATOM     26  C   UNL     1      35.129 -20.633 -20.486  0.00  0.00    +0.022 C 
ATOM     27  C   UNL     1      36.298 -20.603 -19.486  0.00  0.00    +0.004 C 
ATOM     28  C   UNL     1      33.785 -20.807 -19.756  0.00  0.00    +0.004 C 
ATOM     29  C   UNL     1      36.296 -21.837 -18.586  0.00  0.00    +0.000 C 
ATOM     30  C   UNL     1      33.794 -22.041 -18.855  0.00  0.00    +0.000 C 
ATOM     31  C   UNL     1      34.959 -22.011 -17.871  0.00  0.00    +0.000 C 
ENDBRANCH  20  26
ENDBRANCH  19  23
ENDBRANCH  18  19
ENDBRANCH   1  18
TORSDOF 7
ENDMDL
MODEL 4
REMARK VINA RESULT:     -11.3      2.823     10.905
REMARK  Name = 446129
REMARK  7 active torsions:
REMARK  status: ('A' for Active; 'I' for Inactive)
REMARK    1  A    between atoms: C_1  and  O_2
REMARK    2  A    between atoms: C_1  and  C_4
REMARK    3  A    between atoms: C_1  and  C_18
REMARK    4  A    between atoms: C_4  and  N_5
REMARK    5  A    between atoms: C_18  and  O_19
REMARK    6  A    between atoms: O_19  and  C_23
REMARK    7  A    between atoms: C_20  and  C_26
REMARK                            x       y       z     vdW  Elec       q    Type
REMARK                         _______ _______ _______ _____ _____    ______ ____
ROOT
ATOM      1  C   UNL     1      33.515 -13.929 -23.981  0.00  0.00    +0.133 C 
ENDROOT
BRANCH   1   2
ATOM      2  O   UNL     1      32.852 -14.788 -24.912  0.00  0.00    -0.383 OA
ATOM      3  H   UNL     1      32.896 -15.704 -24.595  0.00  0.00    +0.210 HD
ENDBRANCH   1   2
BRANCH   1   4
ATOM      4  C   UNL     1      32.497 -13.491 -22.926  0.00  0.00    -0.043 C 
BRANCH   4   5
ATOM      5  N   UNL     1      32.671 -12.091 -22.540  0.00  0.00    +0.391 N 
ATOM      6  N   UNL     1      32.235  -9.272 -22.687  0.00  0.00    -0.298 N 
ATOM      7  C   UNL     1      31.394 -11.514 -22.105  0.00  0.00    -0.055 C 
ATOM      8  C   UNL     1      33.216 -11.313 -23.659  0.00  0.00    -0.055 C 
ATOM      9  C   UNL     1      31.573 -10.065 -21.645  0.00  0.00    +0.069 C 
ATOM     10  C   UNL     1      33.457  -9.858 -23.251  0.00  0.00    +0.069 C 
ATOM     11  H   UNL     1      33.331 -12.056 -21.762  0.00  0.00    -0.079 HD
ATOM     12  N   UNL     1      33.237  -7.097 -22.581  0.00  0.00    -0.229 NA
ATOM     13  C   UNL     1      32.117  -7.878 -22.678  0.00  0.00    +0.132 C 
ATOM     14  C   UNL     1      30.836  -7.315 -22.769  0.00  0.00    +0.034 C 
ATOM     15  C   UNL     1      30.703  -5.930 -22.761  0.00  0.00    +0.004 C 
ATOM     16  C   UNL     1      33.068  -5.756 -22.577  0.00  0.00    +0.100 C 
ATOM     17  C   UNL     1      31.835  -5.129 -22.663  0.00  0.00    +0.021 C 
ENDBRANCH   4   5
ENDBRANCH   1   4
BRANCH   1  18
ATOM     18  C   UNL     1      34.712 -14.675 -23.393  0.00  0.00    +0.232 C 
BRANCH  18  19
ATOM     19  O   UNL     1      34.828 -15.940 -24.038  0.00  0.00    -0.473 OA
BRANCH  19  23
ATOM     20  C   UNL     1      35.060 -19.274 -21.577  0.00  0.00    -0.022 C 
ATOM     21  C   UNL     1      35.398 -18.016 -21.079  0.00  0.00    -0.001 C 
ATOM     22  C   UNL     1      34.646 -19.412 -22.901  0.00  0.00    -0.001 C 
ATOM     23  C   UNL     1      34.905 -17.039 -23.226  0.00  0.00    +0.139 C 
ATOM     24  C   UNL     1      35.319 -16.895 -21.906  0.00  0.00    +0.037 C 
ATOM     25  C   UNL     1      34.569 -18.292 -23.729  0.00  0.00    +0.037 C 
BRANCH  20  26
ATOM     26  C   UNL     1      35.146 -20.493 -20.677  0.00  0.00    +0.022 C 
ATOM     27  C   UNL     1      36.360 -20.425 -19.733  0.00  0.00    +0.004 C 
ATOM     28  C   UNL     1      33.846 -20.714 -19.886  0.00  0.00    +0.004 C 
ATOM     29  C   UNL     1      36.443 -21.661 -18.839  0.00  0.00    +0.000 C 
ATOM     30  C   UNL     1      33.938 -21.948 -18.991  0.00  0.00    +0.000 C 
ATOM     31  C   UNL     1      35.147 -21.881 -18.063  0.00  0.00    +0.000 C 
ENDBRANCH  20  26
ENDBRANCH  19  23
ENDBRANCH  18  19
ENDBRANCH   1  18
TORSDOF 7
ENDMDL
MODEL 5
REMARK VINA RESULT:     -11.1      3.004     10.933
REMARK  Name = 446129
REMARK  7 active torsions:
REMARK  status: ('A' for Active; 'I' for Inactive)
REMARK    1  A    between atoms: C_1  and  O_2
REMARK    2  A    between atoms: C_1  and  C_4
REMARK    3  A    between atoms: C_1  and  C_18
REMARK    4  A    between atoms: C_4  and  N_5
REMARK    5  A    between atoms: C_18  and  O_19
REMARK    6  A    between atoms: O_19  and  C_23
REMARK    7  A    between atoms: C_20  and  C_26
REMARK                            x       y       z     vdW  Elec       q    Type
REMARK                         _______ _______ _______ _____ _____    ______ ____
ROOT
ATOM      1  C   UNL     1      33.107 -13.668 -23.597  0.00  0.00    +0.133 C 
ENDROOT
BRANCH   1   2
ATOM      2  O   UNL     1      32.982 -14.089 -22.237  0.00  0.00    -0.383 OA
ATOM      3  H   UNL     1      32.858 -15.051 -22.206  0.00  0.00    +0.210 HD
ENDBRANCH   1   2
BRANCH   1   4
ATOM      4  C   UNL     1      34.123 -12.525 -23.651  0.00  0.00    -0.043 C 
BRANCH   4   5
ATOM      5  N   UNL     1      33.476 -11.214 -23.692  0.00  0.00    +0.391 N 
ATOM      6  N   UNL     1      32.602  -8.704 -22.647  0.00  0.00    -0.298 N 
ATOM      7  C   UNL     1      34.446 -10.151 -23.404  0.00  0.00    -0.055 C 
ATOM      8  C   UNL     1      32.370 -11.156 -22.728  0.00  0.00    -0.055 C 
ATOM      9  C   UNL     1      33.793  -8.770 -23.499  0.00  0.00    +0.069 C 
ATOM     10  C   UNL     1      31.647  -9.809 -22.801  0.00  0.00    +0.069 C 
ATOM     11  H   UNL     1      33.102 -11.074 -24.631  0.00  0.00    -0.079 HD
ATOM     12  N   UNL     1      30.832  -7.088 -22.574  0.00  0.00    -0.229 NA
ATOM     13  C   UNL     1      32.106  -7.459 -22.241  0.00  0.00    +0.132 C 
ATOM     14  C   UNL     1      32.943  -6.618 -21.495  0.00  0.00    +0.034 C 
ATOM     15  C   UNL     1      32.466  -5.378 -21.085  0.00  0.00    +0.004 C 
ATOM     16  C   UNL     1      30.402  -5.875 -22.158  0.00  0.00    +0.100 C 
ATOM     17  C   UNL     1      31.172  -4.993 -21.418  0.00  0.00    +0.021 C 
ENDBRANCH   4   5
ENDBRANCH   1   4
BRANCH   1  18
ATOM     18  C   UNL     1      33.507 -14.873 -24.448  0.00  0.00    +0.232 C 
BRANCH  18  19
ATOM     19  O   UNL     1      34.808 -15.299 -24.058  0.00  0.00    -0.473 OA
BRANCH  19  23
ATOM     20  C   UNL     1      35.039 -18.803 -21.844  0.00  0.00    -0.022 C 
ATOM     21  C   UNL     1      34.624 -18.845 -23.175  0.00  0.00    -0.001 C 
ATOM     22  C   UNL     1      35.376 -17.583 -21.257  0.00  0.00    -0.001 C 
ATOM     23  C   UNL     1      34.884 -16.455 -23.328  0.00  0.00    +0.139 C 
ATOM     24  C   UNL     1      34.546 -17.668 -23.919  0.00  0.00    +0.037 C 
ATOM     25  C   UNL     1      35.297 -16.406 -22.001  0.00  0.00    +0.037 C 
BRANCH  20  26
ATOM     26  C   UNL     1      35.123 -20.083 -21.035  0.00  0.00    +0.022 C 
ATOM     27  C   UNL     1      36.360 -20.105 -20.120  0.00  0.00    +0.004 C 
ATOM     28  C   UNL     1      33.837 -20.335 -20.228  0.00  0.00    +0.004 C 
ATOM     29  C   UNL     1      36.439 -21.402 -19.317  0.00  0.00    +0.000 C 
ATOM     30  C   UNL     1      33.926 -21.631 -19.424  0.00  0.00    +0.000 C 
ATOM     31  C   UNL     1      35.159 -21.652 -18.525  0.00  0.00    +0.000 C 
ENDBRANCH  20  26
ENDBRANCH  19  23
ENDBRANCH  18  19
ENDBRANCH   1  18
TORSDOF 7
ENDMDL
MODEL 6
REMARK VINA RESULT:     -10.5      3.567      6.311
REMARK  Name = 446129
REMARK  7 active torsions:
REMARK  status: ('A' for Active; 'I' for Inactive)
REMARK    1  A    between atoms: C_1  and  O_2
REMARK    2  A    between atoms: C_1  and  C_4
REMARK    3  A    between atoms: C_1  and  C_18
REMARK    4  A    between atoms: C_4  and  N_5
REMARK    5  A    between atoms: C_18  and  O_19
REMARK    6  A    between atoms: O_19  and  C_23
REMARK    7  A    between atoms: C_20  and  C_26
REMARK                            x       y       z     vdW  Elec       q    Type
REMARK                         _______ _______ _______ _____ _____    ______ ____
ROOT
ATOM      1  C   UNL     1      34.820 -19.851 -20.295  0.00  0.00    +0.133 C 
ENDROOT
BRANCH   1   2
ATOM      2  O   UNL     1      33.478 -20.202 -20.641  0.00  0.00    -0.383 OA
ATOM      3  H   UNL     1      32.886 -19.463 -20.434  0.00  0.00    +0.210 HD
ENDBRANCH   1   2
BRANCH   1   4
ATOM      4  C   UNL     1      35.558 -21.129 -19.888  0.00  0.00    -0.043 C 
BRANCH   4   5
ATOM      5  N   UNL     1      35.440 -21.401 -18.456  0.00  0.00    +0.391 N 
ATOM      6  N   UNL     1      35.691 -22.942 -16.065  0.00  0.00    -0.298 N 
ATOM      7  C   UNL     1      36.761 -21.648 -17.867  0.00  0.00    -0.055 C 
ATOM      8  C   UNL     1      34.564 -22.555 -18.222  0.00  0.00    -0.055 C 
ATOM      9  C   UNL     1      36.657 -21.878 -16.358  0.00  0.00    +0.069 C 
ATOM     10  C   UNL     1      34.385 -22.815 -16.724  0.00  0.00    +0.069 C 
ATOM     11  H   UNL     1      35.028 -20.580 -18.010  0.00  0.00    -0.079 HD
ATOM     12  N   UNL     1      34.666 -23.582 -13.994  0.00  0.00    -0.229 NA
ATOM     13  C   UNL     1      35.744 -23.610 -14.835  0.00  0.00    +0.132 C 
ATOM     14  C   UNL     1      36.920 -24.296 -14.498  0.00  0.00    +0.034 C 
ATOM     15  C   UNL     1      36.988 -24.963 -13.280  0.00  0.00    +0.004 C 
ATOM     16  C   UNL     1      34.769 -24.242 -12.819  0.00  0.00    +0.100 C 
ATOM     17  C   UNL     1      35.897 -24.941 -12.419  0.00  0.00    +0.021 C 
ENDBRANCH   4   5
ENDBRANCH   1   4
BRANCH   1  18
ATOM     18  C   UNL     1      35.461 -19.136 -21.483  0.00  0.00    +0.232 C 
BRANCH  18  19
ATOM     19  O   UNL     1      35.965 -17.878 -21.046  0.00  0.00    -0.473 OA
BRANCH  19  23
ATOM     20  C   UNL     1      33.915 -14.502 -22.322  0.00  0.00    -0.022 C 
ATOM     21  C   UNL     1      34.420 -15.406 -23.257  0.00  0.00    -0.001 C 
ATOM     22  C   UNL     1      34.101 -14.731 -20.959  0.00  0.00    -0.001 C 
ATOM     23  C   UNL     1      35.290 -16.764 -21.467  0.00  0.00    +0.139 C 
ATOM     24  C   UNL     1      35.108 -16.541 -22.828  0.00  0.00    +0.037 C 
ATOM     25  C   UNL     1      34.790 -15.865 -20.530  0.00  0.00    +0.037 C 
BRANCH  20  26
ATOM     26  C   UNL     1      33.167 -13.267 -22.789  0.00  0.00    +0.022 C 
ATOM     27  C   UNL     1      32.337 -12.636 -21.658  0.00  0.00    +0.004 C 
ATOM     28  C   UNL     1      34.112 -12.231 -23.422  0.00  0.00    +0.004 C 
ATOM     29  C   UNL     1      31.581 -11.400 -22.141  0.00  0.00    +0.000 C 
ATOM     30  C   UNL     1      33.349 -10.996 -23.899  0.00  0.00    +0.000 C 
ATOM     31  C   UNL     1      32.521 -10.378 -22.776  0.00  0.00    +0.000 C 
ENDBRANCH  20  26
ENDBRANCH  19  23
ENDBRANCH  18  19
ENDBRANCH   1  18
TORSDOF 7
ENDMDL
MODEL 7
REMARK VINA RESULT:     -10.3      6.641     10.339
REMARK  Name = 446129
REMARK  7 active torsions:
REMARK  status: ('A' for Active; 'I' for Inactive)
REMARK    1  A    between atoms: C_1  and  O_2
REMARK    2  A    between atoms: C_1  and  C_4
REMARK    3  A    between atoms: C_1  and  C_18
REMARK    4  A    between atoms: C_4  and  N_5
REMARK    5  A    between atoms: C_18  and  O_19
REMARK    6  A    between atoms: O_19  and  C_23
REMARK    7  A    between atoms: C_20  and  C_26
REMARK                            x       y       z     vdW  Elec       q    Type
REMARK                         _______ _______ _______ _____ _____    ______ ____
ROOT
ATOM      1  C   UNL     1      32.309 -22.531 -16.490  0.00  0.00    +0.133 C 
ENDROOT
BRANCH   1   2
ATOM      2  O   UNL     1      30.919 -22.869 -16.493  0.00  0.00    -0.383 OA
ATOM      3  H   UNL     1      30.779 -23.668 -15.962  0.00  0.00    +0.210 HD
ENDBRANCH   1   2
BRANCH   1   4
ATOM      4  C   UNL     1      32.916 -23.019 -15.173  0.00  0.00    -0.043 C 
BRANCH   4   5
ATOM      5  N   UNL     1      34.259 -23.567 -15.356  0.00  0.00    +0.391 N 
ATOM      6  N   UNL     1      36.840 -24.475 -14.533  0.00  0.00    -0.298 N 
ATOM      7  C   UNL     1      34.404 -24.832 -14.626  0.00  0.00    -0.055 C 
ATOM      8  C   UNL     1      35.272 -22.608 -14.899  0.00  0.00    -0.055 C 
ATOM      9  C   UNL     1      35.788 -25.444 -14.856  0.00  0.00    +0.069 C 
ATOM     10  C   UNL     1      36.686 -23.145 -15.137  0.00  0.00    +0.069 C 
ATOM     11  H   UNL     1      34.398 -23.743 -16.351  0.00  0.00    -0.079 HD
ATOM     12  N   UNL     1      39.186 -24.507 -15.025  0.00  0.00    -0.229 NA
ATOM     13  C   UNL     1      38.136 -24.923 -14.253  0.00  0.00    +0.132 C 
ATOM     14  C   UNL     1      38.321 -25.797 -13.173  0.00  0.00    +0.034 C 
ATOM     15  C   UNL     1      39.602 -26.252 -12.882  0.00  0.00    +0.004 C 
ATOM     16  C   UNL     1      40.417 -24.970 -14.712  0.00  0.00    +0.100 C 
ATOM     17  C   UNL     1      40.676 -25.835 -13.661  0.00  0.00    +0.021 C 
ENDBRANCH   4   5
ENDBRANCH   1   4
BRANCH   1  18
ATOM     18  C   UNL     1      32.965 -23.150 -17.724  0.00  0.00    +0.232 C 
BRANCH  18  19
ATOM     19  O   UNL     1      34.302 -22.669 -17.824  0.00  0.00    -0.473 OA
BRANCH  19  23
ATOM     20  C   UNL     1      35.053 -19.854 -20.780  0.00  0.00    -0.022 C 
ATOM     21  C   UNL     1      36.113 -20.424 -20.075  0.00  0.00    -0.001 C 
ATOM     22  C   UNL     1      33.741 -20.229 -20.491  0.00  0.00    -0.001 C 
ATOM     23  C   UNL     1      34.550 -21.740 -18.798  0.00  0.00    +0.139 C 
ATOM     24  C   UNL     1      35.860 -21.370 -19.082  0.00  0.00    +0.037 C 
ATOM     25  C   UNL     1      33.489 -21.174 -19.497  0.00  0.00    +0.037 C 
BRANCH  20  26
ATOM     26  C   UNL     1      35.328 -18.824 -21.860  0.00  0.00    +0.022 C 
ATOM     27  C   UNL     1      34.449 -19.047 -23.104  0.00  0.00    +0.004 C 
ATOM     28  C   UNL     1      35.179 -17.387 -21.331  0.00  0.00    +0.004 C 
ATOM     29  C   UNL     1      34.741 -18.011 -24.187  0.00  0.00    +0.000 C 
ATOM     30  C   UNL     1      35.467 -16.357 -22.423  0.00  0.00    +0.000 C 
ATOM     31  C   UNL     1      34.600 -16.587 -23.657  0.00  0.00    +0.000 C 
ENDBRANCH  20  26
ENDBRANCH  19  23
ENDBRANCH  18  19
ENDBRANCH   1  18
TORSDOF 7
ENDMDL
MODEL 8
REMARK VINA RESULT:     -10.2      3.648     11.587
REMARK  Name = 446129
REMARK  7 active torsions:
REMARK  status: ('A' for Active; 'I' for Inactive)
REMARK    1  A    between atoms: C_1  and  O_2
REMARK    2  A    between atoms: C_1  and  C_4
REMARK    3  A    between atoms: C_1  and  C_18
REMARK    4  A    between atoms: C_4  and  N_5
REMARK    5  A    between atoms: C_18  and  O_19
REMARK    6  A    between atoms: O_19  and  C_23
REMARK    7  A    between atoms: C_20  and  C_26
REMARK                            x       y       z     vdW  Elec       q    Type
REMARK                         _______ _______ _______ _____ _____    ______ ____
ROOT
ATOM      1  C   UNL     1      35.605 -19.650 -21.186  0.00  0.00    +0.133 C 
ENDROOT
BRANCH   1   2
ATOM      2  O   UNL     1      34.188 -19.494 -21.081  0.00  0.00    -0.383 OA
ATOM      3  H   UNL     1      33.769 -20.367 -21.034  0.00  0.00    +0.210 HD
ENDBRANCH   1   2
BRANCH   1   4
ATOM      4  C   UNL     1      36.209 -18.291 -21.548  0.00  0.00    -0.043 C 
BRANCH   4   5
ATOM      5  N   UNL     1      35.182 -17.278 -21.786  0.00  0.00    +0.391 N 
ATOM      6  N   UNL     1      34.172 -14.647 -22.249  0.00  0.00    -0.298 N 
ATOM      7  C   UNL     1      35.401 -16.615 -23.077  0.00  0.00    -0.055 C 
ATOM      8  C   UNL     1      35.180 -16.283 -20.707  0.00  0.00    -0.055 C 
ATOM      9  C   UNL     1      34.300 -15.591 -23.364  0.00  0.00    +0.069 C 
ATOM     10  C   UNL     1      34.071 -15.248 -20.914  0.00  0.00    +0.069 C 
ATOM     11  H   UNL     1      34.274 -17.744 -21.805  0.00  0.00    -0.079 HD
ATOM     12  N   UNL     1      32.444 -13.063 -21.746  0.00  0.00    -0.229 NA
ATOM     13  C   UNL     1      33.561 -13.404 -22.458  0.00  0.00    +0.132 C 
ATOM     14  C   UNL     1      34.121 -12.535 -23.405  0.00  0.00    +0.034 C 
ATOM     15  C   UNL     1      33.526 -11.298 -23.624  0.00  0.00    +0.004 C 
ATOM     16  C   UNL     1      31.892 -11.852 -21.986  0.00  0.00    +0.100 C 
ATOM     17  C   UNL     1      32.390 -10.942 -22.905  0.00  0.00    +0.021 C 
ENDBRANCH   4   5
ENDBRANCH   1   4
BRANCH   1  18
ATOM     18  C   UNL     1      36.134 -20.214 -19.868  0.00  0.00    +0.232 C 
BRANCH  18  19
ATOM     19  O   UNL     1      35.791 -21.594 -19.787  0.00  0.00    -0.473 OA
BRANCH  19  23
ATOM     20  C   UNL     1      33.657 -22.793 -16.435  0.00  0.00    -0.022 C 
ATOM     21  C   UNL     1      32.995 -22.586 -17.645  0.00  0.00    -0.001 C 
ATOM     22  C   UNL     1      35.035 -22.597 -16.351  0.00  0.00    -0.001 C 
ATOM     23  C   UNL     1      35.087 -21.989 -18.681  0.00  0.00    +0.139 C 
ATOM     24  C   UNL     1      33.712 -22.183 -18.772  0.00  0.00    +0.037 C 
ATOM     25  C   UNL     1      35.752 -22.193 -17.478  0.00  0.00    +0.037 C 
BRANCH  20  26
ATOM     26  C   UNL     1      32.877 -23.230 -15.209  0.00  0.00    +0.022 C 
ATOM     27  C   UNL     1      31.512 -23.835 -15.583  0.00  0.00    +0.004 C 
ATOM     28  C   UNL     1      33.686 -24.200 -14.331  0.00  0.00    +0.004 C 
ATOM     29  C   UNL     1      30.731 -24.263 -14.342  0.00  0.00    +0.000 C 
ATOM     30  C   UNL     1      32.896 -24.627 -13.095  0.00  0.00    +0.000 C 
ATOM     31  C   UNL     1      31.541 -25.218 -13.469  0.00  0.00    +0.000 C 
ENDBRANCH  20  26
ENDBRANCH  19  23
ENDBRANCH  18  19
ENDBRANCH   1  18
TORSDOF 7
ENDMDL
MODEL 9
REMARK VINA RESULT:     -10.1      4.048      6.880
REMARK  Name = 446129
REMARK  7 active torsions:
REMARK  status: ('A' for Active; 'I' for Inactive)
REMARK    1  A    between atoms: C_1  and  O_2
REMARK    2  A    between atoms: C_1  and  C_4
REMARK    3  A    between atoms: C_1  and  C_18
REMARK    4  A    between atoms: C_4  and  N_5
REMARK    5  A    between atoms: C_18  and  O_19
REMARK    6  A    between atoms: O_19  and  C_23
REMARK    7  A    between atoms: C_20  and  C_26
REMARK                            x       y       z     vdW  Elec       q    Type
REMARK                         _______ _______ _______ _____ _____    ______ ____
ROOT
ATOM      1  C   UNL     1      32.363  -9.301 -19.743  0.00  0.00    +0.133 C 
ENDROOT
BRANCH   1   2
ATOM      2  O   UNL     1      32.723  -9.397 -18.362  0.00  0.00    -0.383 OA
ATOM      3  H   UNL     1      33.121  -8.561 -18.073  0.00  0.00    +0.210 HD
ENDBRANCH   1   2
BRANCH   1   4
ATOM      4  C   UNL     1      31.086 -10.117 -19.960  0.00  0.00    -0.043 C 
BRANCH   4   5
ATOM      5  N   UNL     1      31.318 -11.285 -20.810  0.00  0.00    +0.391 N 
ATOM      6  N   UNL     1      32.878 -13.272 -22.142  0.00  0.00    -0.298 N 
ATOM      7  C   UNL     1      31.962 -12.359 -20.045  0.00  0.00    -0.055 C 
ATOM      8  C   UNL     1      32.151 -10.924 -21.964  0.00  0.00    -0.055 C 
ATOM      9  C   UNL     1      32.159 -13.607 -20.909  0.00  0.00    +0.069 C 
ATOM     10  C   UNL     1      32.353 -12.124 -22.892  0.00  0.00    +0.069 C 
ATOM     11  H   UNL     1      30.414 -11.617 -21.147  0.00  0.00    -0.079 HD
ATOM     12  N   UNL     1      33.187 -14.539 -24.154  0.00  0.00    -0.229 NA
ATOM     13  C   UNL     1      33.538 -14.278 -22.857  0.00  0.00    +0.132 C 
ATOM     14  C   UNL     1      34.553 -15.000 -22.213  0.00  0.00    +0.034 C 
ATOM     15  C   UNL     1      35.217 -16.003 -22.910  0.00  0.00    +0.004 C 
ATOM     16  C   UNL     1      33.854 -15.522 -24.799  0.00  0.00    +0.100 C 
ATOM     17  C   UNL     1      34.867 -16.275 -24.228  0.00  0.00    +0.021 C 
ENDBRANCH   4   5
ENDBRANCH   1   4
BRANCH   1  18
ATOM     18  C   UNL     1      32.204  -7.825 -20.105  0.00  0.00    +0.232 C 
BRANCH  18  19
ATOM     19  O   UNL     1      33.487  -7.285 -20.410  0.00  0.00    -0.473 OA
BRANCH  19  23
ATOM     20  C   UNL     1      34.034  -5.844 -24.263  0.00  0.00    -0.022 C 
ATOM     21  C   UNL     1      34.990  -6.682 -23.690  0.00  0.00    -0.001 C 
ATOM     22  C   UNL     1      32.895  -5.489 -23.540  0.00  0.00    -0.001 C 
ATOM     23  C   UNL     1      33.668  -6.809 -21.680  0.00  0.00    +0.139 C 
ATOM     24  C   UNL     1      34.806  -7.167 -22.396  0.00  0.00    +0.037 C 
ATOM     25  C   UNL     1      32.712  -5.972 -22.245  0.00  0.00    +0.037 C 
BRANCH  20  26
ATOM     26  C   UNL     1      34.235  -5.316 -25.671  0.00  0.00    +0.022 C 
ATOM     27  C   UNL     1      35.700  -5.439 -26.127  0.00  0.00    +0.004 C 
ATOM     28  C   UNL     1      33.287  -5.991 -26.677  0.00  0.00    +0.004 C 
ATOM     29  C   UNL     1      35.893  -4.897 -27.542  0.00  0.00    +0.000 C 
ATOM     30  C   UNL     1      33.489  -5.446 -28.090  0.00  0.00    +0.000 C 
ATOM     31  C   UNL     1      34.944  -5.563 -28.535  0.00  0.00    +0.000 C 
ENDBRANCH  20  26
ENDBRANCH  19  23
ENDBRANCH  18  19
ENDBRANCH   1  18
TORSDOF 7
ENDMDL
