MODEL 1
REMARK VINA RESULT:     -12.1      0.000      0.000
REMARK  Name = 124173720
REMARK  4 active torsions:
REMARK  status: ('A' for Active; 'I' for Inactive)
REMARK    1  A    between atoms: C_13  and  N_24
REMARK    2  A    between atoms: C_18  and  C_23
REMARK    3  A    between atoms: N_24  and  C_26
REMARK    4  A    between atoms: C_26  and  C_30
REMARK                            x       y       z     vdW  Elec       q    Type
REMARK                         _______ _______ _______ _____ _____    ______ ____
ROOT
ATOM      1  O   UNL     1      32.198 -22.628 -17.890  0.00  0.00    -0.473 OA
ATOM      2  N   UNL     1      34.013 -23.707 -15.713  0.00  0.00    -0.272 N 
ATOM      3  N   UNL     1      36.144 -23.254 -16.057  0.00  0.00    -0.374 NA
ATOM      4  C   UNL     1      36.022 -24.069 -14.967  0.00  0.00    +0.190 C 
ATOM      5  C   UNL     1      34.916 -23.038 -16.516  0.00  0.00    +0.188 C 
ATOM      6  C   UNL     1      32.569 -23.756 -15.815  0.00  0.00    +0.141 C 
ATOM      7  C   UNL     1      34.708 -24.368 -14.733  0.00  0.00    +0.169 C 
ATOM      8  C   UNL     1      34.625 -22.205 -17.701  0.00  0.00    +0.078 C 
ATOM      9  C   UNL     1      31.980 -22.536 -16.485  0.00  0.00    +0.227 C 
ATOM     10  C   UNL     1      33.368 -22.054 -18.309  0.00  0.00    +0.144 C 
ATOM     11  C   UNL     1      35.713 -21.532 -18.297  0.00  0.00    +0.008 C 
ATOM     12  C   UNL     1      33.227 -21.303 -19.490  0.00  0.00    +0.051 C 
ATOM     13  C   UNL     1      34.319 -20.656 -20.057  0.00  0.00    +0.048 C 
ATOM     14  C   UNL     1      35.565 -20.765 -19.456  0.00  0.00    +0.015 C 
ATOM     15  O   UNL     1      39.243 -24.938 -13.661  0.00  0.00    -0.432 OA
ATOM     16  O   UNL     1      38.872 -23.383 -15.300  0.00  0.00    -0.226 OA
ATOM     17  N   UNL     1      37.099 -24.508 -14.235  0.00  0.00    -0.194 N 
ATOM     18  C   UNL     1      37.032 -25.371 -13.076  0.00  0.00    +0.195 C 
ATOM     19  C   UNL     1      38.435 -25.945 -13.043  0.00  0.00    +0.236 C 
ATOM     20  C   UNL     1      38.436 -24.191 -14.490  0.00  0.00    +0.411 C 
ENDROOT
BRANCH  18  23
ATOM     21  F   UNL     1      35.615 -25.127 -11.230  0.00  0.00    -0.196 F 
ATOM     22  F   UNL     1      37.734 -24.725 -10.939  0.00  0.00    -0.196 F 
ATOM     23  C   UNL     1      36.709 -24.588 -11.805  0.00  0.00    +0.340 C 
ENDBRANCH  18  23
BRANCH  13  24
ATOM     24  N   UNL     1      34.162 -19.895 -21.233  0.00  0.00    -0.327 N 
ATOM     25  H   UNL     1      33.250 -19.696 -21.545  0.00  0.00    +0.147 HD
BRANCH  24  26
ATOM     26  C   UNL     1      35.268 -19.399 -21.993  0.00  0.00    +0.146 C 
ATOM     27  C   UNL     1      35.015 -19.639 -23.474  0.00  0.00    +0.031 C 
BRANCH  26  30
ATOM     28  O   UNL     1      35.403 -17.431 -20.580  0.00  0.00    -0.274 OA
ATOM     29  N   UNL     1      35.658 -17.172 -22.847  0.00  0.00    -0.327 N 
ATOM     30  C   UNL     1      35.444 -17.917 -21.708  0.00  0.00    +0.237 C 
ATOM     31  H   UNL     1      35.786 -16.198 -22.782  0.00  0.00    +0.145 HD
ATOM     32  H   UNL     1      35.684 -17.614 -23.727  0.00  0.00    +0.145 HD
ENDBRANCH  26  30
ENDBRANCH  24  26
ENDBRANCH  13  24
TORSDOF 4
ENDMDL
MODEL 2
REMARK VINA RESULT:     -11.2      3.895      6.070
REMARK  Name = 124173720
REMARK  4 active torsions:
REMARK  status: ('A' for Active; 'I' for Inactive)
REMARK    1  A    between atoms: C_13  and  N_24
REMARK    2  A    between atoms: C_18  and  C_23
REMARK    3  A    between atoms: N_24  and  C_26
REMARK    4  A    between atoms: C_26  and  C_30
REMARK                            x       y       z     vdW  Elec       q    Type
REMARK                         _______ _______ _______ _____ _____    ______ ____
ROOT
ATOM      1  O   UNL     1      32.514 -22.402 -17.191  0.00  0.00    -0.473 OA
ATOM      2  N   UNL     1      34.895 -23.382 -15.590  0.00  0.00    -0.272 N 
ATOM      3  N   UNL     1      34.366 -24.003 -13.541  0.00  0.00    -0.374 NA
ATOM      4  C   UNL     1      35.723 -24.049 -13.693  0.00  0.00    +0.190 C 
ATOM      5  C   UNL     1      33.861 -23.591 -14.698  0.00  0.00    +0.188 C 
ATOM      6  C   UNL     1      34.831 -22.945 -16.968  0.00  0.00    +0.141 C 
ATOM      7  C   UNL     1      36.079 -23.664 -14.957  0.00  0.00    +0.169 C 
ATOM      8  C   UNL     1      32.415 -23.404 -14.934  0.00  0.00    +0.078 C 
ATOM      9  C   UNL     1      33.526 -23.297 -17.643  0.00  0.00    +0.227 C 
ATOM     10  C   UNL     1      31.837 -22.842 -16.085  0.00  0.00    +0.144 C 
ATOM     11  C   UNL     1      31.538 -23.787 -13.896  0.00  0.00    +0.008 C 
ATOM     12  C   UNL     1      30.449 -22.631 -16.162  0.00  0.00    +0.051 C 
ATOM     13  C   UNL     1      29.612 -23.015 -15.120  0.00  0.00    +0.048 C 
ATOM     14  C   UNL     1      30.157 -23.600 -13.987  0.00  0.00    +0.015 C 
ATOM     15  O   UNL     1      37.320 -24.970 -10.621  0.00  0.00    -0.432 OA
ATOM     16  O   UNL     1      35.061 -25.018 -10.987  0.00  0.00    -0.226 OA
ATOM     17  N   UNL     1      36.579 -24.430 -12.688  0.00  0.00    -0.194 N 
ATOM     18  C   UNL     1      38.020 -24.496 -12.790  0.00  0.00    +0.195 C 
ATOM     19  C   UNL     1      38.432 -24.417 -11.334  0.00  0.00    +0.236 C 
ATOM     20  C   UNL     1      36.195 -24.820 -11.402  0.00  0.00    +0.411 C 
ENDROOT
BRANCH  18  23
ATOM     21  F   UNL     1      38.682 -25.577 -14.757  0.00  0.00    -0.196 F 
ATOM     22  F   UNL     1      39.668 -26.154 -12.904  0.00  0.00    -0.196 F 
ATOM     23  C   UNL     1      38.483 -25.798 -13.442  0.00  0.00    +0.340 C 
ENDBRANCH  18  23
BRANCH  13  24
ATOM     24  N   UNL     1      28.220 -22.810 -15.216  0.00  0.00    -0.327 N 
ATOM     25  H   UNL     1      27.676 -22.896 -14.401  0.00  0.00    +0.147 HD
BRANCH  24  26
ATOM     26  C   UNL     1      27.565 -22.485 -16.445  0.00  0.00    +0.146 C 
ATOM     27  C   UNL     1      27.471 -23.730 -17.316  0.00  0.00    +0.031 C 
BRANCH  26  30
ATOM     28  O   UNL     1      25.570 -22.164 -15.102  0.00  0.00    -0.274 OA
ATOM     29  N   UNL     1      25.687 -21.139 -17.154  0.00  0.00    -0.327 N 
ATOM     30  C   UNL     1      26.183 -21.932 -16.142  0.00  0.00    +0.237 C 
ATOM     31  H   UNL     1      24.797 -20.727 -17.066  0.00  0.00    +0.145 HD
ATOM     32  H   UNL     1      26.222 -20.984 -17.966  0.00  0.00    +0.145 HD
ENDBRANCH  26  30
ENDBRANCH  24  26
ENDBRANCH  13  24
TORSDOF 4
ENDMDL
MODEL 3
REMARK VINA RESULT:     -10.7      4.032      8.874
REMARK  Name = 124173720
REMARK  4 active torsions:
REMARK  status: ('A' for Active; 'I' for Inactive)
REMARK    1  A    between atoms: C_13  and  N_24
REMARK    2  A    between atoms: C_18  and  C_23
REMARK    3  A    between atoms: N_24  and  C_26
REMARK    4  A    between atoms: C_26  and  C_30
REMARK                            x       y       z     vdW  Elec       q    Type
REMARK                         _______ _______ _______ _____ _____    ______ ____
ROOT
ATOM      1  O   UNL     1      33.807 -23.201 -16.166  0.00  0.00    -0.473 OA
ATOM      2  N   UNL     1      33.987 -21.569 -18.716  0.00  0.00    -0.272 N 
ATOM      3  N   UNL     1      35.969 -20.651 -19.020  0.00  0.00    -0.374 NA
ATOM      4  C   UNL     1      35.111 -20.211 -19.988  0.00  0.00    +0.190 C 
ATOM      5  C   UNL     1      35.280 -21.477 -18.240  0.00  0.00    +0.188 C 
ATOM      6  C   UNL     1      32.884 -22.355 -18.203  0.00  0.00    +0.141 C 
ATOM      7  C   UNL     1      33.871 -20.765 -19.820  0.00  0.00    +0.169 C 
ATOM      8  C   UNL     1      35.859 -22.158 -17.064  0.00  0.00    +0.078 C 
ATOM      9  C   UNL     1      33.332 -23.588 -17.452  0.00  0.00    +0.227 C 
ATOM     10  C   UNL     1      35.148 -22.928 -16.129  0.00  0.00    +0.144 C 
ATOM     11  C   UNL     1      37.242 -21.988 -16.838  0.00  0.00    +0.008 C 
ATOM     12  C   UNL     1      35.791 -23.456 -14.996  0.00  0.00    +0.051 C 
ATOM     13  C   UNL     1      37.155 -23.267 -14.798  0.00  0.00    +0.048 C 
ATOM     14  C   UNL     1      37.884 -22.536 -15.724  0.00  0.00    +0.015 C 
ATOM     15  O   UNL     1      36.713 -17.817 -22.118  0.00  0.00    -0.432 OA
ATOM     16  O   UNL     1      37.776 -19.064 -20.520  0.00  0.00    -0.226 OA
ATOM     17  N   UNL     1      35.482 -19.330 -20.975  0.00  0.00    -0.194 N 
ATOM     18  C   UNL     1      34.619 -18.830 -22.022  0.00  0.00    +0.195 C 
ATOM     19  C   UNL     1      35.339 -17.559 -22.428  0.00  0.00    +0.236 C 
ATOM     20  C   UNL     1      36.755 -18.776 -21.130  0.00  0.00    +0.411 C 
ENDROOT
BRANCH  18  23
ATOM     21  F   UNL     1      33.967 -19.178 -24.243  0.00  0.00    -0.196 F 
ATOM     22  F   UNL     1      35.750 -20.209 -23.538  0.00  0.00    -0.196 F 
ATOM     23  C   UNL     1      34.509 -19.815 -23.185  0.00  0.00    +0.340 C 
ENDBRANCH  18  23
BRANCH  13  24
ATOM     24  N   UNL     1      37.790 -23.815 -13.665  0.00  0.00    -0.327 N 
ATOM     25  H   UNL     1      38.243 -23.204 -13.040  0.00  0.00    +0.147 HD
BRANCH  24  26
ATOM     26  C   UNL     1      37.807 -25.217 -13.384  0.00  0.00    +0.146 C 
ATOM     27  C   UNL     1      39.148 -25.803 -13.802  0.00  0.00    +0.031 C 
BRANCH  26  30
ATOM     28  O   UNL     1      37.083 -26.460 -11.430  0.00  0.00    -0.274 OA
ATOM     29  N   UNL     1      37.940 -24.351 -11.132  0.00  0.00    -0.327 N 
ATOM     30  C   UNL     1      37.563 -25.431 -11.900  0.00  0.00    +0.237 C 
ATOM     31  H   UNL     1      37.826 -24.378 -10.154  0.00  0.00    +0.145 HD
ATOM     32  H   UNL     1      38.322 -23.551 -11.560  0.00  0.00    +0.145 HD
ENDBRANCH  26  30
ENDBRANCH  24  26
ENDBRANCH  13  24
TORSDOF 4
ENDMDL
MODEL 4
REMARK VINA RESULT:      -9.2      3.440      5.507
REMARK  Name = 124173720
REMARK  4 active torsions:
REMARK  status: ('A' for Active; 'I' for Inactive)
REMARK    1  A    between atoms: C_13  and  N_24
REMARK    2  A    between atoms: C_18  and  C_23
REMARK    3  A    between atoms: N_24  and  C_26
REMARK    4  A    between atoms: C_26  and  C_30
REMARK                            x       y       z     vdW  Elec       q    Type
REMARK                         _______ _______ _______ _____ _____    ______ ____
ROOT
ATOM      1  O   UNL     1      35.890 -21.724 -17.725  0.00  0.00    -0.473 OA
ATOM      2  N   UNL     1      33.555 -22.937 -16.218  0.00  0.00    -0.272 N 
ATOM      3  N   UNL     1      31.601 -22.474 -17.128  0.00  0.00    -0.374 NA
ATOM      4  C   UNL     1      31.407 -23.134 -15.947  0.00  0.00    +0.190 C 
ATOM      5  C   UNL     1      32.913 -22.349 -17.290  0.00  0.00    +0.188 C 
ATOM      6  C   UNL     1      34.975 -23.057 -15.964  0.00  0.00    +0.141 C 
ATOM      7  C   UNL     1      32.606 -23.430 -15.359  0.00  0.00    +0.169 C 
ATOM      8  C   UNL     1      33.530 -21.679 -18.453  0.00  0.00    +0.078 C 
ATOM      9  C   UNL     1      35.806 -23.056 -17.227  0.00  0.00    +0.227 C 
ATOM     10  C   UNL     1      34.897 -21.398 -18.609  0.00  0.00    +0.144 C 
ATOM     11  C   UNL     1      32.664 -21.248 -19.482  0.00  0.00    +0.008 C 
ATOM     12  C   UNL     1      35.359 -20.673 -19.722  0.00  0.00    +0.051 C 
ATOM     13  C   UNL     1      34.480 -20.257 -20.716  0.00  0.00    +0.048 C 
ATOM     14  C   UNL     1      33.129 -20.551 -20.599  0.00  0.00    +0.015 C 
ATOM     15  O   UNL     1      27.914 -23.427 -15.210  0.00  0.00    -0.432 OA
ATOM     16  O   UNL     1      28.773 -22.662 -17.188  0.00  0.00    -0.226 OA
ATOM     17  N   UNL     1      30.161 -23.435 -15.452  0.00  0.00    -0.194 N 
ATOM     18  C   UNL     1      29.896 -24.127 -14.210  0.00  0.00    +0.195 C 
ATOM     19  C   UNL     1      28.473 -23.694 -13.919  0.00  0.00    +0.236 C 
ATOM     20  C   UNL     1      28.947 -23.123 -16.069  0.00  0.00    +0.411 C 
ENDROOT
BRANCH  18  23
ATOM     21  F   UNL     1      28.842 -26.205 -13.990  0.00  0.00    -0.196 F 
ATOM     22  F   UNL     1      30.187 -25.927 -15.678  0.00  0.00    -0.196 F 
ATOM     23  C   UNL     1      30.007 -25.642 -14.372  0.00  0.00    +0.340 C 
ENDBRANCH  18  23
BRANCH  13  24
ATOM     24  N   UNL     1      34.958 -19.544 -21.833  0.00  0.00    -0.327 N 
ATOM     25  H   UNL     1      34.867 -19.951 -22.725  0.00  0.00    +0.147 HD
BRANCH  24  26
ATOM     26  C   UNL     1      35.571 -18.255 -21.730  0.00  0.00    +0.146 C 
ATOM     27  C   UNL     1      37.082 -18.415 -21.660  0.00  0.00    +0.031 C 
BRANCH  26  30
ATOM     28  O   UNL     1      34.619 -17.873 -23.928  0.00  0.00    -0.274 OA
ATOM     29  N   UNL     1      35.488 -16.082 -22.784  0.00  0.00    -0.327 N 
ATOM     30  C   UNL     1      35.171 -17.415 -22.931  0.00  0.00    +0.237 C 
ATOM     31  H   UNL     1      35.276 -15.443 -23.503  0.00  0.00    +0.145 HD
ATOM     32  H   UNL     1      35.929 -15.768 -21.961  0.00  0.00    +0.145 HD
ENDBRANCH  26  30
ENDBRANCH  24  26
ENDBRANCH  13  24
TORSDOF 4
ENDMDL
MODEL 5
REMARK VINA RESULT:      -9.2     11.343     16.345
REMARK  Name = 124173720
REMARK  4 active torsions:
REMARK  status: ('A' for Active; 'I' for Inactive)
REMARK    1  A    between atoms: C_13  and  N_24
REMARK    2  A    between atoms: C_18  and  C_23
REMARK    3  A    between atoms: N_24  and  C_26
REMARK    4  A    between atoms: C_26  and  C_30
REMARK                            x       y       z     vdW  Elec       q    Type
REMARK                         _______ _______ _______ _____ _____    ______ ____
ROOT
ATOM      1  O   UNL     1      32.132 -11.141 -19.408  0.00  0.00    -0.473 OA
ATOM      2  N   UNL     1      31.715  -8.271 -20.296  0.00  0.00    -0.272 N 
ATOM      3  N   UNL     1      32.109  -7.963 -22.444  0.00  0.00    -0.374 NA
ATOM      4  C   UNL     1      31.865  -6.757 -21.849  0.00  0.00    +0.190 C 
ATOM      5  C   UNL     1      32.023  -8.887 -21.493  0.00  0.00    +0.188 C 
ATOM      6  C   UNL     1      31.510  -8.870 -18.994  0.00  0.00    +0.141 C 
ATOM      7  C   UNL     1      31.620  -6.920 -20.513  0.00  0.00    +0.169 C 
ATOM      8  C   UNL     1      32.233 -10.328 -21.739  0.00  0.00    +0.078 C 
ATOM      9  C   UNL     1      31.032 -10.302 -19.067  0.00  0.00    +0.227 C 
ATOM     10  C   UNL     1      32.290 -11.329 -20.754  0.00  0.00    +0.144 C 
ATOM     11  C   UNL     1      32.432 -10.731 -23.077  0.00  0.00    +0.008 C 
ATOM     12  C   UNL     1      32.585 -12.660 -21.099  0.00  0.00    +0.051 C 
ATOM     13  C   UNL     1      32.782 -13.025 -22.426  0.00  0.00    +0.048 C 
ATOM     14  C   UNL     1      32.700 -12.059 -23.419  0.00  0.00    +0.015 C 
ATOM     15  O   UNL     1      32.222  -4.079 -24.202  0.00  0.00    -0.432 OA
ATOM     16  O   UNL     1      32.247  -6.304 -24.739  0.00  0.00    -0.226 OA
ATOM     17  N   UNL     1      31.876  -5.566 -22.534  0.00  0.00    -0.194 N 
ATOM     18  C   UNL     1      31.628  -4.263 -21.959  0.00  0.00    +0.195 C 
ATOM     19  C   UNL     1      32.293  -3.352 -22.971  0.00  0.00    +0.236 C 
ATOM     20  C   UNL     1      32.128  -5.420 -23.901  0.00  0.00    +0.411 C 
ENDROOT
BRANCH  18  23
ATOM     21  F   UNL     1      29.566  -4.948 -21.091  0.00  0.00    -0.196 F 
ATOM     22  F   UNL     1      29.969  -2.811 -21.171  0.00  0.00    -0.196 F 
ATOM     23  C   UNL     1      30.133  -3.976 -21.833  0.00  0.00    +0.340 C 
ENDBRANCH  18  23
BRANCH  13  24
ATOM     24  N   UNL     1      33.063 -14.365 -22.760  0.00  0.00    -0.327 N 
ATOM     25  H   UNL     1      32.391 -15.052 -22.550  0.00  0.00    +0.147 HD
BRANCH  24  26
ATOM     26  C   UNL     1      34.283 -14.771 -23.388  0.00  0.00    +0.146 C 
ATOM     27  C   UNL     1      35.076 -15.653 -22.435  0.00  0.00    +0.031 C 
BRANCH  26  30
ATOM     28  O   UNL     1      34.533 -16.544 -25.025  0.00  0.00    -0.274 OA
ATOM     29  N   UNL     1      32.946 -14.926 -25.396  0.00  0.00    -0.327 N 
ATOM     30  C   UNL     1      33.958 -15.518 -24.671  0.00  0.00    +0.237 C 
ATOM     31  H   UNL     1      32.652 -15.324 -26.247  0.00  0.00    +0.145 HD
ATOM     32  H   UNL     1      32.517 -14.104 -25.064  0.00  0.00    +0.145 HD
ENDBRANCH  26  30
ENDBRANCH  24  26
ENDBRANCH  13  24
TORSDOF 4
ENDMDL
