MODEL 1
REMARK VINA RESULT:     -10.2      0.000      0.000
REMARK  Name = 54755438
REMARK  5 active torsions:
REMARK  status: ('A' for Active; 'I' for Inactive)
REMARK    1  A    between atoms: N_2  and  C_13
REMARK    2  A    between atoms: N_3  and  C_21
REMARK    3  A    between atoms: C_17  and  C_18
REMARK    4  A    between atoms: C_26  and  O_27
REMARK    5  A    between atoms: O_27  and  C_28
REMARK                            x       y       z     vdW  Elec       q    Type
REMARK                         _______ _______ _______ _____ _____    ______ ____
ROOT
ATOM      1  O   UNL     1      34.972 -14.519 -20.342  0.00  0.00    -0.252 OA
ATOM      2  N   UNL     1      35.087 -16.381 -21.785  0.00  0.00    -0.230 N 
ATOM      3  N   UNL     1      33.934 -14.557 -22.506  0.00  0.00    -0.231 N 
ATOM      4  N   UNL     1      34.760 -17.796 -23.765  0.00  0.00    -0.231 NA
ATOM      5  N   UNL     1      33.539 -16.710 -25.555  0.00  0.00    -0.232 NA
ATOM      6  C   UNL     1      34.584 -16.668 -23.063  0.00  0.00    +0.138 C 
ATOM      7  C   UNL     1      34.709 -15.065 -21.406  0.00  0.00    +0.316 C 
ATOM      8  C   UNL     1      33.892 -15.552 -23.507  0.00  0.00    +0.188 C 
ATOM      9  C   UNL     1      33.403 -15.605 -24.786  0.00  0.00    +0.125 C 
ATOM     10  C   UNL     1      34.206 -17.747 -24.993  0.00  0.00    +0.253 C 
ATOM     11  N   UNL     1      32.730 -14.490 -25.327  0.00  0.00    -0.345 N 
ATOM     12  H   UNL     1      32.378 -14.526 -26.246  0.00  0.00    +0.143 HD
ATOM     13  H   UNL     1      32.611 -13.676 -24.786  0.00  0.00    +0.143 HD
ENDROOT
BRANCH   2  16
ATOM     14  O   UNL     1      36.740 -21.720 -19.811  0.00  0.00    -0.260 OA
ATOM     15  N   UNL     1      36.078 -19.595 -20.456  0.00  0.00    -0.268 N 
ATOM     16  C   UNL     1      35.870 -17.314 -21.015  0.00  0.00    +0.104 C 
ATOM     17  C   UNL     1      37.033 -17.918 -21.800  0.00  0.00    +0.044 C 
ATOM     18  C   UNL     1      35.075 -18.541 -20.581  0.00  0.00    +0.115 C 
ATOM     19  C   UNL     1      37.358 -19.174 -21.006  0.00  0.00    +0.096 C 
ATOM     20  C   UNL     1      35.883 -20.847 -19.900  0.00  0.00    +0.292 C 
BRANCH  20  21
ATOM     21  C   UNL     1      34.563 -21.145 -19.392  0.00  0.00    -0.007 C 
ATOM     22  C   UNL     1      33.467 -21.392 -18.970  0.00  0.00    -0.081 C 
ATOM     23  C   UNL     1      32.132 -21.693 -18.455  0.00  0.00    +0.090 C 
ENDBRANCH  20  21
ENDBRANCH   2  16
BRANCH   3  24
ATOM     24  C   UNL     1      33.321 -13.283 -22.576  0.00  0.00    +0.056 C 
ATOM     25  C   UNL     1      32.091 -13.066 -21.954  0.00  0.00    +0.018 C 
ATOM     26  C   UNL     1      33.946 -12.244 -23.264  0.00  0.00    +0.018 C 
ATOM     27  C   UNL     1      31.486 -11.812 -22.022  0.00  0.00    +0.039 C 
ATOM     28  C   UNL     1      33.341 -10.989 -23.332  0.00  0.00    +0.039 C 
ATOM     29  C   UNL     1      32.111 -10.773 -22.711  0.00  0.00    +0.145 C 
BRANCH  29  30
ATOM     30  O   UNL     1      31.520  -9.548 -22.777  0.00  0.00    -0.453 OA
BRANCH  30  31
ATOM     31  C   UNL     1      31.996  -8.558 -21.935  0.00  0.00    +0.145 C 
ATOM     32  C   UNL     1      31.916  -8.719 -20.552  0.00  0.00    +0.037 C 
ATOM     33  C   UNL     1      32.556  -7.398 -22.470  0.00  0.00    +0.037 C 
ATOM     34  C   UNL     1      32.394  -7.721 -19.704  0.00  0.00    +0.003 C 
ATOM     35  C   UNL     1      33.036  -6.400 -21.622  0.00  0.00    +0.003 C 
ATOM     36  C   UNL     1      32.954  -6.561 -20.239  0.00  0.00    +0.000 C 
ENDBRANCH  30  31
ENDBRANCH  29  30
ENDBRANCH   3  24
TORSDOF 5
ENDMDL
MODEL 2
REMARK VINA RESULT:      -9.7      2.806      5.460
REMARK  Name = 54755438
REMARK  5 active torsions:
REMARK  status: ('A' for Active; 'I' for Inactive)
REMARK    1  A    between atoms: N_2  and  C_13
REMARK    2  A    between atoms: N_3  and  C_21
REMARK    3  A    between atoms: C_17  and  C_18
REMARK    4  A    between atoms: C_26  and  O_27
REMARK    5  A    between atoms: O_27  and  C_28
REMARK                            x       y       z     vdW  Elec       q    Type
REMARK                         _______ _______ _______ _____ _____    ______ ____
ROOT
ATOM      1  O   UNL     1      33.395 -10.521 -24.480  0.00  0.00    -0.252 OA
ATOM      2  N   UNL     1      33.300 -12.465 -23.150  0.00  0.00    -0.230 N 
ATOM      3  N   UNL     1      32.582 -10.516 -22.222  0.00  0.00    -0.231 N 
ATOM      4  N   UNL     1      32.883 -13.932 -21.225  0.00  0.00    -0.231 NA
ATOM      5  N   UNL     1      31.865 -12.806 -19.336  0.00  0.00    -0.232 NA
ATOM      6  C   UNL     1      32.888 -12.739 -21.837  0.00  0.00    +0.138 C 
ATOM      7  C   UNL     1      33.115 -11.085 -23.431  0.00  0.00    +0.316 C 
ATOM      8  C   UNL     1      32.439 -11.554 -21.276  0.00  0.00    +0.188 C 
ATOM      9  C   UNL     1      31.902 -11.637 -20.018  0.00  0.00    +0.125 C 
ATOM     10  C   UNL     1      32.367 -13.886 -19.981  0.00  0.00    +0.253 C 
ATOM     11  N   UNL     1      31.380 -10.483 -19.400  0.00  0.00    -0.345 N 
ATOM     12  H   UNL     1      30.994 -10.541 -18.496  0.00  0.00    +0.143 HD
ATOM     13  H   UNL     1      31.401  -9.619 -19.871  0.00  0.00    +0.143 HD
ENDROOT
BRANCH   2  16
ATOM     14  O   UNL     1      34.291 -17.970 -25.109  0.00  0.00    -0.260 OA
ATOM     15  N   UNL     1      34.035 -15.798 -24.346  0.00  0.00    -0.268 N 
ATOM     16  C   UNL     1      33.821 -13.469 -24.042  0.00  0.00    +0.104 C 
ATOM     17  C   UNL     1      32.807 -13.934 -25.086  0.00  0.00    +0.044 C 
ATOM     18  C   UNL     1      34.195 -14.764 -23.327  0.00  0.00    +0.115 C 
ATOM     19  C   UNL     1      33.372 -15.274 -25.530  0.00  0.00    +0.096 C 
ATOM     20  C   UNL     1      34.441 -17.116 -24.242  0.00  0.00    +0.292 C 
BRANCH  20  21
ATOM     21  C   UNL     1      35.085 -17.513 -23.010  0.00  0.00    -0.007 C 
ATOM     22  C   UNL     1      35.620 -17.843 -21.988  0.00  0.00    -0.081 C 
ATOM     23  C   UNL     1      36.273 -18.244 -20.742  0.00  0.00    +0.090 C 
ENDBRANCH  20  21
ENDBRANCH   2  16
BRANCH   3  24
ATOM     24  C   UNL     1      32.256  -9.154 -22.015  0.00  0.00    +0.056 C 
ATOM     25  C   UNL     1      31.134  -8.603 -22.636  0.00  0.00    +0.018 C 
ATOM     26  C   UNL     1      33.055  -8.362 -21.191  0.00  0.00    +0.018 C 
ATOM     27  C   UNL     1      30.813  -7.261 -22.433  0.00  0.00    +0.039 C 
ATOM     28  C   UNL     1      32.734  -7.020 -20.988  0.00  0.00    +0.039 C 
ATOM     29  C   UNL     1      31.613  -6.470 -21.608  0.00  0.00    +0.145 C 
BRANCH  29  30
ATOM     30  O   UNL     1      31.299  -5.160 -21.410  0.00  0.00    -0.453 OA
BRANCH  30  31
ATOM     31  C   UNL     1      31.640  -4.258 -22.404  0.00  0.00    +0.145 C 
ATOM     32  C   UNL     1      31.448  -2.891 -22.202  0.00  0.00    +0.037 C 
ATOM     33  C   UNL     1      32.178  -4.717 -23.606  0.00  0.00    +0.037 C 
ATOM     34  C   UNL     1      31.792  -1.983 -23.203  0.00  0.00    +0.003 C 
ATOM     35  C   UNL     1      32.523  -3.808 -24.607  0.00  0.00    +0.003 C 
ATOM     36  C   UNL     1      32.329  -2.442 -24.406  0.00  0.00    +0.000 C 
ENDBRANCH  30  31
ENDBRANCH  29  30
ENDBRANCH   3  24
TORSDOF 5
ENDMDL
MODEL 3
REMARK VINA RESULT:      -9.7      3.311     10.658
REMARK  Name = 54755438
REMARK  5 active torsions:
REMARK  status: ('A' for Active; 'I' for Inactive)
REMARK    1  A    between atoms: N_2  and  C_13
REMARK    2  A    between atoms: N_3  and  C_21
REMARK    3  A    between atoms: C_17  and  C_18
REMARK    4  A    between atoms: C_26  and  O_27
REMARK    5  A    between atoms: O_27  and  C_28
REMARK                            x       y       z     vdW  Elec       q    Type
REMARK                         _______ _______ _______ _____ _____    ______ ____
ROOT
ATOM      1  O   UNL     1      32.983 -10.156 -24.452  0.00  0.00    -0.252 OA
ATOM      2  N   UNL     1      32.085  -9.389 -22.411  0.00  0.00    -0.230 N 
ATOM      3  N   UNL     1      32.776 -11.554 -22.512  0.00  0.00    -0.231 N 
ATOM      4  N   UNL     1      31.336  -9.379 -20.073  0.00  0.00    -0.231 NA
ATOM      5  N   UNL     1      31.713 -11.474 -18.913  0.00  0.00    -0.232 NA
ATOM      6  C   UNL     1      31.850  -9.975 -21.158  0.00  0.00    +0.138 C 
ATOM      7  C   UNL     1      32.674 -10.345 -23.283  0.00  0.00    +0.316 C 
ATOM      8  C   UNL     1      32.282 -11.291 -21.216  0.00  0.00    +0.188 C 
ATOM      9  C   UNL     1      32.222 -12.006 -20.049  0.00  0.00    +0.125 C 
ATOM     10  C   UNL     1      31.292 -10.189 -18.996  0.00  0.00    +0.253 C 
ATOM     11  N   UNL     1      32.688 -13.336 -20.016  0.00  0.00    -0.345 N 
ATOM     12  H   UNL     1      32.646 -13.852 -19.178  0.00  0.00    +0.143 HD
ATOM     13  H   UNL     1      33.056 -13.750 -20.830  0.00  0.00    +0.143 HD
ENDROOT
BRANCH   2  16
ATOM     14  O   UNL     1      31.748  -4.541 -25.803  0.00  0.00    -0.260 OA
ATOM     15  N   UNL     1      31.946  -6.364 -24.387  0.00  0.00    -0.268 N 
ATOM     16  C   UNL     1      31.766  -8.018 -22.716  0.00  0.00    +0.104 C 
ATOM     17  C   UNL     1      30.412  -7.852 -23.406  0.00  0.00    +0.044 C 
ATOM     18  C   UNL     1      32.737  -7.389 -23.711  0.00  0.00    +0.115 C 
ATOM     19  C   UNL     1      30.534  -6.485 -24.060  0.00  0.00    +0.096 C 
ATOM     20  C   UNL     1      32.432  -5.390 -25.241  0.00  0.00    +0.292 C 
BRANCH  20  21
ATOM     21  C   UNL     1      33.856  -5.379 -25.489  0.00  0.00    -0.007 C 
ATOM     22  C   UNL     1      35.038  -5.370 -25.695  0.00  0.00    -0.081 C 
ATOM     23  C   UNL     1      36.479  -5.358 -25.947  0.00  0.00    +0.090 C 
ENDBRANCH  20  21
ENDBRANCH   2  16
BRANCH   3  24
ATOM     24  C   UNL     1      33.284 -12.794 -22.970  0.00  0.00    +0.056 C 
ATOM     25  C   UNL     1      32.695 -13.428 -24.064  0.00  0.00    +0.018 C 
ATOM     26  C   UNL     1      34.375 -13.382 -22.329  0.00  0.00    +0.018 C 
ATOM     27  C   UNL     1      33.194 -14.649 -24.516  0.00  0.00    +0.039 C 
ATOM     28  C   UNL     1      34.874 -14.603 -22.781  0.00  0.00    +0.039 C 
ATOM     29  C   UNL     1      34.285 -15.236 -23.874  0.00  0.00    +0.145 C 
BRANCH  29  30
ATOM     30  O   UNL     1      34.772 -16.428 -24.316  0.00  0.00    -0.453 OA
BRANCH  30  31
ATOM     31  C   UNL     1      34.934 -17.442 -23.388  0.00  0.00    +0.145 C 
ATOM     32  C   UNL     1      35.644 -17.204 -22.211  0.00  0.00    +0.037 C 
ATOM     33  C   UNL     1      34.387 -18.701 -23.629  0.00  0.00    +0.037 C 
ATOM     34  C   UNL     1      35.807 -18.225 -21.276  0.00  0.00    +0.003 C 
ATOM     35  C   UNL     1      34.549 -19.723 -22.693  0.00  0.00    +0.003 C 
ATOM     36  C   UNL     1      35.260 -19.485 -21.517  0.00  0.00    +0.000 C 
ENDBRANCH  30  31
ENDBRANCH  29  30
ENDBRANCH   3  24
TORSDOF 5
ENDMDL
MODEL 4
REMARK VINA RESULT:      -9.1      3.791     11.100
REMARK  Name = 54755438
REMARK  5 active torsions:
REMARK  status: ('A' for Active; 'I' for Inactive)
REMARK    1  A    between atoms: N_2  and  C_13
REMARK    2  A    between atoms: N_3  and  C_21
REMARK    3  A    between atoms: C_17  and  C_18
REMARK    4  A    between atoms: C_26  and  O_27
REMARK    5  A    between atoms: O_27  and  C_28
REMARK                            x       y       z     vdW  Elec       q    Type
REMARK                         _______ _______ _______ _____ _____    ______ ____
ROOT
ATOM      1  O   UNL     1      32.861  -8.606 -23.975  0.00  0.00    -0.252 OA
ATOM      2  N   UNL     1      32.180  -8.000 -21.800  0.00  0.00    -0.230 N 
ATOM      3  N   UNL     1      32.561 -10.205 -22.210  0.00  0.00    -0.231 N 
ATOM      4  N   UNL     1      31.556  -8.196 -19.433  0.00  0.00    -0.231 NA
ATOM      5  N   UNL     1      31.698 -10.454 -18.566  0.00  0.00    -0.232 NA
ATOM      6  C   UNL     1      31.928  -8.708 -20.615  0.00  0.00    +0.138 C 
ATOM      7  C   UNL     1      32.588  -8.903 -22.819  0.00  0.00    +0.316 C 
ATOM      8  C   UNL     1      32.172 -10.050 -20.862  0.00  0.00    +0.188 C 
ATOM      9  C   UNL     1      32.072 -10.896 -19.789  0.00  0.00    +0.125 C 
ATOM     10  C   UNL     1      31.454  -9.125 -18.463  0.00  0.00    +0.253 C 
ATOM     11  N   UNL     1      32.352 -12.269 -19.949  0.00  0.00    -0.345 N 
ATOM     12  H   UNL     1      32.280 -12.879 -19.179  0.00  0.00    +0.143 HD
ATOM     13  H   UNL     1      32.619 -12.618 -20.830  0.00  0.00    +0.143 HD
ENDROOT
BRANCH   2  16
ATOM     14  O   UNL     1      31.460  -2.846 -24.636  0.00  0.00    -0.260 OA
ATOM     15  N   UNL     1      31.851  -4.810 -23.471  0.00  0.00    -0.268 N 
ATOM     16  C   UNL     1      32.038  -6.571 -21.914  0.00  0.00    +0.104 C 
ATOM     17  C   UNL     1      30.582  -6.113 -21.980  0.00  0.00    +0.044 C 
ATOM     18  C   UNL     1      32.631  -6.016 -23.205  0.00  0.00    +0.115 C 
ATOM     19  C   UNL     1      30.694  -4.725 -22.593  0.00  0.00    +0.096 C 
ATOM     20  C   UNL     1      32.133  -3.849 -24.426  0.00  0.00    +0.292 C 
BRANCH  20  21
ATOM     21  C   UNL     1      33.311  -4.052 -25.239  0.00  0.00    -0.007 C 
ATOM     22  C   UNL     1      34.289  -4.220 -25.914  0.00  0.00    -0.081 C 
ATOM     23  C   UNL     1      35.481  -4.424 -26.736  0.00  0.00    +0.090 C 
ENDBRANCH  20  21
ENDBRANCH   2  16
BRANCH   3  24
ATOM     24  C   UNL     1      32.870 -11.430 -22.848  0.00  0.00    +0.056 C 
ATOM     25  C   UNL     1      32.003 -12.517 -22.729  0.00  0.00    +0.018 C 
ATOM     26  C   UNL     1      34.040 -11.551 -23.598  0.00  0.00    +0.018 C 
ATOM     27  C   UNL     1      32.307 -13.725 -23.357  0.00  0.00    +0.039 C 
ATOM     28  C   UNL     1      34.343 -12.759 -24.226  0.00  0.00    +0.039 C 
ATOM     29  C   UNL     1      33.478 -13.845 -24.106  0.00  0.00    +0.145 C 
BRANCH  29  30
ATOM     30  O   UNL     1      33.774 -15.024 -24.720  0.00  0.00    -0.453 OA
BRANCH  30  31
ATOM     31  C   UNL     1      34.312 -16.036 -23.945  0.00  0.00    +0.145 C 
ATOM     32  C   UNL     1      34.925 -15.734 -22.729  0.00  0.00    +0.037 C 
ATOM     33  C   UNL     1      34.239 -17.360 -24.379  0.00  0.00    +0.037 C 
ATOM     34  C   UNL     1      35.467 -16.755 -21.948  0.00  0.00    +0.003 C 
ATOM     35  C   UNL     1      34.781 -18.381 -23.597  0.00  0.00    +0.003 C 
ATOM     36  C   UNL     1      35.395 -18.078 -22.382  0.00  0.00    +0.000 C 
ENDBRANCH  30  31
ENDBRANCH  29  30
ENDBRANCH   3  24
TORSDOF 5
ENDMDL
MODEL 5
REMARK VINA RESULT:      -8.8      5.704     10.062
REMARK  Name = 54755438
REMARK  5 active torsions:
REMARK  status: ('A' for Active; 'I' for Inactive)
REMARK    1  A    between atoms: N_2  and  C_13
REMARK    2  A    between atoms: N_3  and  C_21
REMARK    3  A    between atoms: C_17  and  C_18
REMARK    4  A    between atoms: C_26  and  O_27
REMARK    5  A    between atoms: O_27  and  C_28
REMARK                            x       y       z     vdW  Elec       q    Type
REMARK                         _______ _______ _______ _____ _____    ______ ____
ROOT
ATOM      1  O   UNL     1      36.613 -23.106 -16.144  0.00  0.00    -0.252 OA
ATOM      2  N   UNL     1      34.497 -23.645 -15.255  0.00  0.00    -0.230 N 
ATOM      3  N   UNL     1      34.555 -22.404 -17.161  0.00  0.00    -0.231 N 
ATOM      4  N   UNL     1      32.058 -23.776 -15.008  0.00  0.00    -0.231 NA
ATOM      5  N   UNL     1      30.832 -22.709 -16.806  0.00  0.00    -0.232 NA
ATOM      6  C   UNL     1      33.173 -23.369 -15.630  0.00  0.00    +0.138 C 
ATOM      7  C   UNL     1      35.391 -23.065 -16.195  0.00  0.00    +0.316 C 
ATOM      8  C   UNL     1      33.209 -22.623 -16.798  0.00  0.00    +0.188 C 
ATOM      9  C   UNL     1      32.001 -22.335 -17.376  0.00  0.00    +0.125 C 
ATOM     10  C   UNL     1      30.930 -23.404 -15.647  0.00  0.00    +0.253 C 
ATOM     11  N   UNL     1      31.957 -21.621 -18.591  0.00  0.00    -0.345 N 
ATOM     12  H   UNL     1      31.089 -21.414 -19.008  0.00  0.00    +0.143 HD
ATOM     13  H   UNL     1      32.792 -21.331 -19.023  0.00  0.00    +0.143 HD
ENDROOT
BRANCH   2  16
ATOM     14  O   UNL     1      37.910 -25.329 -10.711  0.00  0.00    -0.260 OA
ATOM     15  N   UNL     1      36.571 -24.798 -12.527  0.00  0.00    -0.268 N 
ATOM     16  C   UNL     1      34.846 -24.412 -14.086  0.00  0.00    +0.104 C 
ATOM     17  C   UNL     1      34.505 -23.703 -12.776  0.00  0.00    +0.044 C 
ATOM     18  C   UNL     1      36.346 -24.658 -13.963  0.00  0.00    +0.115 C 
ATOM     19  C   UNL     1      35.390 -24.419 -11.767  0.00  0.00    +0.096 C 
ATOM     20  C   UNL     1      37.740 -25.225 -11.921  0.00  0.00    +0.292 C 
BRANCH  20  21
ATOM     21  C   UNL     1      38.845 -25.568 -12.788  0.00  0.00    -0.007 C 
ATOM     22  C   UNL     1      39.763 -25.853 -13.507  0.00  0.00    -0.081 C 
ATOM     23  C   UNL     1      40.881 -26.200 -14.382  0.00  0.00    +0.090 C 
ENDBRANCH  20  21
ENDBRANCH   2  16
BRANCH   3  24
ATOM     24  C   UNL     1      35.002 -21.663 -18.281  0.00  0.00    +0.056 C 
ATOM     25  C   UNL     1      36.346 -21.301 -18.387  0.00  0.00    +0.018 C 
ATOM     26  C   UNL     1      34.102 -21.295 -19.280  0.00  0.00    +0.018 C 
ATOM     27  C   UNL     1      36.787 -20.570 -19.490  0.00  0.00    +0.039 C 
ATOM     28  C   UNL     1      34.543 -20.565 -20.383  0.00  0.00    +0.039 C 
ATOM     29  C   UNL     1      35.885 -20.203 -20.488  0.00  0.00    +0.145 C 
BRANCH  29  30
ATOM     30  O   UNL     1      36.317 -19.490 -21.565  0.00  0.00    -0.453 OA
BRANCH  30  31
ATOM     31  C   UNL     1      35.754 -18.243 -21.780  0.00  0.00    +0.145 C 
ATOM     32  C   UNL     1      35.548 -17.376 -20.707  0.00  0.00    +0.037 C 
ATOM     33  C   UNL     1      35.395 -17.854 -23.070  0.00  0.00    +0.037 C 
ATOM     34  C   UNL     1      34.981 -16.121 -20.924  0.00  0.00    +0.003 C 
ATOM     35  C   UNL     1      34.828 -16.598 -23.287  0.00  0.00    +0.003 C 
ATOM     36  C   UNL     1      34.621 -15.732 -22.214  0.00  0.00    +0.000 C 
ENDBRANCH  30  31
ENDBRANCH  29  30
ENDBRANCH   3  24
TORSDOF 5
ENDMDL
MODEL 6
REMARK VINA RESULT:      -8.8      1.736      9.842
REMARK  Name = 54755438
REMARK  5 active torsions:
REMARK  status: ('A' for Active; 'I' for Inactive)
REMARK    1  A    between atoms: N_2  and  C_13
REMARK    2  A    between atoms: N_3  and  C_21
REMARK    3  A    between atoms: C_17  and  C_18
REMARK    4  A    between atoms: C_26  and  O_27
REMARK    5  A    between atoms: O_27  and  C_28
REMARK                            x       y       z     vdW  Elec       q    Type
REMARK                         _______ _______ _______ _____ _____    ______ ____
ROOT
ATOM      1  O   UNL     1      33.799 -15.034 -19.570  0.00  0.00    -0.252 OA
ATOM      2  N   UNL     1      33.357 -13.961 -21.623  0.00  0.00    -0.230 N 
ATOM      3  N   UNL     1      34.293 -16.034 -21.695  0.00  0.00    -0.231 N 
ATOM      4  N   UNL     1      33.214 -13.568 -24.043  0.00  0.00    -0.231 NA
ATOM      5  N   UNL     1      33.967 -15.439 -25.386  0.00  0.00    -0.232 NA
ATOM      6  C   UNL     1      33.544 -14.303 -22.971  0.00  0.00    +0.138 C 
ATOM      7  C   UNL     1      33.805 -15.025 -20.794  0.00  0.00    +0.316 C 
ATOM      8  C   UNL     1      34.104 -15.570 -23.015  0.00  0.00    +0.188 C 
ATOM      9  C   UNL     1      34.274 -16.120 -24.258  0.00  0.00    +0.125 C 
ATOM     10  C   UNL     1      33.460 -14.195 -25.210  0.00  0.00    +0.253 C 
ATOM     11  N   UNL     1      34.793 -17.425 -24.383  0.00  0.00    -0.345 N 
ATOM     12  H   UNL     1      34.916 -17.823 -25.276  0.00  0.00    +0.143 HD
ATOM     13  H   UNL     1      35.031 -17.940 -23.578  0.00  0.00    +0.143 HD
ENDROOT
BRANCH   2  16
ATOM     14  O   UNL     1      31.256  -8.461 -22.302  0.00  0.00    -0.260 OA
ATOM     15  N   UNL     1      32.162 -10.564 -21.946  0.00  0.00    -0.268 N 
ATOM     16  C   UNL     1      32.786 -12.710 -21.195  0.00  0.00    +0.104 C 
ATOM     17  C   UNL     1      31.267 -12.655 -21.351  0.00  0.00    +0.044 C 
ATOM     18  C   UNL     1      33.259 -11.524 -22.029  0.00  0.00    +0.115 C 
ATOM     19  C   UNL     1      30.982 -11.161 -21.340  0.00  0.00    +0.096 C 
ATOM     20  C   UNL     1      32.193  -9.250 -22.377  0.00  0.00    +0.292 C 
BRANCH  20  21
ATOM     21  C   UNL     1      33.425  -8.777 -22.967  0.00  0.00    -0.007 C 
ATOM     22  C   UNL     1      34.449  -8.384 -23.455  0.00  0.00    -0.081 C 
ATOM     23  C   UNL     1      35.696  -7.906 -24.050  0.00  0.00    +0.090 C 
ENDBRANCH  20  21
ENDBRANCH   2  16
BRANCH   3  24
ATOM     24  C   UNL     1      34.864 -17.276 -21.326  0.00  0.00    +0.056 C 
ATOM     25  C   UNL     1      34.039 -18.343 -20.968  0.00  0.00    +0.018 C 
ATOM     26  C   UNL     1      36.249 -17.433 -21.320  0.00  0.00    +0.018 C 
ATOM     27  C   UNL     1      34.600 -19.567 -20.603  0.00  0.00    +0.039 C 
ATOM     28  C   UNL     1      36.810 -18.657 -20.956  0.00  0.00    +0.039 C 
ATOM     29  C   UNL     1      35.987 -19.723 -20.598  0.00  0.00    +0.145 C 
BRANCH  29  30
ATOM     30  O   UNL     1      36.534 -20.918 -20.242  0.00  0.00    -0.453 OA
BRANCH  30  31
ATOM     31  C   UNL     1      36.061 -21.527 -19.092  0.00  0.00    +0.145 C 
ATOM     32  C   UNL     1      36.813 -21.480 -17.918  0.00  0.00    +0.037 C 
ATOM     33  C   UNL     1      34.832 -22.185 -19.107  0.00  0.00    +0.037 C 
ATOM     34  C   UNL     1      36.337 -22.094 -16.760  0.00  0.00    +0.003 C 
ATOM     35  C   UNL     1      34.355 -22.798 -17.948  0.00  0.00    +0.003 C 
ATOM     36  C   UNL     1      35.107 -22.753 -16.775  0.00  0.00    +0.000 C 
ENDBRANCH  30  31
ENDBRANCH  29  30
ENDBRANCH   3  24
TORSDOF 5
ENDMDL
MODEL 7
REMARK VINA RESULT:      -8.7      4.417      7.887
REMARK  Name = 54755438
REMARK  5 active torsions:
REMARK  status: ('A' for Active; 'I' for Inactive)
REMARK    1  A    between atoms: N_2  and  C_13
REMARK    2  A    between atoms: N_3  and  C_21
REMARK    3  A    between atoms: C_17  and  C_18
REMARK    4  A    between atoms: C_26  and  O_27
REMARK    5  A    between atoms: O_27  and  C_28
REMARK                            x       y       z     vdW  Elec       q    Type
REMARK                         _______ _______ _______ _____ _____    ______ ____
ROOT
ATOM      1  O   UNL     1      32.306 -21.269 -19.882  0.00  0.00    -0.252 OA
ATOM      2  N   UNL     1      33.754 -22.090 -18.212  0.00  0.00    -0.230 N 
ATOM      3  N   UNL     1      34.617 -20.638 -19.736  0.00  0.00    -0.231 N 
ATOM      4  N   UNL     1      35.790 -22.441 -16.886  0.00  0.00    -0.231 NA
ATOM      5  N   UNL     1      37.683 -21.122 -17.626  0.00  0.00    -0.232 NA
ATOM      6  C   UNL     1      35.110 -21.899 -17.905  0.00  0.00    +0.138 C 
ATOM      7  C   UNL     1      33.406 -21.310 -19.348  0.00  0.00    +0.316 C 
ATOM      8  C   UNL     1      35.632 -21.005 -18.827  0.00  0.00    +0.188 C 
ATOM      9  C   UNL     1      36.932 -20.616 -18.632  0.00  0.00    +0.125 C 
ATOM     10  C   UNL     1      37.067 -22.014 -16.815  0.00  0.00    +0.253 C 
ATOM     11  N   UNL     1      37.519 -19.672 -19.499  0.00  0.00    -0.345 N 
ATOM     12  H   UNL     1      38.453 -19.391 -19.360  0.00  0.00    +0.143 HD
ATOM     13  H   UNL     1      36.997 -19.293 -20.242  0.00  0.00    +0.143 HD
ENDROOT
BRANCH   2  16
ATOM     14  O   UNL     1      31.105 -24.172 -13.336  0.00  0.00    -0.260 OA
ATOM     15  N   UNL     1      32.184 -23.482 -15.267  0.00  0.00    -0.268 N 
ATOM     16  C   UNL     1      32.885 -22.955 -17.456  0.00  0.00    +0.104 C 
ATOM     17  C   UNL     1      31.499 -22.358 -17.216  0.00  0.00    +0.044 C 
ATOM     18  C   UNL     1      33.394 -23.220 -16.042  0.00  0.00    +0.115 C 
ATOM     19  C   UNL     1      30.988 -23.162 -16.031  0.00  0.00    +0.096 C 
ATOM     20  C   UNL     1      32.134 -23.965 -13.971  0.00  0.00    +0.292 C 
BRANCH  20  21
ATOM     21  C   UNL     1      33.394 -24.240 -13.319  0.00  0.00    -0.007 C 
ATOM     22  C   UNL     1      34.441 -24.467 -12.779  0.00  0.00    -0.081 C 
ATOM     23  C   UNL     1      35.717 -24.744 -12.120  0.00  0.00    +0.090 C 
ENDBRANCH  20  21
ENDBRANCH   2  16
BRANCH   3  24
ATOM     24  C   UNL     1      34.767 -19.762 -20.838  0.00  0.00    +0.056 C 
ATOM     25  C   UNL     1      35.063 -18.415 -20.623  0.00  0.00    +0.018 C 
ATOM     26  C   UNL     1      34.620 -20.244 -22.139  0.00  0.00    +0.018 C 
ATOM     27  C   UNL     1      35.211 -17.551 -21.708  0.00  0.00    +0.039 C 
ATOM     28  C   UNL     1      34.768 -19.380 -23.223  0.00  0.00    +0.039 C 
ATOM     29  C   UNL     1      35.063 -18.034 -23.008  0.00  0.00    +0.145 C 
BRANCH  29  30
ATOM     30  O   UNL     1      35.208 -17.191 -24.067  0.00  0.00    -0.453 OA
BRANCH  30  31
ATOM     31  C   UNL     1      34.582 -15.958 -23.998  0.00  0.00    +0.145 C 
ATOM     32  C   UNL     1      34.885 -15.078 -22.959  0.00  0.00    +0.037 C 
ATOM     33  C   UNL     1      33.649 -15.595 -24.969  0.00  0.00    +0.037 C 
ATOM     34  C   UNL     1      34.254 -13.836 -22.890  0.00  0.00    +0.003 C 
ATOM     35  C   UNL     1      33.019 -14.352 -24.900  0.00  0.00    +0.003 C 
ATOM     36  C   UNL     1      33.321 -13.473 -23.860  0.00  0.00    +0.000 C 
ENDBRANCH  30  31
ENDBRANCH  29  30
ENDBRANCH   3  24
TORSDOF 5
ENDMDL
MODEL 8
REMARK VINA RESULT:      -8.6      5.884      9.845
REMARK  Name = 54755438
REMARK  5 active torsions:
REMARK  status: ('A' for Active; 'I' for Inactive)
REMARK    1  A    between atoms: N_2  and  C_13
REMARK    2  A    between atoms: N_3  and  C_21
REMARK    3  A    between atoms: C_17  and  C_18
REMARK    4  A    between atoms: C_26  and  O_27
REMARK    5  A    between atoms: O_27  and  C_28
REMARK                            x       y       z     vdW  Elec       q    Type
REMARK                         _______ _______ _______ _____ _____    ______ ____
ROOT
ATOM      1  O   UNL     1      31.964 -22.335 -17.578  0.00  0.00    -0.252 OA
ATOM      2  N   UNL     1      33.352 -22.955 -15.775  0.00  0.00    -0.230 N 
ATOM      3  N   UNL     1      34.345 -22.031 -17.601  0.00  0.00    -0.231 N 
ATOM      4  N   UNL     1      35.372 -23.286 -14.419  0.00  0.00    -0.231 NA
ATOM      5  N   UNL     1      37.398 -22.461 -15.462  0.00  0.00    -0.232 NA
ATOM      6  C   UNL     1      34.732 -22.898 -15.531  0.00  0.00    +0.138 C 
ATOM      7  C   UNL     1      33.069 -22.413 -17.058  0.00  0.00    +0.316 C 
ATOM      8  C   UNL     1      35.336 -22.324 -16.640  0.00  0.00    +0.188 C 
ATOM      9  C   UNL     1      36.684 -22.094 -16.551  0.00  0.00    +0.125 C 
ATOM     10  C   UNL     1      36.698 -23.045 -14.460  0.00  0.00    +0.253 C 
ATOM     11  N   UNL     1      37.361 -21.470 -17.618  0.00  0.00    -0.345 N 
ATOM     12  H   UNL     1      38.330 -21.303 -17.556  0.00  0.00    +0.143 HD
ATOM     13  H   UNL     1      36.866 -21.199 -18.425  0.00  0.00    +0.143 HD
ENDROOT
BRANCH   2  16
ATOM     14  O   UNL     1      28.327 -25.588 -14.058  0.00  0.00    -0.260 OA
ATOM     15  N   UNL     1      30.261 -24.457 -14.649  0.00  0.00    -0.268 N 
ATOM     16  C   UNL     1      32.403 -23.488 -14.831  0.00  0.00    +0.104 C 
ATOM     17  C   UNL     1      32.551 -24.993 -14.610  0.00  0.00    +0.044 C 
ATOM     18  C   UNL     1      30.958 -23.350 -15.299  0.00  0.00    +0.115 C 
ATOM     19  C   UNL     1      31.199 -25.381 -14.031  0.00  0.00    +0.096 C 
ATOM     20  C   UNL     1      28.891 -24.647 -14.606  0.00  0.00    +0.292 C 
BRANCH  20  21
ATOM     21  C   UNL     1      28.067 -23.658 -15.263  0.00  0.00    -0.007 C 
ATOM     22  C   UNL     1      27.381 -22.838 -15.809  0.00  0.00    -0.081 C 
ATOM     23  C   UNL     1      26.546 -21.838 -16.474  0.00  0.00    +0.090 C 
ENDBRANCH  20  21
ENDBRANCH   2  16
BRANCH   3  24
ATOM     24  C   UNL     1      34.570 -21.462 -18.878  0.00  0.00    +0.056 C 
ATOM     25  C   UNL     1      33.566 -20.713 -19.494  0.00  0.00    +0.018 C 
ATOM     26  C   UNL     1      35.794 -21.647 -19.519  0.00  0.00    +0.018 C 
ATOM     27  C   UNL     1      33.787 -20.151 -20.751  0.00  0.00    +0.039 C 
ATOM     28  C   UNL     1      36.015 -21.085 -20.777  0.00  0.00    +0.039 C 
ATOM     29  C   UNL     1      35.012 -20.338 -21.393  0.00  0.00    +0.145 C 
BRANCH  29  30
ATOM     30  O   UNL     1      35.227 -19.789 -22.620  0.00  0.00    -0.453 OA
BRANCH  30  31
ATOM     31  C   UNL     1      35.103 -18.416 -22.742  0.00  0.00    +0.145 C 
ATOM     32  C   UNL     1      35.448 -17.586 -21.675  0.00  0.00    +0.037 C 
ATOM     33  C   UNL     1      34.634 -17.861 -23.932  0.00  0.00    +0.037 C 
ATOM     34  C   UNL     1      35.323 -16.202 -21.798  0.00  0.00    +0.003 C 
ATOM     35  C   UNL     1      34.510 -16.477 -24.056  0.00  0.00    +0.003 C 
ATOM     36  C   UNL     1      34.854 -15.648 -22.989  0.00  0.00    +0.000 C 
ENDBRANCH  30  31
ENDBRANCH  29  30
ENDBRANCH   3  24
TORSDOF 5
ENDMDL
MODEL 9
REMARK VINA RESULT:      -8.4      7.583     11.305
REMARK  Name = 54755438
REMARK  5 active torsions:
REMARK  status: ('A' for Active; 'I' for Inactive)
REMARK    1  A    between atoms: N_2  and  C_13
REMARK    2  A    between atoms: N_3  and  C_21
REMARK    3  A    between atoms: C_17  and  C_18
REMARK    4  A    between atoms: C_26  and  O_27
REMARK    5  A    between atoms: O_27  and  C_28
REMARK                            x       y       z     vdW  Elec       q    Type
REMARK                         _______ _______ _______ _____ _____    ______ ____
ROOT
ATOM      1  O   UNL     1      35.592 -23.454 -15.531  0.00  0.00    -0.252 OA
ATOM      2  N   UNL     1      33.872 -24.286 -14.148  0.00  0.00    -0.230 N 
ATOM      3  N   UNL     1      33.266 -23.284 -16.099  0.00  0.00    -0.231 N 
ATOM      4  N   UNL     1      31.623 -24.857 -13.345  0.00  0.00    -0.231 NA
ATOM      5  N   UNL     1      29.851 -24.261 -14.887  0.00  0.00    -0.232 NA
ATOM      6  C   UNL     1      32.472 -24.316 -14.231  0.00  0.00    +0.138 C 
ATOM      7  C   UNL     1      34.406 -23.656 -15.305  0.00  0.00    +0.316 C 
ATOM      8  C   UNL     1      32.104 -23.717 -15.425  0.00  0.00    +0.188 C 
ATOM      9  C   UNL     1      30.768 -23.736 -15.732  0.00  0.00    +0.125 C 
ATOM     10  C   UNL     1      30.335 -24.785 -13.735  0.00  0.00    +0.253 C 
ATOM     11  N   UNL     1      30.321 -23.188 -16.952  0.00  0.00    -0.345 N 
ATOM     12  H   UNL     1      29.361 -23.201 -17.174  0.00  0.00    +0.143 HD
ATOM     13  H   UNL     1      30.967 -22.794 -17.581  0.00  0.00    +0.143 HD
ENDROOT
BRANCH   2  16
ATOM     14  O   UNL     1      38.536 -24.919 -10.546  0.00  0.00    -0.260 OA
ATOM     15  N   UNL     1      36.717 -24.803 -11.976  0.00  0.00    -0.268 N 
ATOM     16  C   UNL     1      34.612 -24.832 -13.039  0.00  0.00    +0.104 C 
ATOM     17  C   UNL     1      34.524 -23.976 -11.776  0.00  0.00    +0.044 C 
ATOM     18  C   UNL     1      36.113 -24.901 -13.303  0.00  0.00    +0.115 C 
ATOM     19  C   UNL     1      35.729 -24.441 -10.972  0.00  0.00    +0.096 C 
ATOM     20  C   UNL     1      38.049 -25.013 -11.668  0.00  0.00    +0.292 C 
BRANCH  20  21
ATOM     21  C   UNL     1      38.932 -25.364 -12.758  0.00  0.00    -0.007 C 
ATOM     22  C   UNL     1      39.664 -25.656 -13.663  0.00  0.00    -0.081 C 
ATOM     23  C   UNL     1      40.556 -26.012 -14.765  0.00  0.00    +0.090 C 
ENDBRANCH  20  21
ENDBRANCH   2  16
BRANCH   3  24
ATOM     24  C   UNL     1      33.301 -22.604 -17.340  0.00  0.00    +0.056 C 
ATOM     25  C   UNL     1      34.305 -22.893 -18.265  0.00  0.00    +0.018 C 
ATOM     26  C   UNL     1      32.333 -21.647 -17.639  0.00  0.00    +0.018 C 
ATOM     27  C   UNL     1      34.341 -22.223 -19.488  0.00  0.00    +0.039 C 
ATOM     28  C   UNL     1      32.369 -20.977 -18.862  0.00  0.00    +0.039 C 
ATOM     29  C   UNL     1      33.372 -21.265 -19.786  0.00  0.00    +0.145 C 
BRANCH  29  30
ATOM     30  O   UNL     1      33.407 -20.612 -20.980  0.00  0.00    -0.453 OA
BRANCH  30  31
ATOM     31  C   UNL     1      34.533 -19.861 -21.271  0.00  0.00    +0.145 C 
ATOM     32  C   UNL     1      35.612 -19.850 -20.387  0.00  0.00    +0.037 C 
ATOM     33  C   UNL     1      34.589 -19.116 -22.448  0.00  0.00    +0.037 C 
ATOM     34  C   UNL     1      36.746 -19.092 -20.680  0.00  0.00    +0.003 C 
ATOM     35  C   UNL     1      35.724 -18.359 -22.742  0.00  0.00    +0.003 C 
ATOM     36  C   UNL     1      36.802 -18.347 -21.857  0.00  0.00    +0.000 C 
ENDBRANCH  30  31
ENDBRANCH  29  30
ENDBRANCH   3  24
TORSDOF 5
ENDMDL
