MODEL 1
REMARK VINA RESULT:     -11.1      0.000      0.000
REMARK  Name = 1540
REMARK  4 active torsions:
REMARK  status: ('A' for Active; 'I' for Inactive)
REMARK    1  A    between atoms: N_5  and  C_14
REMARK    2  A    between atoms: C_6  and  O_20
REMARK    3  A    between atoms: O_20  and  C_21
REMARK    4  A    between atoms: C_21  and  C_22
REMARK                            x       y       z     vdW  Elec       q    Type
REMARK                         _______ _______ _______ _____ _____    ______ ____
ROOT
ATOM      1  N   UNL     1      33.762 -23.661 -15.249  0.00  0.00    -0.293 NA
ATOM      2  N   UNL     1      37.438 -23.754 -15.257  0.00  0.00    -0.266 NA
ATOM      3  N   UNL     1      34.739 -24.650 -13.244  0.00  0.00    -0.316 NA
ATOM      4  N   UNL     1      37.170 -24.706 -13.260  0.00  0.00    -0.296 N 
ATOM      5  N   UNL     1      32.421 -24.464 -13.504  0.00  0.00    -0.238 N 
ATOM      6  C   UNL     1      34.981 -23.435 -15.784  0.00  0.00    +0.288 C 
ATOM      7  C   UNL     1      36.089 -23.816 -15.054  0.00  0.00    +0.215 C 
ATOM      8  C   UNL     1      35.947 -24.411 -13.808  0.00  0.00    +0.196 C 
ATOM      9  C   UNL     1      33.716 -24.246 -14.028  0.00  0.00    +0.207 C 
ATOM     10  C   UNL     1      38.043 -24.299 -14.155  0.00  0.00    +0.164 C 
ATOM     11  H   UNL     1      37.893 -23.385 -16.049  0.00  0.00    +0.126 HD
ATOM     12  H   UNL     1      37.352 -25.130 -12.390  0.00  0.00    +0.150 HD
ATOM     13  H   UNL     1      32.419 -24.890 -12.617  0.00  0.00    +0.166 HD
ENDROOT
BRANCH   5  14
ATOM     14  C   UNL     1      31.136 -24.191 -14.003  0.00  0.00    +0.058 C 
ATOM     15  C   UNL     1      30.243 -25.236 -14.253  0.00  0.00    +0.015 C 
ATOM     16  C   UNL     1      30.744 -22.872 -14.253  0.00  0.00    +0.015 C 
ATOM     17  C   UNL     1      28.968 -24.965 -14.749  0.00  0.00    +0.001 C 
ATOM     18  C   UNL     1      29.469 -22.602 -14.748  0.00  0.00    +0.001 C 
ATOM     19  C   UNL     1      28.581 -23.647 -14.997  0.00  0.00    +0.000 C 
ENDBRANCH   5  14
BRANCH   6  20
ATOM     20  O   UNL     1      35.063 -22.844 -17.021  0.00  0.00    -0.453 OA
BRANCH  20  21
ATOM     21  C   UNL     1      33.883 -22.820 -17.802  0.00  0.00    +0.208 C 
BRANCH  21  22
ATOM     22  C   UNL     1      34.174 -22.063 -19.096  0.00  0.00    +0.044 C 
ATOM     23  C   UNL     1      33.096 -21.003 -19.359  0.00  0.00    +0.004 C 
ATOM     24  C   UNL     1      35.569 -21.425 -19.049  0.00  0.00    +0.004 C 
ATOM     25  C   UNL     1      33.393 -20.197 -20.620  0.00  0.00    +0.000 C 
ATOM     26  C   UNL     1      35.862 -20.617 -20.310  0.00  0.00    +0.000 C 
ATOM     27  C   UNL     1      34.783 -19.570 -20.572  0.00  0.00    +0.000 C 
ENDBRANCH  21  22
ENDBRANCH  20  21
ENDBRANCH   6  20
TORSDOF 4
ENDMDL
MODEL 2
REMARK VINA RESULT:     -10.8      1.963      6.670
REMARK  Name = 1540
REMARK  4 active torsions:
REMARK  status: ('A' for Active; 'I' for Inactive)
REMARK    1  A    between atoms: N_5  and  C_14
REMARK    2  A    between atoms: C_6  and  O_20
REMARK    3  A    between atoms: O_20  and  C_21
REMARK    4  A    between atoms: C_21  and  C_22
REMARK                            x       y       z     vdW  Elec       q    Type
REMARK                         _______ _______ _______ _____ _____    ______ ____
ROOT
ATOM      1  N   UNL     1      33.859 -22.756 -16.108  0.00  0.00    -0.293 NA
ATOM      2  N   UNL     1      32.668 -24.498 -13.096  0.00  0.00    -0.266 NA
ATOM      3  N   UNL     1      31.564 -23.569 -16.268  0.00  0.00    -0.316 NA
ATOM      4  N   UNL     1      30.787 -24.719 -14.271  0.00  0.00    -0.296 N 
ATOM      5  N   UNL     1      32.577 -22.425 -18.039  0.00  0.00    -0.238 N 
ATOM      6  C   UNL     1      33.990 -23.241 -14.854  0.00  0.00    +0.288 C 
ATOM      7  C   UNL     1      32.909 -23.893 -14.296  0.00  0.00    +0.215 C 
ATOM      8  C   UNL     1      31.726 -24.043 -15.009  0.00  0.00    +0.196 C 
ATOM      9  C   UNL     1      32.671 -22.947 -16.729  0.00  0.00    +0.207 C 
ATOM     10  C   UNL     1      31.385 -24.977 -13.128  0.00  0.00    +0.164 C 
ATOM     11  H   UNL     1      33.301 -24.575 -12.345  0.00  0.00    +0.126 HD
ATOM     12  H   UNL     1      29.870 -24.957 -14.538  0.00  0.00    +0.150 HD
ATOM     13  H   UNL     1      31.703 -22.578 -18.466  0.00  0.00    +0.166 HD
ENDROOT
BRANCH   5  14
ATOM     14  C   UNL     1      33.488 -21.729 -18.853  0.00  0.00    +0.058 C 
ATOM     15  C   UNL     1      34.834 -22.102 -18.876  0.00  0.00    +0.015 C 
ATOM     16  C   UNL     1      33.052 -20.661 -19.642  0.00  0.00    +0.015 C 
ATOM     17  C   UNL     1      35.739 -21.411 -19.683  0.00  0.00    +0.001 C 
ATOM     18  C   UNL     1      33.957 -19.971 -20.449  0.00  0.00    +0.001 C 
ATOM     19  C   UNL     1      35.300 -20.346 -20.469  0.00  0.00    +0.000 C 
ENDBRANCH   5  14
BRANCH   6  20
ATOM     20  O   UNL     1      35.182 -23.065 -14.195  0.00  0.00    -0.453 OA
BRANCH  20  21
ATOM     21  C   UNL     1      36.365 -23.312 -14.931  0.00  0.00    +0.208 C 
BRANCH  21  22
ATOM     22  C   UNL     1      37.205 -24.334 -14.168  0.00  0.00    +0.044 C 
ATOM     23  C   UNL     1      37.308 -23.953 -12.685  0.00  0.00    +0.004 C 
ATOM     24  C   UNL     1      36.623 -25.745 -14.332  0.00  0.00    +0.004 C 
ATOM     25  C   UNL     1      38.099 -24.989 -11.890  0.00  0.00    +0.000 C 
ATOM     26  C   UNL     1      37.415 -26.777 -13.534  0.00  0.00    +0.000 C 
ATOM     27  C   UNL     1      37.522 -26.390 -12.062  0.00  0.00    +0.000 C 
ENDBRANCH  21  22
ENDBRANCH  20  21
ENDBRANCH   6  20
TORSDOF 4
ENDMDL
MODEL 3
REMARK VINA RESULT:     -10.7      1.663      5.096
REMARK  Name = 1540
REMARK  4 active torsions:
REMARK  status: ('A' for Active; 'I' for Inactive)
REMARK    1  A    between atoms: N_5  and  C_14
REMARK    2  A    between atoms: C_6  and  O_20
REMARK    3  A    between atoms: O_20  and  C_21
REMARK    4  A    between atoms: C_21  and  C_22
REMARK                            x       y       z     vdW  Elec       q    Type
REMARK                         _______ _______ _______ _____ _____    ______ ____
ROOT
ATOM      1  N   UNL     1      33.020 -23.440 -15.444  0.00  0.00    -0.293 NA
ATOM      2  N   UNL     1      29.600 -22.733 -16.593  0.00  0.00    -0.266 NA
ATOM      3  N   UNL     1      31.279 -24.169 -13.898  0.00  0.00    -0.316 NA
ATOM      4  N   UNL     1      29.021 -23.697 -14.668  0.00  0.00    -0.296 N 
ATOM      5  N   UNL     1      33.545 -24.493 -13.419  0.00  0.00    -0.238 N 
ATOM      6  C   UNL     1      32.107 -22.962 -16.317  0.00  0.00    +0.288 C 
ATOM      7  C   UNL     1      30.772 -23.084 -15.987  0.00  0.00    +0.215 C 
ATOM      8  C   UNL     1      30.387 -23.681 -14.794  0.00  0.00    +0.196 C 
ATOM      9  C   UNL     1      32.557 -24.006 -14.304  0.00  0.00    +0.207 C 
ATOM     10  C   UNL     1      28.579 -23.121 -15.765  0.00  0.00    +0.164 C 
ATOM     11  H   UNL     1      29.505 -22.285 -17.465  0.00  0.00    +0.126 HD
ATOM     12  H   UNL     1      28.490 -24.059 -13.922  0.00  0.00    +0.150 HD
ATOM     13  H   UNL     1      33.180 -24.899 -12.600  0.00  0.00    +0.166 HD
ENDROOT
BRANCH   5  14
ATOM     14  C   UNL     1      34.950 -24.510 -13.479  0.00  0.00    +0.058 C 
ATOM     15  C   UNL     1      35.699 -23.702 -12.622  0.00  0.00    +0.015 C 
ATOM     16  C   UNL     1      35.603 -25.337 -14.398  0.00  0.00    +0.015 C 
ATOM     17  C   UNL     1      37.093 -23.718 -12.683  0.00  0.00    +0.001 C 
ATOM     18  C   UNL     1      36.997 -25.353 -14.457  0.00  0.00    +0.001 C 
ATOM     19  C   UNL     1      37.741 -24.544 -13.601  0.00  0.00    +0.000 C 
ENDBRANCH   5  14
BRANCH   6  20
ATOM     20  O   UNL     1      32.543 -22.381 -17.482  0.00  0.00    -0.453 OA
BRANCH  20  21
ATOM     21  C   UNL     1      33.824 -22.761 -17.949  0.00  0.00    +0.208 C 
BRANCH  21  22
ATOM     22  C   UNL     1      34.133 -21.965 -19.215  0.00  0.00    +0.044 C 
ATOM     23  C   UNL     1      33.070 -20.884 -19.449  0.00  0.00    +0.004 C 
ATOM     24  C   UNL     1      35.535 -21.346 -19.138  0.00  0.00    +0.004 C 
ATOM     25  C   UNL     1      33.385 -20.040 -20.681  0.00  0.00    +0.000 C 
ATOM     26  C   UNL     1      35.846 -20.500 -20.370  0.00  0.00    +0.000 C 
ATOM     27  C   UNL     1      34.782 -19.432 -20.604  0.00  0.00    +0.000 C 
ENDBRANCH  21  22
ENDBRANCH  20  21
ENDBRANCH   6  20
TORSDOF 4
ENDMDL
MODEL 4
REMARK VINA RESULT:     -10.3      1.563      5.728
REMARK  Name = 1540
REMARK  4 active torsions:
REMARK  status: ('A' for Active; 'I' for Inactive)
REMARK    1  A    between atoms: N_5  and  C_14
REMARK    2  A    between atoms: C_6  and  O_20
REMARK    3  A    between atoms: O_20  and  C_21
REMARK    4  A    between atoms: C_21  and  C_22
REMARK                            x       y       z     vdW  Elec       q    Type
REMARK                         _______ _______ _______ _____ _____    ______ ____
ROOT
ATOM      1  N   UNL     1      35.437 -23.809 -15.235  0.00  0.00    -0.293 NA
ATOM      2  N   UNL     1      36.354 -25.600 -12.157  0.00  0.00    -0.266 NA
ATOM      3  N   UNL     1      37.767 -23.522 -14.571  0.00  0.00    -0.316 NA
ATOM      4  N   UNL     1      38.362 -24.711 -12.535  0.00  0.00    -0.296 N 
ATOM      5  N   UNL     1      36.913 -22.494 -16.491  0.00  0.00    -0.238 N 
ATOM      6  C   UNL     1      35.187 -24.605 -14.173  0.00  0.00    +0.288 C 
ATOM      7  C   UNL     1      36.225 -24.867 -13.302  0.00  0.00    +0.215 C 
ATOM      8  C   UNL     1      37.485 -24.325 -13.517  0.00  0.00    +0.196 C 
ATOM      9  C   UNL     1      36.694 -23.323 -15.367  0.00  0.00    +0.207 C 
ATOM     10  C   UNL     1      37.652 -25.476 -11.736  0.00  0.00    +0.164 C 
ATOM     11  H   UNL     1      35.645 -26.122 -11.716  0.00  0.00    +0.126 HD
ATOM     12  H   UNL     1      39.313 -24.469 -12.450  0.00  0.00    +0.150 HD
ATOM     13  H   UNL     1      37.834 -22.156 -16.562  0.00  0.00    +0.166 HD
ENDROOT
BRANCH   5  14
ATOM     14  C   UNL     1      36.069 -22.057 -17.528  0.00  0.00    +0.058 C 
ATOM     15  C   UNL     1      36.568 -21.230 -18.537  0.00  0.00    +0.015 C 
ATOM     16  C   UNL     1      34.728 -22.450 -17.555  0.00  0.00    +0.015 C 
ATOM     17  C   UNL     1      35.731 -20.796 -19.565  0.00  0.00    +0.001 C 
ATOM     18  C   UNL     1      33.892 -22.016 -18.585  0.00  0.00    +0.001 C 
ATOM     19  C   UNL     1      34.393 -21.190 -19.589  0.00  0.00    +0.000 C 
ENDBRANCH   5  14
BRANCH   6  20
ATOM     20  O   UNL     1      33.922 -25.114 -14.009  0.00  0.00    -0.453 OA
BRANCH  20  21
ATOM     21  C   UNL     1      32.937 -24.236 -13.496  0.00  0.00    +0.208 C 
BRANCH  21  22
ATOM     22  C   UNL     1      31.717 -24.288 -14.413  0.00  0.00    +0.044 C 
ATOM     23  C   UNL     1      30.486 -24.794 -13.650  0.00  0.00    +0.004 C 
ATOM     24  C   UNL     1      31.448 -22.910 -15.035  0.00  0.00    +0.004 C 
ATOM     25  C   UNL     1      29.241 -24.804 -14.533  0.00  0.00    +0.000 C 
ATOM     26  C   UNL     1      30.200 -22.924 -15.914  0.00  0.00    +0.000 C 
ATOM     27  C   UNL     1      28.981 -23.436 -15.155  0.00  0.00    +0.000 C 
ENDBRANCH  21  22
ENDBRANCH  20  21
ENDBRANCH   6  20
TORSDOF 4
ENDMDL
MODEL 5
REMARK VINA RESULT:     -10.2      1.446      5.762
REMARK  Name = 1540
REMARK  4 active torsions:
REMARK  status: ('A' for Active; 'I' for Inactive)
REMARK    1  A    between atoms: N_5  and  C_14
REMARK    2  A    between atoms: C_6  and  O_20
REMARK    3  A    between atoms: O_20  and  C_21
REMARK    4  A    between atoms: C_21  and  C_22
REMARK                            x       y       z     vdW  Elec       q    Type
REMARK                         _______ _______ _______ _____ _____    ______ ____
ROOT
ATOM      1  N   UNL     1      35.014 -23.529 -15.286  0.00  0.00    -0.293 NA
ATOM      2  N   UNL     1      35.714 -25.241 -12.108  0.00  0.00    -0.266 NA
ATOM      3  N   UNL     1      37.363 -23.492 -14.630  0.00  0.00    -0.316 NA
ATOM      4  N   UNL     1      37.815 -24.627 -12.528  0.00  0.00    -0.296 N 
ATOM      5  N   UNL     1      36.635 -22.478 -16.608  0.00  0.00    -0.238 N 
ATOM      6  C   UNL     1      34.671 -24.228 -14.182  0.00  0.00    +0.288 C 
ATOM      7  C   UNL     1      35.672 -24.564 -13.293  0.00  0.00    +0.215 C 
ATOM      8  C   UNL     1      36.989 -24.193 -13.533  0.00  0.00    +0.196 C 
ATOM      9  C   UNL     1      36.320 -23.209 -15.440  0.00  0.00    +0.207 C 
ATOM     10  C   UNL     1      37.019 -25.253 -11.689  0.00  0.00    +0.164 C 
ATOM     11  H   UNL     1      34.948 -25.647 -11.640  0.00  0.00    +0.126 HD
ATOM     12  H   UNL     1      38.788 -24.498 -12.452  0.00  0.00    +0.150 HD
ATOM     13  H   UNL     1      37.591 -22.259 -16.694  0.00  0.00    +0.166 HD
ENDROOT
BRANCH   5  14
ATOM     14  C   UNL     1      35.849 -22.001 -17.672  0.00  0.00    +0.058 C 
ATOM     15  C   UNL     1      34.505 -22.369 -17.771  0.00  0.00    +0.015 C 
ATOM     16  C   UNL     1      36.408 -21.156 -18.635  0.00  0.00    +0.015 C 
ATOM     17  C   UNL     1      33.725 -21.896 -18.827  0.00  0.00    +0.001 C 
ATOM     18  C   UNL     1      35.627 -20.684 -19.690  0.00  0.00    +0.001 C 
ATOM     19  C   UNL     1      34.287 -21.053 -19.786  0.00  0.00    +0.000 C 
ENDBRANCH   5  14
BRANCH   6  20
ATOM     20  O   UNL     1      33.354 -24.569 -13.994  0.00  0.00    -0.453 OA
BRANCH  20  21
ATOM     21  C   UNL     1      32.575 -23.704 -13.187  0.00  0.00    +0.208 C 
BRANCH  21  22
ATOM     22  C   UNL     1      31.146 -23.698 -13.725  0.00  0.00    +0.044 C 
ATOM     23  C   UNL     1      31.098 -23.084 -15.131  0.00  0.00    +0.004 C 
ATOM     24  C   UNL     1      30.562 -25.118 -13.727  0.00  0.00    +0.004 C 
ATOM     25  C   UNL     1      29.687 -23.116 -15.712  0.00  0.00    +0.000 C 
ATOM     26  C   UNL     1      29.152 -25.145 -14.311  0.00  0.00    +0.000 C 
ATOM     27  C   UNL     1      29.107 -24.527 -15.705  0.00  0.00    +0.000 C 
ENDBRANCH  21  22
ENDBRANCH  20  21
ENDBRANCH   6  20
TORSDOF 4
ENDMDL
MODEL 6
REMARK VINA RESULT:     -10.2      2.169      5.588
REMARK  Name = 1540
REMARK  4 active torsions:
REMARK  status: ('A' for Active; 'I' for Inactive)
REMARK    1  A    between atoms: N_5  and  C_14
REMARK    2  A    between atoms: C_6  and  O_20
REMARK    3  A    between atoms: O_20  and  C_21
REMARK    4  A    between atoms: C_21  and  C_22
REMARK                            x       y       z     vdW  Elec       q    Type
REMARK                         _______ _______ _______ _____ _____    ______ ____
ROOT
ATOM      1  N   UNL     1      33.708 -22.990 -16.489  0.00  0.00    -0.293 NA
ATOM      2  N   UNL     1      35.955 -21.578 -19.035  0.00  0.00    -0.266 NA
ATOM      3  N   UNL     1      32.555 -21.902 -18.343  0.00  0.00    -0.316 NA
ATOM      4  N   UNL     1      34.050 -20.972 -20.020  0.00  0.00    -0.296 N 
ATOM      5  N   UNL     1      31.370 -22.886 -16.583  0.00  0.00    -0.238 N 
ATOM      6  C   UNL     1      34.918 -22.712 -17.021  0.00  0.00    +0.288 C 
ATOM      7  C   UNL     1      34.957 -22.026 -18.218  0.00  0.00    +0.215 C 
ATOM      8  C   UNL     1      33.783 -21.637 -18.851  0.00  0.00    +0.196 C 
ATOM      9  C   UNL     1      32.616 -22.574 -17.173  0.00  0.00    +0.207 C 
ATOM     10  C   UNL     1      35.363 -20.954 -20.101  0.00  0.00    +0.164 C 
ATOM     11  H   UNL     1      36.923 -21.685 -18.886  0.00  0.00    +0.126 HD
ATOM     12  H   UNL     1      33.402 -20.592 -20.657  0.00  0.00    +0.150 HD
ATOM     13  H   UNL     1      30.595 -22.572 -17.101  0.00  0.00    +0.166 HD
ENDROOT
BRANCH   5  14
ATOM     14  C   UNL     1      31.022 -23.558 -15.397  0.00  0.00    +0.058 C 
ATOM     15  C   UNL     1      30.372 -24.792 -15.455  0.00  0.00    +0.015 C 
ATOM     16  C   UNL     1      31.327 -22.994 -14.155  0.00  0.00    +0.015 C 
ATOM     17  C   UNL     1      30.026 -25.458 -14.278  0.00  0.00    +0.001 C 
ATOM     18  C   UNL     1      30.981 -23.660 -12.979  0.00  0.00    +0.001 C 
ATOM     19  C   UNL     1      30.331 -24.891 -13.041  0.00  0.00    +0.000 C 
ENDBRANCH   5  14
BRANCH   6  20
ATOM     20  O   UNL     1      36.047 -23.119 -16.352  0.00  0.00    -0.453 OA
BRANCH  20  21
ATOM     21  C   UNL     1      36.056 -22.954 -14.947  0.00  0.00    +0.208 C 
BRANCH  21  22
ATOM     22  C   UNL     1      36.959 -24.025 -14.339  0.00  0.00    +0.044 C 
ATOM     23  C   UNL     1      37.238 -23.724 -12.860  0.00  0.00    +0.004 C 
ATOM     24  C   UNL     1      36.336 -25.418 -14.506  0.00  0.00    +0.004 C 
ATOM     25  C   UNL     1      38.096 -24.810 -12.216  0.00  0.00    +0.000 C 
ATOM     26  C   UNL     1      37.196 -26.500 -13.858  0.00  0.00    +0.000 C 
ATOM     27  C   UNL     1      37.478 -26.193 -12.391  0.00  0.00    +0.000 C 
ENDBRANCH  21  22
ENDBRANCH  20  21
ENDBRANCH   6  20
TORSDOF 4
ENDMDL
MODEL 7
REMARK VINA RESULT:     -10.0      1.979      6.507
REMARK  Name = 1540
REMARK  4 active torsions:
REMARK  status: ('A' for Active; 'I' for Inactive)
REMARK    1  A    between atoms: N_5  and  C_14
REMARK    2  A    between atoms: C_6  and  O_20
REMARK    3  A    between atoms: O_20  and  C_21
REMARK    4  A    between atoms: C_21  and  C_22
REMARK                            x       y       z     vdW  Elec       q    Type
REMARK                         _______ _______ _______ _____ _____    ______ ____
ROOT
ATOM      1  N   UNL     1      35.320 -23.378 -15.837  0.00  0.00    -0.293 NA
ATOM      2  N   UNL     1      33.636 -21.902 -18.754  0.00  0.00    -0.266 NA
ATOM      3  N   UNL     1      36.793 -22.087 -17.291  0.00  0.00    -0.316 NA
ATOM      4  N   UNL     1      35.669 -21.115 -19.216  0.00  0.00    -0.296 N 
ATOM      5  N   UNL     1      37.601 -23.136 -15.363  0.00  0.00    -0.238 N 
ATOM      6  C   UNL     1      34.251 -23.127 -16.624  0.00  0.00    +0.288 C 
ATOM      7  C   UNL     1      34.445 -22.354 -17.751  0.00  0.00    +0.215 C 
ATOM      8  C   UNL     1      35.702 -21.852 -18.060  0.00  0.00    +0.196 C 
ATOM      9  C   UNL     1      36.509 -22.850 -16.213  0.00  0.00    +0.207 C 
ATOM     10  C   UNL     1      34.414 -21.165 -19.607  0.00  0.00    +0.164 C 
ATOM     11  H   UNL     1      32.670 -22.073 -18.847  0.00  0.00    +0.126 HD
ATOM     12  H   UNL     1      36.419 -20.652 -19.656  0.00  0.00    +0.150 HD
ATOM     13  H   UNL     1      38.451 -22.740 -15.661  0.00  0.00    +0.166 HD
ENDROOT
BRANCH   5  14
ATOM     14  C   UNL     1      37.709 -23.878 -14.173  0.00  0.00    +0.058 C 
ATOM     15  C   UNL     1      38.251 -25.166 -14.196  0.00  0.00    +0.015 C 
ATOM     16  C   UNL     1      37.277 -23.331 -12.962  0.00  0.00    +0.015 C 
ATOM     17  C   UNL     1      38.358 -25.902 -13.016  0.00  0.00    +0.001 C 
ATOM     18  C   UNL     1      37.385 -24.068 -11.783  0.00  0.00    +0.001 C 
ATOM     19  C   UNL     1      37.925 -25.353 -11.809  0.00  0.00    +0.000 C 
ENDBRANCH   5  14
BRANCH   6  20
ATOM     20  O   UNL     1      33.031 -23.648 -16.272  0.00  0.00    -0.453 OA
BRANCH  20  21
ATOM     21  C   UNL     1      32.659 -23.550 -14.909  0.00  0.00    +0.208 C 
BRANCH  21  22
ATOM     22  C   UNL     1      31.135 -23.492 -14.827  0.00  0.00    +0.044 C 
ATOM     23  C   UNL     1      30.550 -22.798 -16.065  0.00  0.00    +0.004 C 
ATOM     24  C   UNL     1      30.547 -24.900 -14.659  0.00  0.00    +0.004 C 
ATOM     25  C   UNL     1      29.025 -22.775 -16.030  0.00  0.00    +0.000 C 
ATOM     26  C   UNL     1      29.021 -24.873 -14.628  0.00  0.00    +0.000 C 
ATOM     27  C   UNL     1      28.445 -24.175 -15.856  0.00  0.00    +0.000 C 
ENDBRANCH  21  22
ENDBRANCH  20  21
ENDBRANCH   6  20
TORSDOF 4
ENDMDL
MODEL 8
REMARK VINA RESULT:      -9.9      2.255      6.691
REMARK  Name = 1540
REMARK  4 active torsions:
REMARK  status: ('A' for Active; 'I' for Inactive)
REMARK    1  A    between atoms: N_5  and  C_14
REMARK    2  A    between atoms: C_6  and  O_20
REMARK    3  A    between atoms: O_20  and  C_21
REMARK    4  A    between atoms: C_21  and  C_22
REMARK                            x       y       z     vdW  Elec       q    Type
REMARK                         _______ _______ _______ _____ _____    ______ ____
ROOT
ATOM      1  N   UNL     1      35.129 -22.810 -16.873  0.00  0.00    -0.293 NA
ATOM      2  N   UNL     1      33.797 -21.136 -19.863  0.00  0.00    -0.266 NA
ATOM      3  N   UNL     1      36.727 -21.343 -17.988  0.00  0.00    -0.316 NA
ATOM      4  N   UNL     1      35.835 -20.241 -19.964  0.00  0.00    -0.296 N 
ATOM      5  N   UNL     1      37.308 -22.533 -16.060  0.00  0.00    -0.238 N 
ATOM      6  C   UNL     1      34.168 -22.526 -17.779  0.00  0.00    +0.288 C 
ATOM      7  C   UNL     1      34.479 -21.648 -18.798  0.00  0.00    +0.215 C 
ATOM      8  C   UNL     1      35.743 -21.078 -18.881  0.00  0.00    +0.196 C 
ATOM      9  C   UNL     1      36.332 -22.209 -17.030  0.00  0.00    +0.207 C 
ATOM     10  C   UNL     1      34.650 -20.298 -20.532  0.00  0.00    +0.164 C 
ATOM     11  H   UNL     1      32.863 -21.331 -20.107  0.00  0.00    +0.126 HD
ATOM     12  H   UNL     1      36.616 -19.714 -20.252  0.00  0.00    +0.150 HD
ATOM     13  H   UNL     1      38.171 -22.082 -16.200  0.00  0.00    +0.166 HD
ENDROOT
BRANCH   5  14
ATOM     14  C   UNL     1      37.286 -23.376 -14.935  0.00  0.00    +0.058 C 
ATOM     15  C   UNL     1      36.258 -23.265 -13.996  0.00  0.00    +0.015 C 
ATOM     16  C   UNL     1      38.292 -24.328 -14.750  0.00  0.00    +0.015 C 
ATOM     17  C   UNL     1      36.236 -24.101 -12.879  0.00  0.00    +0.001 C 
ATOM     18  C   UNL     1      38.270 -25.163 -13.633  0.00  0.00    +0.001 C 
ATOM     19  C   UNL     1      37.242 -25.049 -12.698  0.00  0.00    +0.000 C 
ENDBRANCH   5  14
BRANCH   6  20
ATOM     20  O   UNL     1      32.937 -23.119 -17.649  0.00  0.00    -0.453 OA
BRANCH  20  21
ATOM     21  C   UNL     1      32.120 -22.676 -16.581  0.00  0.00    +0.208 C 
BRANCH  21  22
ATOM     22  C   UNL     1      31.888 -23.848 -15.630  0.00  0.00    +0.044 C 
ATOM     23  C   UNL     1      32.581 -23.601 -14.284  0.00  0.00    +0.004 C 
ATOM     24  C   UNL     1      30.386 -24.098 -15.434  0.00  0.00    +0.004 C 
ATOM     25  C   UNL     1      32.319 -24.736 -13.298  0.00  0.00    +0.000 C 
ATOM     26  C   UNL     1      30.128 -25.232 -14.445  0.00  0.00    +0.000 C 
ATOM     27  C   UNL     1      30.826 -24.986 -13.112  0.00  0.00    +0.000 C 
ENDBRANCH  21  22
ENDBRANCH  20  21
ENDBRANCH   6  20
TORSDOF 4
ENDMDL
MODEL 9
REMARK VINA RESULT:      -9.9      2.004      6.964
REMARK  Name = 1540
REMARK  4 active torsions:
REMARK  status: ('A' for Active; 'I' for Inactive)
REMARK    1  A    between atoms: N_5  and  C_14
REMARK    2  A    between atoms: C_6  and  O_20
REMARK    3  A    between atoms: O_20  and  C_21
REMARK    4  A    between atoms: C_21  and  C_22
REMARK                            x       y       z     vdW  Elec       q    Type
REMARK                         _______ _______ _______ _____ _____    ______ ____
ROOT
ATOM      1  N   UNL     1      33.149 -23.148 -16.092  0.00  0.00    -0.293 NA
ATOM      2  N   UNL     1      30.968 -24.723 -13.585  0.00  0.00    -0.266 NA
ATOM      3  N   UNL     1      30.770 -23.013 -16.615  0.00  0.00    -0.316 NA
ATOM      4  N   UNL     1      29.337 -24.057 -14.951  0.00  0.00    -0.296 N 
ATOM      5  N   UNL     1      32.383 -22.093 -18.037  0.00  0.00    -0.238 N 
ATOM      6  C   UNL     1      32.904 -23.818 -14.945  0.00  0.00    +0.288 C 
ATOM      7  C   UNL     1      31.589 -24.090 -14.623  0.00  0.00    +0.215 C 
ATOM      8  C   UNL     1      30.556 -23.685 -15.458  0.00  0.00    +0.196 C 
ATOM      9  C   UNL     1      32.083 -22.792 -16.846  0.00  0.00    +0.207 C 
ATOM     10  C   UNL     1      29.620 -24.678 -13.826  0.00  0.00    +0.164 C 
ATOM     11  H   UNL     1      31.407 -25.136 -12.807  0.00  0.00    +0.126 HD
ATOM     12  H   UNL     1      28.448 -23.895 -15.343  0.00  0.00    +0.150 HD
ATOM     13  H   UNL     1      31.590 -21.847 -18.565  0.00  0.00    +0.166 HD
ENDROOT
BRANCH   5  14
ATOM     14  C   UNL     1      33.597 -21.682 -18.617  0.00  0.00    +0.058 C 
ATOM     15  C   UNL     1      33.595 -20.778 -19.682  0.00  0.00    +0.015 C 
ATOM     16  C   UNL     1      34.811 -22.175 -18.130  0.00  0.00    +0.015 C 
ATOM     17  C   UNL     1      34.799 -20.370 -20.257  0.00  0.00    +0.001 C 
ATOM     18  C   UNL     1      36.014 -21.767 -18.706  0.00  0.00    +0.001 C 
ATOM     19  C   UNL     1      36.008 -20.865 -19.769  0.00  0.00    +0.000 C 
ENDBRANCH   5  14
BRANCH   6  20
ATOM     20  O   UNL     1      33.963 -24.195 -14.157  0.00  0.00    -0.453 OA
BRANCH  20  21
ATOM     21  C   UNL     1      35.183 -24.484 -14.815  0.00  0.00    +0.208 C 
BRANCH  21  22
ATOM     22  C   UNL     1      36.181 -24.999 -13.780  0.00  0.00    +0.044 C 
ATOM     23  C   UNL     1      37.621 -24.812 -14.275  0.00  0.00    +0.004 C 
ATOM     24  C   UNL     1      35.972 -24.298 -12.430  0.00  0.00    +0.004 C 
ATOM     25  C   UNL     1      38.639 -25.271 -13.235  0.00  0.00    +0.000 C 
ATOM     26  C   UNL     1      36.994 -24.757 -11.393  0.00  0.00    +0.000 C 
ATOM     27  C   UNL     1      38.423 -24.578 -11.893  0.00  0.00    +0.000 C 
ENDBRANCH  21  22
ENDBRANCH  20  21
ENDBRANCH   6  20
TORSDOF 4
ENDMDL
