MODEL 1
REMARK VINA RESULT:     -11.5      0.000      0.000
REMARK  Name = 11689883
REMARK  5 active torsions:
REMARK  status: ('A' for Active; 'I' for Inactive)
REMARK    1  A    between atoms: C_2  and  C_21
REMARK    2  A    between atoms: C_5  and  N_9
REMARK    3  A    between atoms: N_10  and  C_15
REMARK    4  A    between atoms: C_21  and  N_23
REMARK    5  A    between atoms: C_29  and  O_31
REMARK                            x       y       z     vdW  Elec       q    Type
REMARK                         _______ _______ _______ _____ _____    ______ ____
ROOT
ATOM      1  F   UNL     1      35.710 -17.065 -20.965  0.00  0.00    -0.203 F 
ATOM      2  C   UNL     1      34.839 -16.548 -23.108  0.00  0.00    -0.014 C 
ATOM      3  C   UNL     1      35.217 -17.473 -22.146  0.00  0.00    +0.147 C 
ATOM      4  C   UNL     1      34.328 -16.959 -24.331  0.00  0.00    -0.004 C 
ATOM      5  C   UNL     1      35.083 -18.836 -22.411  0.00  0.00    +0.079 C 
ATOM      6  C   UNL     1      34.193 -18.321 -24.597  0.00  0.00    +0.001 C 
ATOM      7  C   UNL     1      34.570 -19.261 -23.637  0.00  0.00    +0.017 C 
ENDROOT
BRANCH   5   9
ATOM      8  O   UNL     1      33.581 -19.894 -20.057  0.00  0.00    -0.252 OA
ATOM      9  N   UNL     1      35.460 -19.777 -21.453  0.00  0.00    -0.266 N 
ATOM     10  N   UNL     1      35.474 -21.201 -19.633  0.00  0.00    -0.267 N 
ATOM     11  C   UNL     1      34.717 -20.257 -20.345  0.00  0.00    +0.308 C 
ATOM     12  H   UNL     1      36.361 -20.159 -21.559  0.00  0.00    +0.156 HD
ATOM     13  H   UNL     1      36.373 -21.390 -19.987  0.00  0.00    +0.156 HD
BRANCH  10  15
ATOM     14  N   UNL     1      35.699 -22.715 -16.288  0.00  0.00    -0.247 NA
ATOM     15  C   UNL     1      35.103 -21.915 -18.470  0.00  0.00    +0.071 C 
ATOM     16  C   UNL     1      33.852 -22.487 -18.374  0.00  0.00    +0.018 C 
ATOM     17  C   UNL     1      35.988 -22.045 -17.426  0.00  0.00    +0.113 C 
ATOM     18  C   UNL     1      33.516 -23.183 -17.218  0.00  0.00    +0.016 C 
ATOM     19  C   UNL     1      34.468 -23.268 -16.213  0.00  0.00    +0.059 C 
ATOM     20  C   UNL     1      34.142 -24.008 -14.959  0.00  0.00    +0.052 C 
ENDBRANCH  10  15
ENDBRANCH   5   9
BRANCH   2  21
ATOM     21  C   UNL     1      34.983 -15.077 -22.825  0.00  0.00    -0.047 C 
BRANCH  21  23
ATOM     22  O   UNL     1      31.877 -11.236 -18.986  0.00  0.00    -0.226 OA
ATOM     23  N   UNL     1      33.772 -14.517 -22.224  0.00  0.00    +0.392 N 
ATOM     24  N   UNL     1      32.208 -12.533 -20.885  0.00  0.00    -0.250 N 
ATOM     25  C   UNL     1      33.985 -14.241 -20.796  0.00  0.00    -0.055 C 
ATOM     26  C   UNL     1      33.365 -13.293 -22.930  0.00  0.00    -0.055 C 
ATOM     27  C   UNL     1      32.711 -13.693 -20.154  0.00  0.00    +0.074 C 
ATOM     28  C   UNL     1      32.078 -12.720 -22.332  0.00  0.00    +0.074 C 
ATOM     29  C   UNL     1      31.771 -11.397 -20.201  0.00  0.00    +0.405 C 
ATOM     30  H   UNL     1      33.024 -15.204 -22.311  0.00  0.00    -0.079 HD
BRANCH  29  31
ATOM     31  O   UNL     1      31.202 -10.467 -21.031  0.00  0.00    -0.430 OA
ATOM     32  C   UNL     1      31.885  -9.213 -21.136  0.00  0.00    +0.257 C 
ENDBRANCH  29  31
ENDBRANCH  21  23
ENDBRANCH   2  21
TORSDOF 5
ENDMDL
MODEL 2
REMARK VINA RESULT:     -11.0      2.124      9.744
REMARK  Name = 11689883
REMARK  5 active torsions:
REMARK  status: ('A' for Active; 'I' for Inactive)
REMARK    1  A    between atoms: C_2  and  C_21
REMARK    2  A    between atoms: C_5  and  N_9
REMARK    3  A    between atoms: N_10  and  C_15
REMARK    4  A    between atoms: C_21  and  N_23
REMARK    5  A    between atoms: C_29  and  O_31
REMARK                            x       y       z     vdW  Elec       q    Type
REMARK                         _______ _______ _______ _____ _____    ______ ____
ROOT
ATOM      1  F   UNL     1      35.668 -16.087 -21.548  0.00  0.00    -0.203 F 
ATOM      2  C   UNL     1      35.235 -18.302 -22.270  0.00  0.00    -0.014 C 
ATOM      3  C   UNL     1      35.190 -16.931 -22.476  0.00  0.00    +0.147 C 
ATOM      4  C   UNL     1      34.744 -19.184 -23.223  0.00  0.00    -0.004 C 
ATOM      5  C   UNL     1      34.644 -16.431 -23.659  0.00  0.00    +0.079 C 
ATOM      6  C   UNL     1      34.198 -18.685 -24.405  0.00  0.00    +0.001 C 
ATOM      7  C   UNL     1      34.147 -17.308 -24.623  0.00  0.00    +0.017 C 
ENDROOT
BRANCH   5   9
ATOM      8  O   UNL     1      33.088 -14.312 -22.242  0.00  0.00    -0.252 OA
ATOM      9  N   UNL     1      34.591 -15.054 -23.879  0.00  0.00    -0.266 N 
ATOM     10  N   UNL     1      34.080 -12.806 -23.731  0.00  0.00    -0.267 N 
ATOM     11  C   UNL     1      33.838 -14.076 -23.183  0.00  0.00    +0.308 C 
ATOM     12  H   UNL     1      35.151 -14.717 -24.615  0.00  0.00    +0.156 HD
ATOM     13  H   UNL     1      34.710 -12.775 -24.487  0.00  0.00    +0.156 HD
BRANCH  10  15
ATOM     14  N   UNL     1      31.777 -10.378 -22.202  0.00  0.00    -0.247 NA
ATOM     15  C   UNL     1      33.529 -11.566 -23.331  0.00  0.00    +0.071 C 
ATOM     16  C   UNL     1      34.164 -10.386 -23.657  0.00  0.00    +0.018 C 
ATOM     17  C   UNL     1      32.357 -11.528 -22.614  0.00  0.00    +0.113 C 
ATOM     18  C   UNL     1      33.599  -9.183 -23.249  0.00  0.00    +0.016 C 
ATOM     19  C   UNL     1      32.415  -9.233 -22.532  0.00  0.00    +0.059 C 
ATOM     20  C   UNL     1      31.779  -7.960 -22.079  0.00  0.00    +0.052 C 
ENDBRANCH  10  15
ENDBRANCH   5   9
BRANCH   2  21
ATOM     21  C   UNL     1      35.824 -18.846 -20.996  0.00  0.00    -0.047 C 
BRANCH  21  23
ATOM     22  O   UNL     1      34.288 -23.347 -16.933  0.00  0.00    -0.226 OA
ATOM     23  N   UNL     1      35.221 -20.124 -20.618  0.00  0.00    +0.392 N 
ATOM     24  N   UNL     1      34.054 -22.024 -18.829  0.00  0.00    -0.250 N 
ATOM     25  C   UNL     1      36.051 -20.809 -19.616  0.00  0.00    -0.055 C 
ATOM     26  C   UNL     1      33.858 -19.920 -20.106  0.00  0.00    -0.055 C 
ATOM     27  C   UNL     1      35.447 -22.163 -19.246  0.00  0.00    +0.074 C 
ATOM     28  C   UNL     1      33.206 -21.255 -19.742  0.00  0.00    +0.074 C 
ATOM     29  C   UNL     1      33.579 -22.700 -17.703  0.00  0.00    +0.405 C 
ATOM     30  H   UNL     1      35.169 -20.712 -21.449  0.00  0.00    -0.079 HD
BRANCH  29  31
ATOM     31  O   UNL     1      32.225 -22.571 -17.541  0.00  0.00    -0.430 OA
ATOM     32  C   UNL     1      31.709 -22.903 -16.247  0.00  0.00    +0.257 C 
ENDBRANCH  29  31
ENDBRANCH  21  23
ENDBRANCH   2  21
TORSDOF 5
ENDMDL
MODEL 3
REMARK VINA RESULT:     -10.9      3.839     11.115
REMARK  Name = 11689883
REMARK  5 active torsions:
REMARK  status: ('A' for Active; 'I' for Inactive)
REMARK    1  A    between atoms: C_2  and  C_21
REMARK    2  A    between atoms: C_5  and  N_9
REMARK    3  A    between atoms: N_10  and  C_15
REMARK    4  A    between atoms: C_21  and  N_23
REMARK    5  A    between atoms: C_29  and  O_31
REMARK                            x       y       z     vdW  Elec       q    Type
REMARK                         _______ _______ _______ _____ _____    ______ ____
ROOT
ATOM      1  F   UNL     1      37.490 -20.298 -18.087  0.00  0.00    -0.203 F 
ATOM      2  C   UNL     1      36.115 -22.013 -17.203  0.00  0.00    -0.014 C 
ATOM      3  C   UNL     1      36.403 -21.079 -18.187  0.00  0.00    +0.147 C 
ATOM      4  C   UNL     1      34.995 -22.828 -17.296  0.00  0.00    -0.004 C 
ATOM      5  C   UNL     1      35.553 -20.956 -19.287  0.00  0.00    +0.079 C 
ATOM      6  C   UNL     1      34.145 -22.705 -18.395  0.00  0.00    +0.001 C 
ATOM      7  C   UNL     1      34.424 -21.769 -19.391  0.00  0.00    +0.017 C 
ENDROOT
BRANCH   5   9
ATOM      8  O   UNL     1      33.712 -19.164 -20.810  0.00  0.00    -0.252 OA
ATOM      9  N   UNL     1      35.830 -20.020 -20.285  0.00  0.00    -0.266 N 
ATOM     10  N   UNL     1      35.626 -18.391 -21.910  0.00  0.00    -0.267 N 
ATOM     11  C   UNL     1      34.926 -19.185 -20.987  0.00  0.00    +0.308 C 
ATOM     12  H   UNL     1      36.777 -19.928 -20.534  0.00  0.00    +0.156 HD
ATOM     13  H   UNL     1      36.603 -18.520 -21.938  0.00  0.00    +0.156 HD
BRANCH  10  15
ATOM     14  N   UNL     1      34.104 -16.947 -24.932  0.00  0.00    -0.247 NA
ATOM     15  C   UNL     1      35.103 -17.428 -22.804  0.00  0.00    +0.071 C 
ATOM     16  C   UNL     1      35.075 -16.095 -22.453  0.00  0.00    +0.018 C 
ATOM     17  C   UNL     1      34.617 -17.815 -24.031  0.00  0.00    +0.113 C 
ATOM     18  C   UNL     1      34.555 -15.172 -23.354  0.00  0.00    +0.016 C 
ATOM     19  C   UNL     1      34.087 -15.645 -24.569  0.00  0.00    +0.059 C 
ATOM     20  C   UNL     1      33.522 -14.683 -25.560  0.00  0.00    +0.052 C 
ENDBRANCH  10  15
ENDBRANCH   5   9
BRANCH   2  21
ATOM     21  C   UNL     1      37.030 -22.150 -16.015  0.00  0.00    -0.047 C 
BRANCH  21  23
ATOM     22  O   UNL     1      37.947 -26.144 -11.288  0.00  0.00    -0.226 OA
ATOM     23  N   UNL     1      36.752 -23.366 -15.250  0.00  0.00    +0.392 N 
ATOM     24  N   UNL     1      36.731 -25.032 -12.927  0.00  0.00    -0.250 N 
ATOM     25  C   UNL     1      38.002 -23.954 -14.745  0.00  0.00    -0.055 C 
ATOM     26  C   UNL     1      35.832 -23.078 -14.140  0.00  0.00    -0.055 C 
ATOM     27  C   UNL     1      37.722 -25.246 -13.979  0.00  0.00    +0.074 C 
ATOM     28  C   UNL     1      35.508 -24.351 -13.356  0.00  0.00    +0.074 C 
ATOM     29  C   UNL     1      36.921 -25.570 -11.652  0.00  0.00    +0.405 C 
ATOM     30  H   UNL     1      36.307 -24.041 -15.871  0.00  0.00    -0.079 HD
BRANCH  29  31
ATOM     31  O   UNL     1      35.834 -25.395 -10.838  0.00  0.00    -0.430 OA
ATOM     32  C   UNL     1      35.902 -24.294  -9.924  0.00  0.00    +0.257 C 
ENDBRANCH  29  31
ENDBRANCH  21  23
ENDBRANCH   2  21
TORSDOF 5
ENDMDL
MODEL 4
REMARK VINA RESULT:     -10.5      2.481      3.981
REMARK  Name = 11689883
REMARK  5 active torsions:
REMARK  status: ('A' for Active; 'I' for Inactive)
REMARK    1  A    between atoms: C_2  and  C_21
REMARK    2  A    between atoms: C_5  and  N_9
REMARK    3  A    between atoms: N_10  and  C_15
REMARK    4  A    between atoms: C_21  and  N_23
REMARK    5  A    between atoms: C_29  and  O_31
REMARK                            x       y       z     vdW  Elec       q    Type
REMARK                         _______ _______ _______ _____ _____    ______ ____
ROOT
ATOM      1  F   UNL     1      37.497 -19.460 -20.332  0.00  0.00    -0.203 F 
ATOM      2  C   UNL     1      35.388 -19.402 -21.411  0.00  0.00    -0.014 C 
ATOM      3  C   UNL     1      36.202 -19.810 -20.364  0.00  0.00    +0.147 C 
ATOM      4  C   UNL     1      34.047 -19.756 -21.454  0.00  0.00    -0.004 C 
ATOM      5  C   UNL     1      35.664 -20.590 -19.339  0.00  0.00    +0.079 C 
ATOM      6  C   UNL     1      33.509 -20.536 -20.431  0.00  0.00    +0.001 C 
ATOM      7  C   UNL     1      34.317 -20.953 -19.373  0.00  0.00    +0.017 C 
ENDROOT
BRANCH   5   9
ATOM      8  O   UNL     1      35.190 -22.692 -17.272  0.00  0.00    -0.252 OA
ATOM      9  N   UNL     1      36.471 -21.009 -18.281  0.00  0.00    -0.266 N 
ATOM     10  N   UNL     1      37.292 -22.113 -16.425  0.00  0.00    -0.267 N 
ATOM     11  C   UNL     1      36.211 -22.014 -17.316  0.00  0.00    +0.308 C 
ATOM     12  H   UNL     1      37.334 -20.545 -18.191  0.00  0.00    +0.156 HD
ATOM     13  H   UNL     1      38.044 -21.499 -16.589  0.00  0.00    +0.156 HD
BRANCH  10  15
ATOM     14  N   UNL     1      38.765 -24.609 -14.159  0.00  0.00    -0.247 NA
ATOM     15  C   UNL     1      37.433 -22.988 -15.322  0.00  0.00    +0.071 C 
ATOM     16  C   UNL     1      36.435 -23.078 -14.375  0.00  0.00    +0.018 C 
ATOM     17  C   UNL     1      38.567 -23.753 -15.187  0.00  0.00    +0.113 C 
ATOM     18  C   UNL     1      36.603 -23.947 -13.302  0.00  0.00    +0.016 C 
ATOM     19  C   UNL     1      37.775 -24.683 -13.241  0.00  0.00    +0.059 C 
ATOM     20  C   UNL     1      37.988 -25.626 -12.103  0.00  0.00    +0.052 C 
ENDBRANCH  10  15
ENDBRANCH   5   9
BRANCH   2  21
ATOM     21  C   UNL     1      35.965 -18.560 -22.518  0.00  0.00    -0.047 C 
BRANCH  21  23
ATOM     22  O   UNL     1      32.571 -13.308 -22.692  0.00  0.00    -0.226 OA
ATOM     23  N   UNL     1      35.741 -17.132 -22.290  0.00  0.00    +0.392 N 
ATOM     24  N   UNL     1      34.177 -14.775 -21.876  0.00  0.00    -0.250 N 
ATOM     25  C   UNL     1      34.970 -16.547 -23.397  0.00  0.00    -0.055 C 
ATOM     26  C   UNL     1      35.051 -16.916 -21.010  0.00  0.00    -0.055 C 
ATOM     27  C   UNL     1      34.768 -15.048 -23.184  0.00  0.00    +0.074 C 
ATOM     28  C   UNL     1      34.846 -15.423 -20.745  0.00  0.00    +0.074 C 
ATOM     29  C   UNL     1      33.135 -13.855 -21.745  0.00  0.00    +0.405 C 
ATOM     30  H   UNL     1      36.649 -16.668 -22.250  0.00  0.00    -0.079 HD
BRANCH  29  31
ATOM     31  O   UNL     1      32.801 -13.617 -20.438  0.00  0.00    -0.430 OA
ATOM     32  C   UNL     1      31.947 -12.492 -20.200  0.00  0.00    +0.257 C 
ENDBRANCH  29  31
ENDBRANCH  21  23
ENDBRANCH   2  21
TORSDOF 5
ENDMDL
MODEL 5
REMARK VINA RESULT:     -10.0      2.938     10.193
REMARK  Name = 11689883
REMARK  5 active torsions:
REMARK  status: ('A' for Active; 'I' for Inactive)
REMARK    1  A    between atoms: C_2  and  C_21
REMARK    2  A    between atoms: C_5  and  N_9
REMARK    3  A    between atoms: N_10  and  C_15
REMARK    4  A    between atoms: C_21  and  N_23
REMARK    5  A    between atoms: C_29  and  O_31
REMARK                            x       y       z     vdW  Elec       q    Type
REMARK                         _______ _______ _______ _____ _____    ______ ____
ROOT
ATOM      1  F   UNL     1      33.304 -20.496 -20.702  0.00  0.00    -0.203 F 
ATOM      2  C   UNL     1      34.896 -21.453 -19.231  0.00  0.00    -0.014 C 
ATOM      3  C   UNL     1      34.557 -20.542 -20.221  0.00  0.00    +0.147 C 
ATOM      4  C   UNL     1      36.187 -21.510 -18.724  0.00  0.00    -0.004 C 
ATOM      5  C   UNL     1      35.527 -19.671 -20.715  0.00  0.00    +0.079 C 
ATOM      6  C   UNL     1      37.158 -20.639 -19.219  0.00  0.00    +0.001 C 
ATOM      7  C   UNL     1      36.829 -19.719 -20.214  0.00  0.00    +0.017 C 
ENDROOT
BRANCH   5   9
ATOM      8  O   UNL     1      35.009 -16.736 -20.529  0.00  0.00    -0.252 OA
ATOM      9  N   UNL     1      35.200 -18.750 -21.711  0.00  0.00    -0.266 N 
ATOM     10  N   UNL     1      34.661 -16.809 -22.841  0.00  0.00    -0.267 N 
ATOM     11  C   UNL     1      34.961 -17.359 -21.585  0.00  0.00    +0.308 C 
ATOM     12  H   UNL     1      35.125 -19.114 -22.623  0.00  0.00    +0.156 HD
ATOM     13  H   UNL     1      34.660 -17.437 -23.599  0.00  0.00    +0.156 HD
BRANCH  10  15
ATOM     14  N   UNL     1      34.403 -13.155 -22.493  0.00  0.00    -0.247 NA
ATOM     15  C   UNL     1      34.361 -15.461 -23.152  0.00  0.00    +0.071 C 
ATOM     16  C   UNL     1      33.764 -15.142 -24.353  0.00  0.00    +0.018 C 
ATOM     17  C   UNL     1      34.663 -14.461 -22.259  0.00  0.00    +0.113 C 
ATOM     18  C   UNL     1      33.481 -13.809 -24.630  0.00  0.00    +0.016 C 
ATOM     19  C   UNL     1      33.816 -12.863 -23.675  0.00  0.00    +0.059 C 
ATOM     20  C   UNL     1      33.527 -11.422 -23.939  0.00  0.00    +0.052 C 
ENDBRANCH  10  15
ENDBRANCH   5   9
BRANCH   2  21
ATOM     21  C   UNL     1      33.851 -22.394 -18.694  0.00  0.00    -0.047 C 
BRANCH  21  23
ATOM     22  O   UNL     1      32.671 -24.833 -13.055  0.00  0.00    -0.226 OA
ATOM     23  N   UNL     1      33.776 -22.351 -17.234  0.00  0.00    +0.392 N 
ATOM     24  N   UNL     1      33.729 -23.451 -14.595  0.00  0.00    -0.250 N 
ATOM     25  C   UNL     1      32.596 -23.085 -16.755  0.00  0.00    -0.055 C 
ATOM     26  C   UNL     1      35.003 -22.902 -16.638  0.00  0.00    -0.055 C 
ATOM     27  C   UNL     1      32.491 -23.010 -15.233  0.00  0.00    +0.074 C 
ATOM     28  C   UNL     1      34.949 -22.827 -15.111  0.00  0.00    +0.074 C 
ATOM     29  C   UNL     1      33.694 -24.307 -13.492  0.00  0.00    +0.405 C 
ATOM     30  H   UNL     1      33.688 -21.377 -16.946  0.00  0.00    -0.079 HD
BRANCH  29  31
ATOM     31  O   UNL     1      34.930 -24.502 -12.936  0.00  0.00    -0.430 OA
ATOM     32  C   UNL     1      35.122 -23.966 -11.622  0.00  0.00    +0.257 C 
ENDBRANCH  29  31
ENDBRANCH  21  23
ENDBRANCH   2  21
TORSDOF 5
ENDMDL
MODEL 6
REMARK VINA RESULT:      -9.8      4.771     12.267
REMARK  Name = 11689883
REMARK  5 active torsions:
REMARK  status: ('A' for Active; 'I' for Inactive)
REMARK    1  A    between atoms: C_2  and  C_21
REMARK    2  A    between atoms: C_5  and  N_9
REMARK    3  A    between atoms: N_10  and  C_15
REMARK    4  A    between atoms: C_21  and  N_23
REMARK    5  A    between atoms: C_29  and  O_31
REMARK                            x       y       z     vdW  Elec       q    Type
REMARK                         _______ _______ _______ _____ _____    ______ ____
ROOT
ATOM      1  F   UNL     1      31.847 -10.652 -22.654  0.00  0.00    -0.203 F 
ATOM      2  C   UNL     1      31.771 -11.208 -20.352  0.00  0.00    -0.014 C 
ATOM      3  C   UNL     1      31.874 -10.269 -21.368  0.00  0.00    +0.147 C 
ATOM      4  C   UNL     1      31.797 -10.823 -19.018  0.00  0.00    -0.004 C 
ATOM      5  C   UNL     1      32.007  -8.918 -21.045  0.00  0.00    +0.079 C 
ATOM      6  C   UNL     1      31.929  -9.474 -18.695  0.00  0.00    +0.001 C 
ATOM      7  C   UNL     1      32.034  -8.520 -19.708  0.00  0.00    +0.017 C 
ENDROOT
BRANCH   5   9
ATOM      8  O   UNL     1      34.166  -8.478 -23.060  0.00  0.00    -0.252 OA
ATOM      9  N   UNL     1      32.112  -7.963 -22.056  0.00  0.00    -0.266 N 
ATOM     10  N   UNL     1      32.862  -6.701 -23.840  0.00  0.00    -0.267 N 
ATOM     11  C   UNL     1      33.156  -7.784 -22.997  0.00  0.00    +0.308 C 
ATOM     12  H   UNL     1      31.363  -7.328 -22.126  0.00  0.00    +0.156 HD
ATOM     13  H   UNL     1      32.010  -6.238 -23.667  0.00  0.00    +0.156 HD
BRANCH  10  15
ATOM     14  N   UNL     1      33.775  -5.579 -27.223  0.00  0.00    -0.247 NA
ATOM     15  C   UNL     1      33.638  -6.192 -24.907  0.00  0.00    +0.071 C 
ATOM     16  C   UNL     1      34.951  -5.827 -24.699  0.00  0.00    +0.018 C 
ATOM     17  C   UNL     1      33.089  -6.057 -26.160  0.00  0.00    +0.113 C 
ATOM     18  C   UNL     1      35.690  -5.330 -25.768  0.00  0.00    +0.016 C 
ATOM     19  C   UNL     1      35.060  -5.227 -26.998  0.00  0.00    +0.059 C 
ATOM     20  C   UNL     1      35.823  -4.698 -28.168  0.00  0.00    +0.052 C 
ENDBRANCH  10  15
ENDBRANCH   5   9
BRANCH   2  21
ATOM     21  C   UNL     1      31.627 -12.666 -20.697  0.00  0.00    -0.047 C 
BRANCH  21  23
ATOM     22  O   UNL     1      35.515 -17.561 -20.936  0.00  0.00    -0.226 OA
ATOM     23  N   UNL     1      32.924 -13.303 -20.924  0.00  0.00    +0.392 N 
ATOM     24  N   UNL     1      34.692 -15.469 -21.524  0.00  0.00    -0.250 N 
ATOM     25  C   UNL     1      33.154 -14.370 -19.939  0.00  0.00    -0.055 C 
ATOM     26  C   UNL     1      33.004 -13.838 -22.291  0.00  0.00    -0.055 C 
ATOM     27  C   UNL     1      34.525 -15.013 -20.146  0.00  0.00    +0.074 C 
ATOM     28  C   UNL     1      34.371 -14.475 -22.550  0.00  0.00    +0.074 C 
ATOM     29  C   UNL     1      35.243 -16.723 -21.795  0.00  0.00    +0.405 C 
ATOM     30  H   UNL     1      33.652 -12.598 -20.810  0.00  0.00    -0.079 HD
BRANCH  29  31
ATOM     31  O   UNL     1      35.458 -16.927 -23.132  0.00  0.00    -0.430 OA
ATOM     32  C   UNL     1      34.683 -17.966 -23.743  0.00  0.00    +0.257 C 
ENDBRANCH  29  31
ENDBRANCH  21  23
ENDBRANCH   2  21
TORSDOF 5
ENDMDL
MODEL 7
REMARK VINA RESULT:      -9.7      3.792     12.119
REMARK  Name = 11689883
REMARK  5 active torsions:
REMARK  status: ('A' for Active; 'I' for Inactive)
REMARK    1  A    between atoms: C_2  and  C_21
REMARK    2  A    between atoms: C_5  and  N_9
REMARK    3  A    between atoms: N_10  and  C_15
REMARK    4  A    between atoms: C_21  and  N_23
REMARK    5  A    between atoms: C_29  and  O_31
REMARK                            x       y       z     vdW  Elec       q    Type
REMARK                         _______ _______ _______ _____ _____    ______ ____
ROOT
ATOM      1  F   UNL     1      33.222 -11.013 -23.731  0.00  0.00    -0.203 F 
ATOM      2  C   UNL     1      33.097 -12.815 -22.197  0.00  0.00    -0.014 C 
ATOM      3  C   UNL     1      32.674 -11.570 -22.639  0.00  0.00    +0.147 C 
ATOM      4  C   UNL     1      32.537 -13.401 -21.070  0.00  0.00    -0.004 C 
ATOM      5  C   UNL     1      31.671 -10.897 -21.941  0.00  0.00    +0.079 C 
ATOM      6  C   UNL     1      31.535 -12.729 -20.372  0.00  0.00    +0.001 C 
ATOM      7  C   UNL     1      31.102 -11.476 -20.807  0.00  0.00    +0.017 C 
ENDROOT
BRANCH   5   9
ATOM      8  O   UNL     1      32.606  -8.165 -21.180  0.00  0.00    -0.252 OA
ATOM      9  N   UNL     1      31.236  -9.644 -22.374  0.00  0.00    -0.266 N 
ATOM     10  N   UNL     1      30.989  -7.366 -22.668  0.00  0.00    -0.267 N 
ATOM     11  C   UNL     1      31.706  -8.364 -21.989  0.00  0.00    +0.308 C 
ATOM     12  H   UNL     1      30.506  -9.649 -23.034  0.00  0.00    +0.156 HD
ATOM     13  H   UNL     1      30.293  -7.681 -23.289  0.00  0.00    +0.156 HD
BRANCH  10  15
ATOM     14  N   UNL     1      32.218  -3.968 -23.360  0.00  0.00    -0.247 NA
ATOM     15  C   UNL     1      31.145  -5.963 -22.571  0.00  0.00    +0.071 C 
ATOM     16  C   UNL     1      30.419  -5.246 -21.644  0.00  0.00    +0.018 C 
ATOM     17  C   UNL     1      32.021  -5.304 -23.401  0.00  0.00    +0.113 C 
ATOM     18  C   UNL     1      30.594  -3.868 -21.571  0.00  0.00    +0.016 C 
ATOM     19  C   UNL     1      31.497  -3.283 -22.444  0.00  0.00    +0.059 C 
ATOM     20  C   UNL     1      31.710  -1.806 -22.394  0.00  0.00    +0.052 C 
ENDBRANCH  10  15
ENDBRANCH   5   9
BRANCH   2  21
ATOM     21  C   UNL     1      34.178 -13.545 -22.949  0.00  0.00    -0.047 C 
BRANCH  21  23
ATOM     22  O   UNL     1      36.982 -19.121 -22.533  0.00  0.00    -0.226 OA
ATOM     23  N   UNL     1      34.243 -14.958 -22.576  0.00  0.00    +0.392 N 
ATOM     24  N   UNL     1      35.538 -17.416 -21.899  0.00  0.00    -0.250 N 
ATOM     25  C   UNL     1      34.956 -15.731 -23.603  0.00  0.00    -0.055 C 
ATOM     26  C   UNL     1      34.895 -15.117 -21.267  0.00  0.00    -0.055 C 
ATOM     27  C   UNL     1      34.992 -17.214 -23.239  0.00  0.00    +0.074 C 
ATOM     28  C   UNL     1      34.934 -16.589 -20.852  0.00  0.00    +0.074 C 
ATOM     29  C   UNL     1      36.473 -18.424 -21.657  0.00  0.00    +0.405 C 
ATOM     30  H   UNL     1      33.291 -15.315 -22.507  0.00  0.00    -0.079 HD
BRANCH  29  31
ATOM     31  O   UNL     1      36.767 -18.563 -20.326  0.00  0.00    -0.430 OA
ATOM     32  C   UNL     1      36.736 -19.899 -19.809  0.00  0.00    +0.257 C 
ENDBRANCH  29  31
ENDBRANCH  21  23
ENDBRANCH   2  21
TORSDOF 5
ENDMDL
MODEL 8
REMARK VINA RESULT:      -9.7      2.523     10.536
REMARK  Name = 11689883
REMARK  5 active torsions:
REMARK  status: ('A' for Active; 'I' for Inactive)
REMARK    1  A    between atoms: C_2  and  C_21
REMARK    2  A    between atoms: C_5  and  N_9
REMARK    3  A    between atoms: N_10  and  C_15
REMARK    4  A    between atoms: C_21  and  N_23
REMARK    5  A    between atoms: C_29  and  O_31
REMARK                            x       y       z     vdW  Elec       q    Type
REMARK                         _______ _______ _______ _____ _____    ______ ____
ROOT
ATOM      1  F   UNL     1      34.560 -14.354 -21.287  0.00  0.00    -0.203 F 
ATOM      2  C   UNL     1      35.016 -16.208 -22.689  0.00  0.00    -0.014 C 
ATOM      3  C   UNL     1      34.395 -14.989 -22.458  0.00  0.00    +0.147 C 
ATOM      4  C   UNL     1      34.855 -16.874 -23.897  0.00  0.00    -0.004 C 
ATOM      5  C   UNL     1      33.597 -14.424 -23.453  0.00  0.00    +0.079 C 
ATOM      6  C   UNL     1      34.056 -16.310 -24.891  0.00  0.00    +0.001 C 
ATOM      7  C   UNL     1      33.427 -15.085 -24.670  0.00  0.00    +0.017 C 
ENDROOT
BRANCH   5   9
ATOM      8  O   UNL     1      34.496 -11.652 -24.104  0.00  0.00    -0.252 OA
ATOM      9  N   UNL     1      32.966 -13.199 -23.233  0.00  0.00    -0.266 N 
ATOM     10  N   UNL     1      32.477 -10.943 -23.160  0.00  0.00    -0.267 N 
ATOM     11  C   UNL     1      33.425 -11.898 -23.557  0.00  0.00    +0.308 C 
ATOM     12  H   UNL     1      32.086 -13.243 -22.794  0.00  0.00    +0.156 HD
ATOM     13  H   UNL     1      31.663 -11.294 -22.731  0.00  0.00    +0.156 HD
BRANCH  10  15
ATOM     14  N   UNL     1      33.238  -7.426 -22.392  0.00  0.00    -0.247 NA
ATOM     15  C   UNL     1      32.547  -9.536 -23.299  0.00  0.00    +0.071 C 
ATOM     16  C   UNL     1      32.021  -8.922 -24.415  0.00  0.00    +0.018 C 
ATOM     17  C   UNL     1      33.139  -8.772 -22.322  0.00  0.00    +0.113 C 
ATOM     18  C   UNL     1      32.104  -7.538 -24.524  0.00  0.00    +0.016 C 
ATOM     19  C   UNL     1      32.716  -6.842 -23.494  0.00  0.00    +0.059 C 
ATOM     20  C   UNL     1      32.823  -5.356 -23.577  0.00  0.00    +0.052 C 
ENDBRANCH  10  15
ENDBRANCH   5   9
BRANCH   2  21
ATOM     21  C   UNL     1      35.879 -16.821 -21.619  0.00  0.00    -0.047 C 
BRANCH  21  23
ATOM     22  O   UNL     1      35.798 -22.216 -18.454  0.00  0.00    -0.226 OA
ATOM     23  N   UNL     1      35.634 -18.256 -21.475  0.00  0.00    +0.392 N 
ATOM     24  N   UNL     1      35.104 -20.677 -20.050  0.00  0.00    -0.250 N 
ATOM     25  C   UNL     1      36.680 -18.878 -20.651  0.00  0.00    -0.055 C 
ATOM     26  C   UNL     1      34.306 -18.496 -20.891  0.00  0.00    -0.055 C 
ATOM     27  C   UNL     1      36.452 -20.384 -20.531  0.00  0.00    +0.074 C 
ATOM     28  C   UNL     1      34.026 -19.995 -20.771  0.00  0.00    +0.074 C 
ATOM     29  C   UNL     1      34.896 -21.641 -19.061  0.00  0.00    +0.405 C 
ATOM     30  H   UNL     1      35.660 -18.679 -22.403  0.00  0.00    -0.079 HD
BRANCH  29  31
ATOM     31  O   UNL     1      33.568 -21.887 -18.835  0.00  0.00    -0.430 OA
ATOM     32  C   UNL     1      33.264 -22.733 -17.719  0.00  0.00    +0.257 C 
ENDBRANCH  29  31
ENDBRANCH  21  23
ENDBRANCH   2  21
TORSDOF 5
ENDMDL
MODEL 9
REMARK VINA RESULT:      -9.6      5.110     12.936
REMARK  Name = 11689883
REMARK  5 active torsions:
REMARK  status: ('A' for Active; 'I' for Inactive)
REMARK    1  A    between atoms: C_2  and  C_21
REMARK    2  A    between atoms: C_5  and  N_9
REMARK    3  A    between atoms: N_10  and  C_15
REMARK    4  A    between atoms: C_21  and  N_23
REMARK    5  A    between atoms: C_29  and  O_31
REMARK                            x       y       z     vdW  Elec       q    Type
REMARK                         _______ _______ _______ _____ _____    ______ ____
ROOT
ATOM      1  F   UNL     1      32.310 -10.070 -22.663  0.00  0.00    -0.203 F 
ATOM      2  C   UNL     1      31.694 -10.824 -20.502  0.00  0.00    -0.014 C 
ATOM      3  C   UNL     1      32.078  -9.809 -21.366  0.00  0.00    +0.147 C 
ATOM      4  C   UNL     1      31.451 -10.566 -19.160  0.00  0.00    -0.004 C 
ATOM      5  C   UNL     1      32.224  -8.509 -20.879  0.00  0.00    +0.079 C 
ATOM      6  C   UNL     1      31.596  -9.267 -18.673  0.00  0.00    +0.001 C 
ATOM      7  C   UNL     1      31.983  -8.239 -19.532  0.00  0.00    +0.017 C 
ENDROOT
BRANCH   5   9
ATOM      8  O   UNL     1      30.738  -7.207 -23.118  0.00  0.00    -0.252 OA
ATOM      9  N   UNL     1      32.612  -7.479 -21.737  0.00  0.00    -0.266 N 
ATOM     10  N   UNL     1      32.642  -5.879 -23.403  0.00  0.00    -0.267 N 
ATOM     11  C   UNL     1      31.876  -6.884 -22.792  0.00  0.00    +0.308 C 
ATOM     12  H   UNL     1      33.515  -7.117 -21.590  0.00  0.00    +0.156 HD
ATOM     13  H   UNL     1      33.542  -5.734 -23.029  0.00  0.00    +0.156 HD
BRANCH  10  15
ATOM     14  N   UNL     1      32.460  -4.551 -26.829  0.00  0.00    -0.247 NA
ATOM     15  C   UNL     1      32.281  -5.047 -24.489  0.00  0.00    +0.071 C 
ATOM     16  C   UNL     1      31.441  -3.972 -24.291  0.00  0.00    +0.018 C 
ATOM     17  C   UNL     1      32.765  -5.306 -25.749  0.00  0.00    +0.113 C 
ATOM     18  C   UNL     1      31.104  -3.172 -25.378  0.00  0.00    +0.016 C 
ATOM     19  C   UNL     1      31.636  -3.502 -26.614  0.00  0.00    +0.059 C 
ATOM     20  C   UNL     1      31.296  -2.665 -27.803  0.00  0.00    +0.052 C 
ENDBRANCH  10  15
ENDBRANCH   5   9
BRANCH   2  21
ATOM     21  C   UNL     1      31.534 -12.226 -21.025  0.00  0.00    -0.047 C 
BRANCH  21  23
ATOM     22  O   UNL     1      35.384 -17.143 -21.402  0.00  0.00    -0.226 OA
ATOM     23  N   UNL     1      32.826 -12.867 -21.269  0.00  0.00    +0.392 N 
ATOM     24  N   UNL     1      34.577 -15.029 -21.930  0.00  0.00    -0.250 N 
ATOM     25  C   UNL     1      33.048 -13.963 -20.315  0.00  0.00    -0.055 C 
ATOM     26  C   UNL     1      32.902 -13.364 -22.652  0.00  0.00    -0.055 C 
ATOM     27  C   UNL     1      34.414 -14.611 -20.540  0.00  0.00    +0.074 C 
ATOM     28  C   UNL     1      34.264 -14.003 -22.928  0.00  0.00    +0.074 C 
ATOM     29  C   UNL     1      35.119 -16.279 -22.237  0.00  0.00    +0.405 C 
ATOM     30  H   UNL     1      33.560 -12.171 -21.136  0.00  0.00    -0.079 HD
BRANCH  29  31
ATOM     31  O   UNL     1      35.332 -16.447 -23.580  0.00  0.00    -0.430 OA
ATOM     32  C   UNL     1      34.542 -17.454 -24.222  0.00  0.00    +0.257 C 
ENDBRANCH  29  31
ENDBRANCH  21  23
ENDBRANCH   2  21
TORSDOF 5
ENDMDL
