MODEL 1
REMARK VINA RESULT:     -10.6      0.000      0.000
REMARK  Name = 23648971
REMARK  8 active torsions:
REMARK  status: ('A' for Active; 'I' for Inactive)
REMARK    1  A    between atoms: N_2  and  C_15
REMARK    2  A    between atoms: N_3  and  C_28
REMARK    3  A    between atoms: C_12  and  S_19
REMARK    4  A    between atoms: S_19  and  N_23
REMARK    5  A    between atoms: C_24  and  C_26
REMARK    6  A    between atoms: C_31  and  O_34
REMARK    7  A    between atoms: O_34  and  C_35
REMARK    8  A    between atoms: C_35  and  C_36
REMARK                            x       y       z     vdW  Elec       q    Type
REMARK                         _______ _______ _______ _____ _____    ______ ____
ROOT
ATOM      1  F   UNL     1      29.943 -24.550 -13.800  0.00  0.00    -0.198 F 
ATOM      2  N   UNL     1      31.944 -21.778 -18.024  0.00  0.00    -0.247 N 
ATOM      3  N   UNL     1      32.664 -24.556 -14.269  0.00  0.00    -0.285 N 
ATOM      4  N   UNL     1      32.322 -23.157 -16.163  0.00  0.00    -0.320 NA
ATOM      5  N   UNL     1      30.093 -22.455 -16.750  0.00  0.00    -0.167 NA
ATOM      6  C   UNL     1      31.429 -22.496 -16.927  0.00  0.00    +0.150 C 
ATOM      7  C   UNL     1      31.794 -23.835 -15.123  0.00  0.00    +0.226 C 
ATOM      8  C   UNL     1      30.445 -23.871 -14.837  0.00  0.00    +0.205 C 
ATOM      9  C   UNL     1      29.634 -23.155 -15.692  0.00  0.00    +0.145 C 
ATOM     10  H   UNL     1      31.255 -21.313 -18.552  0.00  0.00    +0.165 HD
ATOM     11  H   UNL     1      32.251 -25.353 -13.865  0.00  0.00    +0.155 HD
ENDROOT
BRANCH   2  15
ATOM     12  C   UNL     1      34.776 -20.529 -20.037  0.00  0.00    +0.123 C 
ATOM     13  C   UNL     1      35.842 -21.224 -19.486  0.00  0.00    -0.003 C 
ATOM     14  C   UNL     1      33.484 -20.703 -19.564  0.00  0.00    +0.035 C 
ATOM     15  C   UNL     1      33.254 -21.593 -18.515  0.00  0.00    +0.059 C 
ATOM     16  C   UNL     1      35.611 -22.114 -18.438  0.00  0.00    -0.002 C 
ATOM     17  C   UNL     1      34.316 -22.298 -17.953  0.00  0.00    +0.015 C 
ATOM     18  C   UNL     1      37.241 -21.049 -19.982  0.00  0.00    +0.032 C 
BRANCH  12  19
ATOM     19  S   UNL     1      35.035 -19.393 -21.366  0.00  0.00    +0.075 S 
ATOM     20  O   UNL     1      33.991 -19.645 -22.341  0.00  0.00    -0.150 OA
ATOM     21  O   UNL     1      36.432 -19.456 -21.750  0.00  0.00    -0.150 OA
BRANCH  19  23
ATOM     22  O   UNL     1      35.386 -16.436 -22.296  0.00  0.00    -0.274 OA
ATOM     23  N   UNL     1      34.730 -17.902 -20.585  0.00  0.00    -0.185 N 
ATOM     24  C   UNL     1      34.970 -16.612 -21.155  0.00  0.00    +0.241 C 
ATOM     25  H   UNL     1      34.361 -17.935 -19.673  0.00  0.00    +0.177 HD
BRANCH  24  26
ATOM     26  C   UNL     1      34.695 -15.466 -20.212  0.00  0.00    +0.087 C 
ATOM     27  C   UNL     1      34.402 -14.196 -20.988  0.00  0.00    +0.010 C 
ENDBRANCH  24  26
ENDBRANCH  19  23
ENDBRANCH  12  19
ENDBRANCH   2  15
BRANCH   3  28
ATOM     28  C   UNL     1      34.001 -24.357 -13.890  0.00  0.00    +0.050 C 
ATOM     29  C   UNL     1      35.021 -24.431 -14.842  0.00  0.00    +0.018 C 
ATOM     30  C   UNL     1      34.320 -24.085 -12.556  0.00  0.00    +0.018 C 
ATOM     31  C   UNL     1      36.663 -23.963 -13.132  0.00  0.00    +0.140 C 
ATOM     32  C   UNL     1      36.350 -24.234 -14.464  0.00  0.00    +0.038 C 
ATOM     33  C   UNL     1      35.649 -23.887 -12.179  0.00  0.00    +0.038 C 
BRANCH  31  34
ATOM     34  O   UNL     1      37.959 -23.771 -12.764  0.00  0.00    -0.461 OA
BRANCH  34  35
ATOM     35  C   UNL     1      38.704 -24.925 -12.381  0.00  0.00    +0.282 C 
BRANCH  35  36
ATOM     36  C   UNL     1      39.536 -25.391 -13.490  0.00  0.00    -0.031 C 
ATOM     37  C   UNL     1      40.221 -25.775 -14.399  0.00  0.00    -0.010 C 
ENDBRANCH  35  36
ENDBRANCH  34  35
ENDBRANCH  31  34
ENDBRANCH   3  28
TORSDOF 8
ENDMDL
MODEL 2
REMARK VINA RESULT:      -9.2      4.794      7.038
REMARK  Name = 23648971
REMARK  8 active torsions:
REMARK  status: ('A' for Active; 'I' for Inactive)
REMARK    1  A    between atoms: N_2  and  C_15
REMARK    2  A    between atoms: N_3  and  C_28
REMARK    3  A    between atoms: C_12  and  S_19
REMARK    4  A    between atoms: S_19  and  N_23
REMARK    5  A    between atoms: C_24  and  C_26
REMARK    6  A    between atoms: C_31  and  O_34
REMARK    7  A    between atoms: O_34  and  C_35
REMARK    8  A    between atoms: C_35  and  C_36
REMARK                            x       y       z     vdW  Elec       q    Type
REMARK                         _______ _______ _______ _____ _____    ______ ____
ROOT
ATOM      1  F   UNL     1      37.611 -20.951 -19.451  0.00  0.00    -0.198 F 
ATOM      2  N   UNL     1      32.660 -22.523 -17.855  0.00  0.00    -0.247 N 
ATOM      3  N   UNL     1      37.215 -21.772 -16.844  0.00  0.00    -0.285 N 
ATOM      4  N   UNL     1      34.918 -22.157 -17.334  0.00  0.00    -0.320 NA
ATOM      5  N   UNL     1      34.075 -21.728 -19.550  0.00  0.00    -0.167 NA
ATOM      6  C   UNL     1      33.945 -22.118 -18.266  0.00  0.00    +0.150 C 
ATOM      7  C   UNL     1      36.135 -21.761 -17.761  0.00  0.00    +0.226 C 
ATOM      8  C   UNL     1      36.396 -21.340 -19.048  0.00  0.00    +0.205 C 
ATOM      9  C   UNL     1      35.318 -21.344 -19.908  0.00  0.00    +0.145 C 
ATOM     10  H   UNL     1      31.983 -22.476 -18.568  0.00  0.00    +0.165 HD
ATOM     11  H   UNL     1      37.897 -21.086 -17.026  0.00  0.00    +0.155 HD
ENDROOT
BRANCH   2  15
ATOM     12  C   UNL     1      30.291 -23.402 -15.162  0.00  0.00    +0.123 C 
ATOM     13  C   UNL     1      31.144 -23.894 -14.186  0.00  0.00    -0.003 C 
ATOM     14  C   UNL     1      30.778 -22.946 -16.377  0.00  0.00    +0.035 C 
ATOM     15  C   UNL     1      32.151 -22.983 -16.622  0.00  0.00    +0.059 C 
ATOM     16  C   UNL     1      32.517 -23.931 -14.430  0.00  0.00    -0.002 C 
ATOM     17  C   UNL     1      33.020 -23.475 -15.649  0.00  0.00    +0.015 C 
ATOM     18  C   UNL     1      30.637 -24.391 -12.871  0.00  0.00    +0.032 C 
BRANCH  12  19
ATOM     19  S   UNL     1      28.547 -23.343 -14.885  0.00  0.00    +0.075 S 
ATOM     20  O   UNL     1      28.292 -22.170 -14.071  0.00  0.00    -0.150 OA
ATOM     21  O   UNL     1      28.115 -24.655 -14.441  0.00  0.00    -0.150 OA
BRANCH  19  23
ATOM     22  O   UNL     1      25.963 -21.967 -15.962  0.00  0.00    -0.274 OA
ATOM     23  N   UNL     1      27.973 -23.066 -16.471  0.00  0.00    -0.185 N 
ATOM     24  C   UNL     1      26.735 -22.427 -16.797  0.00  0.00    +0.241 C 
ATOM     25  H   UNL     1      28.539 -23.368 -17.218  0.00  0.00    +0.177 HD
BRANCH  24  26
ATOM     26  C   UNL     1      26.436 -22.392 -18.277  0.00  0.00    +0.087 C 
ATOM     27  C   UNL     1      25.570 -21.194 -18.617  0.00  0.00    +0.010 C 
ENDBRANCH  24  26
ENDBRANCH  19  23
ENDBRANCH  12  19
ENDBRANCH   2  15
BRANCH   3  28
ATOM     28  C   UNL     1      37.501 -22.572 -15.726  0.00  0.00    +0.050 C 
ATOM     29  C   UNL     1      36.639 -22.578 -14.626  0.00  0.00    +0.018 C 
ATOM     30  C   UNL     1      38.652 -23.366 -15.704  0.00  0.00    +0.018 C 
ATOM     31  C   UNL     1      38.073 -24.161 -13.497  0.00  0.00    +0.140 C 
ATOM     32  C   UNL     1      36.924 -23.371 -13.514  0.00  0.00    +0.038 C 
ATOM     33  C   UNL     1      38.936 -24.159 -14.592  0.00  0.00    +0.038 C 
BRANCH  31  34
ATOM     34  O   UNL     1      38.351 -24.934 -12.413  0.00  0.00    -0.461 OA
BRANCH  34  35
ATOM     35  C   UNL     1      37.555 -26.103 -12.226  0.00  0.00    +0.282 C 
BRANCH  35  36
ATOM     36  C   UNL     1      37.147 -26.658 -13.517  0.00  0.00    -0.031 C 
ATOM     37  C   UNL     1      36.813 -27.111 -14.577  0.00  0.00    -0.010 C 
ENDBRANCH  35  36
ENDBRANCH  34  35
ENDBRANCH  31  34
ENDBRANCH   3  28
TORSDOF 8
ENDMDL
MODEL 3
REMARK VINA RESULT:      -9.2      2.896      7.988
REMARK  Name = 23648971
REMARK  8 active torsions:
REMARK  status: ('A' for Active; 'I' for Inactive)
REMARK    1  A    between atoms: N_2  and  C_15
REMARK    2  A    between atoms: N_3  and  C_28
REMARK    3  A    between atoms: C_12  and  S_19
REMARK    4  A    between atoms: S_19  and  N_23
REMARK    5  A    between atoms: C_24  and  C_26
REMARK    6  A    between atoms: C_31  and  O_34
REMARK    7  A    between atoms: O_34  and  C_35
REMARK    8  A    between atoms: C_35  and  C_36
REMARK                            x       y       z     vdW  Elec       q    Type
REMARK                         _______ _______ _______ _____ _____    ______ ____
ROOT
ATOM      1  F   UNL     1      28.919 -23.657 -16.618  0.00  0.00    -0.198 F 
ATOM      2  N   UNL     1      32.639 -24.995 -12.890  0.00  0.00    -0.247 N 
ATOM      3  N   UNL     1      31.470 -22.616 -16.802  0.00  0.00    -0.285 N 
ATOM      4  N   UNL     1      32.078 -23.807 -14.834  0.00  0.00    -0.320 NA
ATOM      5  N   UNL     1      30.451 -25.188 -13.715  0.00  0.00    -0.167 NA
ATOM      6  C   UNL     1      31.678 -24.648 -13.859  0.00  0.00    +0.150 C 
ATOM      7  C   UNL     1      31.132 -23.494 -15.743  0.00  0.00    +0.226 C 
ATOM      8  C   UNL     1      29.842 -23.981 -15.706  0.00  0.00    +0.205 C 
ATOM      9  C   UNL     1      29.555 -24.832 -14.659  0.00  0.00    +0.145 C 
ATOM     10  H   UNL     1      32.301 -25.610 -12.199  0.00  0.00    +0.165 HD
ATOM     11  H   UNL     1      30.714 -22.075 -17.126  0.00  0.00    +0.155 HD
ENDROOT
BRANCH   2  15
ATOM     12  C   UNL     1      36.262 -24.619 -13.500  0.00  0.00    +0.123 C 
ATOM     13  C   UNL     1      36.668 -23.929 -12.369  0.00  0.00    -0.003 C 
ATOM     14  C   UNL     1      34.935 -24.978 -13.685  0.00  0.00    +0.035 C 
ATOM     15  C   UNL     1      33.993 -24.637 -12.714  0.00  0.00    +0.059 C 
ATOM     16  C   UNL     1      35.726 -23.589 -11.398  0.00  0.00    -0.002 C 
ATOM     17  C   UNL     1      34.388 -23.943 -11.572  0.00  0.00    +0.015 C 
ATOM     18  C   UNL     1      38.093 -23.533 -12.154  0.00  0.00    +0.032 C 
BRANCH  12  19
ATOM     19  S   UNL     1      37.430 -25.064 -14.750  0.00  0.00    +0.075 S 
ATOM     20  O   UNL     1      37.702 -23.862 -15.515  0.00  0.00    -0.150 OA
ATOM     21  O   UNL     1      36.951 -26.264 -15.409  0.00  0.00    -0.150 OA
BRANCH  19  23
ATOM     22  O   UNL     1      40.299 -26.026 -15.505  0.00  0.00    -0.274 OA
ATOM     23  N   UNL     1      38.796 -25.449 -13.797  0.00  0.00    -0.185 N 
ATOM     24  C   UNL     1      40.053 -25.904 -14.309  0.00  0.00    +0.241 C 
ATOM     25  H   UNL     1      38.712 -25.350 -12.821  0.00  0.00    +0.177 HD
BRANCH  24  26
ATOM     26  C   UNL     1      41.058 -26.255 -13.238  0.00  0.00    +0.087 C 
ATOM     27  C   UNL     1      41.616 -27.646 -13.468  0.00  0.00    +0.010 C 
ENDBRANCH  24  26
ENDBRANCH  19  23
ENDBRANCH  12  19
ENDBRANCH   2  15
BRANCH   3  28
ATOM     28  C   UNL     1      32.675 -22.366 -17.478  0.00  0.00    +0.050 C 
ATOM     29  C   UNL     1      33.879 -22.872 -16.982  0.00  0.00    +0.018 C 
ATOM     30  C   UNL     1      32.678 -21.605 -18.652  0.00  0.00    +0.018 C 
ATOM     31  C   UNL     1      35.074 -21.863 -18.823  0.00  0.00    +0.140 C 
ATOM     32  C   UNL     1      35.076 -22.622 -17.653  0.00  0.00    +0.038 C 
ATOM     33  C   UNL     1      33.875 -21.356 -19.323  0.00  0.00    +0.038 C 
BRANCH  31  34
ATOM     34  O   UNL     1      36.242 -21.619 -19.478  0.00  0.00    -0.461 OA
BRANCH  34  35
ATOM     35  C   UNL     1      36.918 -20.402 -19.169  0.00  0.00    +0.282 C 
BRANCH  35  36
ATOM     36  C   UNL     1      36.811 -19.458 -20.282  0.00  0.00    -0.031 C 
ATOM     37  C   UNL     1      36.721 -18.682 -21.194  0.00  0.00    -0.010 C 
ENDBRANCH  35  36
ENDBRANCH  34  35
ENDBRANCH  31  34
ENDBRANCH   3  28
TORSDOF 8
ENDMDL
MODEL 4
REMARK VINA RESULT:      -9.1     10.924     15.343
REMARK  Name = 23648971
REMARK  8 active torsions:
REMARK  status: ('A' for Active; 'I' for Inactive)
REMARK    1  A    between atoms: N_2  and  C_15
REMARK    2  A    between atoms: N_3  and  C_28
REMARK    3  A    between atoms: C_12  and  S_19
REMARK    4  A    between atoms: S_19  and  N_23
REMARK    5  A    between atoms: C_24  and  C_26
REMARK    6  A    between atoms: C_31  and  O_34
REMARK    7  A    between atoms: O_34  and  C_35
REMARK    8  A    between atoms: C_35  and  C_36
REMARK                            x       y       z     vdW  Elec       q    Type
REMARK                         _______ _______ _______ _____ _____    ______ ____
ROOT
ATOM      1  F   UNL     1      30.738 -10.784 -18.144  0.00  0.00    -0.198 F 
ATOM      2  N   UNL     1      33.160  -6.703 -20.792  0.00  0.00    -0.247 N 
ATOM      3  N   UNL     1      31.453 -11.110 -20.791  0.00  0.00    -0.285 N 
ATOM      4  N   UNL     1      32.319  -8.894 -20.811  0.00  0.00    -0.320 NA
ATOM      5  N   UNL     1      32.209  -7.544 -18.818  0.00  0.00    -0.167 NA
ATOM      6  C   UNL     1      32.535  -7.764 -20.108  0.00  0.00    +0.150 C 
ATOM      7  C   UNL     1      31.716  -9.887 -20.126  0.00  0.00    +0.226 C 
ATOM      8  C   UNL     1      31.335  -9.786 -18.805  0.00  0.00    +0.205 C 
ATOM      9  C   UNL     1      31.609  -8.579 -18.195  0.00  0.00    +0.145 C 
ATOM     10  H   UNL     1      33.296  -5.900 -20.239  0.00  0.00    +0.165 HD
ATOM     11  H   UNL     1      30.658 -11.582 -20.455  0.00  0.00    +0.155 HD
ENDROOT
BRANCH   2  15
ATOM     12  C   UNL     1      33.517  -5.510 -24.269  0.00  0.00    +0.123 C 
ATOM     13  C   UNL     1      34.568  -6.290 -24.728  0.00  0.00    -0.003 C 
ATOM     14  C   UNL     1      33.042  -5.637 -22.972  0.00  0.00    +0.035 C 
ATOM     15  C   UNL     1      33.633  -6.565 -22.114  0.00  0.00    +0.059 C 
ATOM     16  C   UNL     1      35.158  -7.218 -23.870  0.00  0.00    -0.002 C 
ATOM     17  C   UNL     1      34.690  -7.356 -22.563  0.00  0.00    +0.015 C 
ATOM     18  C   UNL     1      35.093  -6.167 -26.121  0.00  0.00    +0.032 C 
BRANCH  12  19
ATOM     19  S   UNL     1      32.748  -4.324 -25.329  0.00  0.00    +0.075 S 
ATOM     20  O   UNL     1      31.919  -5.068 -26.258  0.00  0.00    -0.150 OA
ATOM     21  O   UNL     1      33.773  -3.421 -25.816  0.00  0.00    -0.150 OA
BRANCH  19  23
ATOM     22  O   UNL     1      30.775  -1.932 -25.676  0.00  0.00    -0.274 OA
ATOM     23  N   UNL     1      31.746  -3.495 -24.218  0.00  0.00    -0.185 N 
ATOM     24  C   UNL     1      30.902  -2.385 -24.543  0.00  0.00    +0.241 C 
ATOM     25  H   UNL     1      31.750  -3.805 -23.284  0.00  0.00    +0.177 HD
BRANCH  24  26
ATOM     26  C   UNL     1      30.193  -1.788 -23.351  0.00  0.00    +0.087 C 
ATOM     27  C   UNL     1      30.642  -2.466 -22.071  0.00  0.00    +0.010 C 
ENDBRANCH  24  26
ENDBRANCH  19  23
ENDBRANCH  12  19
ENDBRANCH   2  15
BRANCH   3  28
ATOM     28  C   UNL     1      32.106 -11.779 -21.839  0.00  0.00    +0.050 C 
ATOM     29  C   UNL     1      32.327 -13.157 -21.765  0.00  0.00    +0.018 C 
ATOM     30  C   UNL     1      32.542 -11.071 -22.963  0.00  0.00    +0.018 C 
ATOM     31  C   UNL     1      33.410 -13.110 -23.924  0.00  0.00    +0.140 C 
ATOM     32  C   UNL     1      32.977 -13.821 -22.805  0.00  0.00    +0.038 C 
ATOM     33  C   UNL     1      33.191 -11.735 -24.003  0.00  0.00    +0.038 C 
BRANCH  31  34
ATOM     34  O   UNL     1      34.043 -13.758 -24.939  0.00  0.00    -0.461 OA
BRANCH  34  35
ATOM     35  C   UNL     1      33.454 -14.971 -25.404  0.00  0.00    +0.282 C 
BRANCH  35  36
ATOM     36  C   UNL     1      34.084 -16.126 -24.766  0.00  0.00    -0.031 C 
ATOM     37  C   UNL     1      34.599 -17.075 -24.240  0.00  0.00    -0.010 C 
ENDBRANCH  35  36
ENDBRANCH  34  35
ENDBRANCH  31  34
ENDBRANCH   3  28
TORSDOF 8
ENDMDL
MODEL 5
REMARK VINA RESULT:      -9.1      1.541      2.063
REMARK  Name = 23648971
REMARK  8 active torsions:
REMARK  status: ('A' for Active; 'I' for Inactive)
REMARK    1  A    between atoms: N_2  and  C_15
REMARK    2  A    between atoms: N_3  and  C_28
REMARK    3  A    between atoms: C_12  and  S_19
REMARK    4  A    between atoms: S_19  and  N_23
REMARK    5  A    between atoms: C_24  and  C_26
REMARK    6  A    between atoms: C_31  and  O_34
REMARK    7  A    between atoms: O_34  and  C_35
REMARK    8  A    between atoms: C_35  and  C_36
REMARK                            x       y       z     vdW  Elec       q    Type
REMARK                         _______ _______ _______ _____ _____    ______ ____
ROOT
ATOM      1  F   UNL     1      29.937 -24.459 -13.743  0.00  0.00    -0.198 F 
ATOM      2  N   UNL     1      31.933 -21.828 -18.058  0.00  0.00    -0.247 N 
ATOM      3  N   UNL     1      32.652 -24.517 -14.240  0.00  0.00    -0.285 N 
ATOM      4  N   UNL     1      32.311 -23.163 -16.166  0.00  0.00    -0.320 NA
ATOM      5  N   UNL     1      30.086 -22.443 -16.749  0.00  0.00    -0.167 NA
ATOM      6  C   UNL     1      31.419 -22.509 -16.938  0.00  0.00    +0.150 C 
ATOM      7  C   UNL     1      31.784 -23.805 -15.104  0.00  0.00    +0.226 C 
ATOM      8  C   UNL     1      30.438 -23.814 -14.803  0.00  0.00    +0.205 C 
ATOM      9  C   UNL     1      29.628 -23.109 -15.668  0.00  0.00    +0.145 C 
ATOM     10  H   UNL     1      31.245 -21.366 -18.592  0.00  0.00    +0.165 HD
ATOM     11  H   UNL     1      32.233 -25.297 -13.811  0.00  0.00    +0.155 HD
ENDROOT
BRANCH   2  15
ATOM     12  C   UNL     1      34.832 -20.450 -19.884  0.00  0.00    +0.123 C 
ATOM     13  C   UNL     1      35.823 -21.369 -19.574  0.00  0.00    -0.003 C 
ATOM     14  C   UNL     1      33.544 -20.590 -19.391  0.00  0.00    +0.035 C 
ATOM     15  C   UNL     1      33.240 -21.674 -18.568  0.00  0.00    +0.059 C 
ATOM     16  C   UNL     1      35.519 -22.453 -18.752  0.00  0.00    -0.002 C 
ATOM     17  C   UNL     1      34.227 -22.605 -18.249  0.00  0.00    +0.015 C 
ATOM     18  C   UNL     1      37.217 -21.234 -20.095  0.00  0.00    +0.032 C 
BRANCH  12  19
ATOM     19  S   UNL     1      35.185 -19.064 -20.922  0.00  0.00    +0.075 S 
ATOM     20  O   UNL     1      36.629 -18.940 -20.980  0.00  0.00    -0.150 OA
ATOM     21  O   UNL     1      34.368 -17.949 -20.481  0.00  0.00    -0.150 OA
BRANCH  19  23
ATOM     22  O   UNL     1      34.785 -17.645 -23.671  0.00  0.00    -0.274 OA
ATOM     23  N   UNL     1      34.605 -19.628 -22.429  0.00  0.00    -0.185 N 
ATOM     24  C   UNL     1      34.462 -18.827 -23.606  0.00  0.00    +0.241 C 
ATOM     25  H   UNL     1      34.351 -20.577 -22.491  0.00  0.00    +0.177 HD
BRANCH  24  26
ATOM     26  C   UNL     1      33.844 -19.560 -24.772  0.00  0.00    +0.087 C 
ATOM     27  C   UNL     1      32.498 -18.957 -25.126  0.00  0.00    +0.010 C 
ENDBRANCH  24  26
ENDBRANCH  19  23
ENDBRANCH  12  19
ENDBRANCH   2  15
BRANCH   3  28
ATOM     28  C   UNL     1      33.996 -24.327 -13.880  0.00  0.00    +0.050 C 
ATOM     29  C   UNL     1      34.346 -24.147 -12.539  0.00  0.00    +0.018 C 
ATOM     30  C   UNL     1      34.993 -24.314 -14.860  0.00  0.00    +0.018 C 
ATOM     31  C   UNL     1      36.672 -23.945 -13.162  0.00  0.00    +0.140 C 
ATOM     32  C   UNL     1      35.681 -23.957 -12.181  0.00  0.00    +0.038 C 
ATOM     33  C   UNL     1      36.328 -24.124 -14.501  0.00  0.00    +0.038 C 
BRANCH  31  34
ATOM     34  O   UNL     1      37.973 -23.759 -12.813  0.00  0.00    -0.461 OA
BRANCH  34  35
ATOM     35  C   UNL     1      38.696 -24.904 -12.362  0.00  0.00    +0.282 C 
BRANCH  35  36
ATOM     36  C   UNL     1      39.537 -25.435 -13.434  0.00  0.00    -0.031 C 
ATOM     37  C   UNL     1      40.227 -25.874 -14.314  0.00  0.00    -0.010 C 
ENDBRANCH  35  36
ENDBRANCH  34  35
ENDBRANCH  31  34
ENDBRANCH   3  28
TORSDOF 8
ENDMDL
MODEL 6
REMARK VINA RESULT:      -8.8     10.938     15.299
REMARK  Name = 23648971
REMARK  8 active torsions:
REMARK  status: ('A' for Active; 'I' for Inactive)
REMARK    1  A    between atoms: N_2  and  C_15
REMARK    2  A    between atoms: N_3  and  C_28
REMARK    3  A    between atoms: C_12  and  S_19
REMARK    4  A    between atoms: S_19  and  N_23
REMARK    5  A    between atoms: C_24  and  C_26
REMARK    6  A    between atoms: C_31  and  O_34
REMARK    7  A    between atoms: O_34  and  C_35
REMARK    8  A    between atoms: C_35  and  C_36
REMARK                            x       y       z     vdW  Elec       q    Type
REMARK                         _______ _______ _______ _____ _____    ______ ____
ROOT
ATOM      1  F   UNL     1      30.576 -10.434 -18.393  0.00  0.00    -0.198 F 
ATOM      2  N   UNL     1      33.264  -6.562 -21.097  0.00  0.00    -0.247 N 
ATOM      3  N   UNL     1      31.405 -10.905 -20.985  0.00  0.00    -0.285 N 
ATOM      4  N   UNL     1      32.348  -8.722 -21.061  0.00  0.00    -0.320 NA
ATOM      5  N   UNL     1      32.191  -7.279 -19.137  0.00  0.00    -0.167 NA
ATOM      6  C   UNL     1      32.569  -7.569 -20.399  0.00  0.00    +0.150 C 
ATOM      7  C   UNL     1      31.679  -9.663 -20.363  0.00  0.00    +0.226 C 
ATOM      8  C   UNL     1      31.239  -9.488 -19.067  0.00  0.00    +0.205 C 
ATOM      9  C   UNL     1      31.526  -8.264 -18.499  0.00  0.00    +0.145 C 
ATOM     10  H   UNL     1      33.401  -5.739 -20.574  0.00  0.00    +0.165 HD
ATOM     11  H   UNL     1      30.578 -11.335 -20.667  0.00  0.00    +0.155 HD
ENDROOT
BRANCH   2  15
ATOM     12  C   UNL     1      33.749  -5.636 -24.639  0.00  0.00    +0.123 C 
ATOM     13  C   UNL     1      34.871  -6.378 -24.974  0.00  0.00    -0.003 C 
ATOM     14  C   UNL     1      33.207  -5.688 -23.364  0.00  0.00    +0.035 C 
ATOM     15  C   UNL     1      33.804  -6.501 -22.400  0.00  0.00    +0.059 C 
ATOM     16  C   UNL     1      35.467  -7.192 -24.010  0.00  0.00    -0.002 C 
ATOM     17  C   UNL     1      34.933  -7.253 -22.723  0.00  0.00    +0.015 C 
ATOM     18  C   UNL     1      35.469  -6.334 -26.343  0.00  0.00    +0.032 C 
BRANCH  12  19
ATOM     19  S   UNL     1      32.970  -4.595 -25.836  0.00  0.00    +0.075 S 
ATOM     20  O   UNL     1      33.774  -3.391 -25.930  0.00  0.00    -0.150 OA
ATOM     21  O   UNL     1      31.558  -4.514 -25.515  0.00  0.00    -0.150 OA
BRANCH  19  23
ATOM     22  O   UNL     1      32.331  -3.997 -28.830  0.00  0.00    -0.274 OA
ATOM     23  N   UNL     1      33.174  -5.523 -27.258  0.00  0.00    -0.185 N 
ATOM     24  C   UNL     1      32.802  -5.101 -28.575  0.00  0.00    +0.241 C 
ATOM     25  H   UNL     1      33.579  -6.415 -27.164  0.00  0.00    +0.177 HD
BRANCH  24  26
ATOM     26  C   UNL     1      33.014  -6.154 -29.635  0.00  0.00    +0.087 C 
ATOM     27  C   UNL     1      34.492  -6.449 -29.805  0.00  0.00    +0.010 C 
ENDBRANCH  24  26
ENDBRANCH  19  23
ENDBRANCH  12  19
ENDBRANCH   2  15
BRANCH   3  28
ATOM     28  C   UNL     1      32.083 -11.643 -21.968  0.00  0.00    +0.050 C 
ATOM     29  C   UNL     1      32.192 -13.032 -21.855  0.00  0.00    +0.018 C 
ATOM     30  C   UNL     1      32.656 -10.993 -23.065  0.00  0.00    +0.018 C 
ATOM     31  C   UNL     1      33.437 -13.112 -23.925  0.00  0.00    +0.140 C 
ATOM     32  C   UNL     1      32.867 -13.765 -22.832  0.00  0.00    +0.038 C 
ATOM     33  C   UNL     1      33.331 -11.727 -24.042  0.00  0.00    +0.038 C 
BRANCH  31  34
ATOM     34  O   UNL     1      34.095 -13.827 -24.877  0.00  0.00    -0.461 OA
BRANCH  34  35
ATOM     35  C   UNL     1      33.487 -15.041 -25.315  0.00  0.00    +0.282 C 
BRANCH  35  36
ATOM     36  C   UNL     1      34.158 -16.196 -24.719  0.00  0.00    -0.031 C 
ATOM     37  C   UNL     1      34.711 -17.143 -24.230  0.00  0.00    -0.010 C 
ENDBRANCH  35  36
ENDBRANCH  34  35
ENDBRANCH  31  34
ENDBRANCH   3  28
TORSDOF 8
ENDMDL
MODEL 7
REMARK VINA RESULT:      -8.4      3.141      8.384
REMARK  Name = 23648971
REMARK  8 active torsions:
REMARK  status: ('A' for Active; 'I' for Inactive)
REMARK    1  A    between atoms: N_2  and  C_15
REMARK    2  A    between atoms: N_3  and  C_28
REMARK    3  A    between atoms: C_12  and  S_19
REMARK    4  A    between atoms: S_19  and  N_23
REMARK    5  A    between atoms: C_24  and  C_26
REMARK    6  A    between atoms: C_31  and  O_34
REMARK    7  A    between atoms: O_34  and  C_35
REMARK    8  A    between atoms: C_35  and  C_36
REMARK                            x       y       z     vdW  Elec       q    Type
REMARK                         _______ _______ _______ _____ _____    ______ ____
ROOT
ATOM      1  F   UNL     1      28.595 -23.643 -16.630  0.00  0.00    -0.198 F 
ATOM      2  N   UNL     1      32.797 -24.835 -13.398  0.00  0.00    -0.247 N 
ATOM      3  N   UNL     1      31.030 -22.412 -17.050  0.00  0.00    -0.285 N 
ATOM      4  N   UNL     1      31.939 -23.624 -15.215  0.00  0.00    -0.320 NA
ATOM      5  N   UNL     1      30.548 -25.159 -13.983  0.00  0.00    -0.167 NA
ATOM      6  C   UNL     1      31.711 -24.526 -14.239  0.00  0.00    +0.150 C 
ATOM      7  C   UNL     1      30.876 -23.350 -15.999  0.00  0.00    +0.226 C 
ATOM      8  C   UNL     1      29.635 -23.930 -15.840  0.00  0.00    +0.205 C 
ATOM      9  C   UNL     1      29.528 -24.836 -14.806  0.00  0.00    +0.145 C 
ATOM     10  H   UNL     1      32.583 -25.497 -12.701  0.00  0.00    +0.165 HD
ATOM     11  H   UNL     1      30.207 -21.918 -17.264  0.00  0.00    +0.155 HD
ENDROOT
BRANCH   2  15
ATOM     12  C   UNL     1      36.382 -24.602 -12.540  0.00  0.00    +0.123 C 
ATOM     13  C   UNL     1      36.777 -23.497 -13.280  0.00  0.00    -0.003 C 
ATOM     14  C   UNL     1      35.071 -25.054 -12.570  0.00  0.00    +0.035 C 
ATOM     15  C   UNL     1      34.134 -24.385 -13.358  0.00  0.00    +0.059 C 
ATOM     16  C   UNL     1      35.840 -22.828 -14.067  0.00  0.00    -0.002 C 
ATOM     17  C   UNL     1      34.518 -23.273 -14.106  0.00  0.00    +0.015 C 
ATOM     18  C   UNL     1      38.185 -22.996 -13.261  0.00  0.00    +0.032 C 
BRANCH  12  19
ATOM     19  S   UNL     1      37.544 -25.472 -11.534  0.00  0.00    +0.075 S 
ATOM     20  O   UNL     1      36.998 -26.798 -11.316  0.00  0.00    -0.150 OA
ATOM     21  O   UNL     1      37.892 -24.625 -10.409  0.00  0.00    -0.150 OA
BRANCH  19  23
ATOM     22  O   UNL     1      38.021 -27.133 -14.131  0.00  0.00    -0.274 OA
ATOM     23  N   UNL     1      38.880 -25.579 -12.596  0.00  0.00    -0.185 N 
ATOM     24  C   UNL     1      38.945 -26.421 -13.751  0.00  0.00    +0.241 C 
ATOM     25  H   UNL     1      39.664 -25.018 -12.397  0.00  0.00    +0.177 HD
BRANCH  24  26
ATOM     26  C   UNL     1      40.278 -26.383 -14.460  0.00  0.00    +0.087 C 
ATOM     27  C   UNL     1      40.806 -24.963 -14.523  0.00  0.00    +0.010 C 
ENDBRANCH  24  26
ENDBRANCH  19  23
ENDBRANCH  12  19
ENDBRANCH   2  15
BRANCH   3  28
ATOM     28  C   UNL     1      32.130 -22.051 -17.844  0.00  0.00    +0.050 C 
ATOM     29  C   UNL     1      32.021 -21.002 -18.762  0.00  0.00    +0.018 C 
ATOM     30  C   UNL     1      33.342 -22.738 -17.724  0.00  0.00    +0.018 C 
ATOM     31  C   UNL     1      34.320 -21.333 -19.429  0.00  0.00    +0.140 C 
ATOM     32  C   UNL     1      33.114 -20.644 -19.552  0.00  0.00    +0.038 C 
ATOM     33  C   UNL     1      34.434 -22.379 -18.514  0.00  0.00    +0.038 C 
BRANCH  31  34
ATOM     34  O   UNL     1      35.385 -20.984 -20.199  0.00  0.00    -0.461 OA
BRANCH  34  35
ATOM     35  C   UNL     1      35.250 -19.813 -21.004  0.00  0.00    +0.282 C 
BRANCH  35  36
ATOM     36  C   UNL     1      36.551 -19.177 -21.207  0.00  0.00    -0.031 C 
ATOM     37  C   UNL     1      37.619 -18.655 -21.377  0.00  0.00    -0.010 C 
ENDBRANCH  35  36
ENDBRANCH  34  35
ENDBRANCH  31  34
ENDBRANCH   3  28
TORSDOF 8
ENDMDL
MODEL 8
REMARK VINA RESULT:      -8.4      3.141      7.131
REMARK  Name = 23648971
REMARK  8 active torsions:
REMARK  status: ('A' for Active; 'I' for Inactive)
REMARK    1  A    between atoms: N_2  and  C_15
REMARK    2  A    between atoms: N_3  and  C_28
REMARK    3  A    between atoms: C_12  and  S_19
REMARK    4  A    between atoms: S_19  and  N_23
REMARK    5  A    between atoms: C_24  and  C_26
REMARK    6  A    between atoms: C_31  and  O_34
REMARK    7  A    between atoms: O_34  and  C_35
REMARK    8  A    between atoms: C_35  and  C_36
REMARK                            x       y       z     vdW  Elec       q    Type
REMARK                         _______ _______ _______ _____ _____    ______ ____
ROOT
ATOM      1  F   UNL     1      28.605 -23.848 -16.319  0.00  0.00    -0.198 F 
ATOM      2  N   UNL     1      32.477 -25.220 -12.762  0.00  0.00    -0.247 N 
ATOM      3  N   UNL     1      31.136 -22.773 -16.575  0.00  0.00    -0.285 N 
ATOM      4  N   UNL     1      31.831 -23.998 -14.657  0.00  0.00    -0.320 NA
ATOM      5  N   UNL     1      30.262 -25.421 -13.509  0.00  0.00    -0.167 NA
ATOM      6  C   UNL     1      31.477 -24.864 -13.687  0.00  0.00    +0.150 C 
ATOM      7  C   UNL     1      30.848 -23.677 -15.524  0.00  0.00    +0.226 C 
ATOM      8  C   UNL     1      29.566 -24.180 -15.449  0.00  0.00    +0.205 C 
ATOM      9  C   UNL     1      29.327 -25.056 -14.411  0.00  0.00    +0.145 C 
ATOM     10  H   UNL     1      32.172 -25.853 -12.072  0.00  0.00    +0.165 HD
ATOM     11  H   UNL     1      30.362 -22.235 -16.859  0.00  0.00    +0.155 HD
ENDROOT
BRANCH   2  15
ATOM     12  C   UNL     1      36.122 -25.036 -13.331  0.00  0.00    +0.123 C 
ATOM     13  C   UNL     1      36.511 -24.117 -12.369  0.00  0.00    -0.003 C 
ATOM     14  C   UNL     1      34.793 -25.410 -13.471  0.00  0.00    +0.035 C 
ATOM     15  C   UNL     1      33.832 -24.850 -12.629  0.00  0.00    +0.059 C 
ATOM     16  C   UNL     1      35.550 -23.558 -11.527  0.00  0.00    -0.002 C 
ATOM     17  C   UNL     1      34.211 -23.925 -11.657  0.00  0.00    +0.015 C 
ATOM     18  C   UNL     1      37.937 -23.702 -12.204  0.00  0.00    +0.032 C 
BRANCH  12  19
ATOM     19  S   UNL     1      37.313 -25.763 -14.415  0.00  0.00    +0.075 S 
ATOM     20  O   UNL     1      36.570 -26.456 -15.450  0.00  0.00    -0.150 OA
ATOM     21  O   UNL     1      38.286 -26.473 -13.607  0.00  0.00    -0.150 OA
BRANCH  19  23
ATOM     22  O   UNL     1      36.153 -22.980 -15.215  0.00  0.00    -0.274 OA
ATOM     23  N   UNL     1      38.042 -24.367 -15.081  0.00  0.00    -0.185 N 
ATOM     24  C   UNL     1      37.350 -23.159 -15.415  0.00  0.00    +0.241 C 
ATOM     25  H   UNL     1      39.012 -24.397 -15.248  0.00  0.00    +0.177 HD
BRANCH  24  26
ATOM     26  C   UNL     1      38.224 -22.117 -16.070  0.00  0.00    +0.087 C 
ATOM     27  C   UNL     1      37.405 -20.896 -16.446  0.00  0.00    +0.010 C 
ENDBRANCH  24  26
ENDBRANCH  19  23
ENDBRANCH  12  19
ENDBRANCH   2  15
BRANCH   3  28
ATOM     28  C   UNL     1      32.311 -22.494 -17.291  0.00  0.00    +0.050 C 
ATOM     29  C   UNL     1      32.288 -21.592 -18.358  0.00  0.00    +0.018 C 
ATOM     30  C   UNL     1      33.513 -23.119 -16.942  0.00  0.00    +0.018 C 
ATOM     31  C   UNL     1      34.652 -21.942 -18.717  0.00  0.00    +0.140 C 
ATOM     32  C   UNL     1      33.456 -21.316 -19.069  0.00  0.00    +0.038 C 
ATOM     33  C   UNL     1      34.680 -22.842 -17.653  0.00  0.00    +0.038 C 
BRANCH  31  34
ATOM     34  O   UNL     1      35.791 -21.673 -19.411  0.00  0.00    -0.461 OA
BRANCH  34  35
ATOM     35  C   UNL     1      35.654 -20.938 -20.627  0.00  0.00    +0.282 C 
BRANCH  35  36
ATOM     36  C   UNL     1      36.531 -19.769 -20.622  0.00  0.00    -0.031 C 
ATOM     37  C   UNL     1      37.250 -18.806 -20.618  0.00  0.00    -0.010 C 
ENDBRANCH  35  36
ENDBRANCH  34  35
ENDBRANCH  31  34
ENDBRANCH   3  28
TORSDOF 8
ENDMDL
MODEL 9
REMARK VINA RESULT:      -7.7      4.770      7.388
REMARK  Name = 23648971
REMARK  8 active torsions:
REMARK  status: ('A' for Active; 'I' for Inactive)
REMARK    1  A    between atoms: N_2  and  C_15
REMARK    2  A    between atoms: N_3  and  C_28
REMARK    3  A    between atoms: C_12  and  S_19
REMARK    4  A    between atoms: S_19  and  N_23
REMARK    5  A    between atoms: C_24  and  C_26
REMARK    6  A    between atoms: C_31  and  O_34
REMARK    7  A    between atoms: O_34  and  C_35
REMARK    8  A    between atoms: C_35  and  C_36
REMARK                            x       y       z     vdW  Elec       q    Type
REMARK                         _______ _______ _______ _____ _____    ______ ____
ROOT
ATOM      1  F   UNL     1      37.184 -21.136 -19.858  0.00  0.00    -0.198 F 
ATOM      2  N   UNL     1      32.298 -22.533 -17.932  0.00  0.00    -0.247 N 
ATOM      3  N   UNL     1      36.859 -21.576 -17.151  0.00  0.00    -0.285 N 
ATOM      4  N   UNL     1      34.560 -22.062 -17.524  0.00  0.00    -0.320 NA
ATOM      5  N   UNL     1      33.661 -21.971 -19.758  0.00  0.00    -0.167 NA
ATOM      6  C   UNL     1      33.566 -22.173 -18.428  0.00  0.00    +0.150 C 
ATOM      7  C   UNL     1      35.760 -21.714 -18.033  0.00  0.00    +0.226 C 
ATOM      8  C   UNL     1      35.985 -21.480 -19.374  0.00  0.00    +0.205 C 
ATOM      9  C   UNL     1      34.888 -21.625 -20.198  0.00  0.00    +0.145 C 
ATOM     10  H   UNL     1      31.605 -22.600 -18.628  0.00  0.00    +0.165 HD
ATOM     11  H   UNL     1      37.524 -20.914 -17.446  0.00  0.00    +0.155 HD
ENDROOT
BRANCH   2  15
ATOM     12  C   UNL     1      32.168 -23.757 -14.450  0.00  0.00    +0.123 C 
ATOM     13  C   UNL     1      30.890 -23.379 -14.066  0.00  0.00    -0.003 C 
ATOM     14  C   UNL     1      32.645 -23.484 -15.724  0.00  0.00    +0.035 C 
ATOM     15  C   UNL     1      31.824 -22.817 -16.634  0.00  0.00    +0.059 C 
ATOM     16  C   UNL     1      30.070 -22.713 -14.977  0.00  0.00    -0.002 C 
ATOM     17  C   UNL     1      30.538 -22.432 -16.260  0.00  0.00    +0.015 C 
ATOM     18  C   UNL     1      30.360 -23.663 -12.699  0.00  0.00    +0.032 C 
BRANCH  12  19
ATOM     19  S   UNL     1      33.233 -24.602 -13.321  0.00  0.00    +0.075 S 
ATOM     20  O   UNL     1      32.458 -25.684 -12.745  0.00  0.00    -0.150 OA
ATOM     21  O   UNL     1      33.864 -23.612 -12.469  0.00  0.00    -0.150 OA
BRANCH  19  23
ATOM     22  O   UNL     1      35.944 -26.062 -12.827  0.00  0.00    -0.274 OA
ATOM     23  N   UNL     1      34.397 -25.249 -14.393  0.00  0.00    -0.185 N 
ATOM     24  C   UNL     1      35.619 -25.880 -13.995  0.00  0.00    +0.241 C 
ATOM     25  H   UNL     1      34.213 -25.184 -15.358  0.00  0.00    +0.177 HD
BRANCH  24  26
ATOM     26  C   UNL     1      36.503 -26.281 -15.151  0.00  0.00    +0.087 C 
ATOM     27  C   UNL     1      37.412 -27.429 -14.753  0.00  0.00    +0.010 C 
ENDBRANCH  24  26
ENDBRANCH  19  23
ENDBRANCH  12  19
ENDBRANCH   2  15
BRANCH   3  28
ATOM     28  C   UNL     1      37.184 -22.201 -15.936  0.00  0.00    +0.050 C 
ATOM     29  C   UNL     1      38.305 -23.031 -15.849  0.00  0.00    +0.018 C 
ATOM     30  C   UNL     1      36.387 -21.998 -14.806  0.00  0.00    +0.018 C 
ATOM     31  C   UNL     1      37.828 -23.447 -13.517  0.00  0.00    +0.140 C 
ATOM     32  C   UNL     1      38.626 -23.653 -14.642  0.00  0.00    +0.038 C 
ATOM     33  C   UNL     1      36.709 -22.620 -13.599  0.00  0.00    +0.038 C 
BRANCH  31  34
ATOM     34  O   UNL     1      38.142 -24.054 -12.341  0.00  0.00    -0.461 OA
BRANCH  34  35
ATOM     35  C   UNL     1      37.863 -23.332 -11.142  0.00  0.00    +0.282 C 
BRANCH  35  36
ATOM     36  C   UNL     1      36.768 -23.962 -10.406  0.00  0.00    -0.031 C 
ATOM     37  C   UNL     1      35.870 -24.482  -9.800  0.00  0.00    -0.010 C 
ENDBRANCH  35  36
ENDBRANCH  34  35
ENDBRANCH  31  34
ENDBRANCH   3  28
TORSDOF 8
ENDMDL
