MODEL 1
REMARK VINA RESULT:     -12.0      0.000      0.000
REMARK  Name = 448317
REMARK  6 active torsions:
REMARK  status: ('A' for Active; 'I' for Inactive)
REMARK    1  A    between atoms: C_1  and  C_18
REMARK    2  A    between atoms: C_4  and  N_24
REMARK    3  A    between atoms: C_5  and  S_25
REMARK    4  A    between atoms: S_25  and  C_26
REMARK    5  A    between atoms: C_27  and  O_32
REMARK    6  A    between atoms: O_32  and  C_33
REMARK                            x       y       z     vdW  Elec       q    Type
REMARK                         _______ _______ _______ _____ _____    ______ ____
ROOT
ATOM      1  C   UNL     1      34.264 -21.002 -19.347  0.00  0.00    +0.002 C 
ATOM      2  C   UNL     1      35.570 -20.525 -19.460  0.00  0.00    +0.025 C 
ATOM      3  C   UNL     1      33.309 -20.650 -20.301  0.00  0.00    +0.001 C 
ATOM      4  C   UNL     1      35.923 -19.699 -20.527  0.00  0.00    +0.149 C 
ATOM      5  C   UNL     1      34.968 -19.347 -21.481  0.00  0.00    +0.052 C 
ATOM      6  C   UNL     1      33.661 -19.823 -21.369  0.00  0.00    +0.008 C 
ENDROOT
BRANCH   1  18
ATOM      7  O   UNL     1      38.701 -24.097 -11.842  0.00  0.00    -0.275 OA
ATOM      8  N   UNL     1      35.514 -23.737 -15.508  0.00  0.00    -0.290 N 
ATOM      9  N   UNL     1      37.464 -24.700 -13.711  0.00  0.00    -0.276 N 
ATOM     10  N   UNL     1      33.192 -23.516 -16.104  0.00  0.00    -0.229 NA
ATOM     11  C   UNL     1      35.313 -25.039 -14.859  0.00  0.00    +0.114 C 
ATOM     12  C   UNL     1      36.369 -22.781 -14.787  0.00  0.00    +0.114 C 
ATOM     13  C   UNL     1      36.657 -25.656 -14.472  0.00  0.00    +0.115 C 
ATOM     14  C   UNL     1      37.694 -23.436 -14.405  0.00  0.00    +0.115 C 
ATOM     15  C   UNL     1      34.513 -23.217 -16.337  0.00  0.00    +0.132 C 
ATOM     16  C   UNL     1      38.010 -24.919 -12.449  0.00  0.00    +0.226 C 
ATOM     17  C   UNL     1      34.882 -22.384 -17.410  0.00  0.00    +0.034 C 
ATOM     18  C   UNL     1      33.899 -21.859 -18.241  0.00  0.00    +0.004 C 
ATOM     19  C   UNL     1      37.717 -26.252 -11.809  0.00  0.00    +0.095 C 
ATOM     20  C   UNL     1      32.563 -22.161 -18.005  0.00  0.00    +0.021 C 
ATOM     21  C   UNL     1      32.264 -22.987 -16.934  0.00  0.00    +0.100 C 
ENDBRANCH   1  18
BRANCH   4  24
ATOM     22  O   UNL     1      37.759 -18.989 -21.727  0.00  0.00    -0.126 OA
ATOM     23  O   UNL     1      37.914 -19.089 -19.539  0.00  0.00    -0.126 OA
ATOM     24  N   UNL     1      37.267 -19.236 -20.602  0.00  0.00    +0.058 N 
ENDBRANCH   4  24
BRANCH   5  25
ATOM     25  S   UNL     1      35.352 -18.290 -22.875  0.00  0.00    -0.082 S 
BRANCH  25  26
ATOM     26  C   UNL     1      34.997 -16.680 -22.189  0.00  0.00    +0.063 C 
ATOM     27  C   UNL     1      34.751 -15.578 -23.009  0.00  0.00    +0.144 C 
ATOM     28  C   UNL     1      34.969 -16.534 -20.800  0.00  0.00    +0.010 C 
ATOM     29  C   UNL     1      34.477 -14.333 -22.443  0.00  0.00    +0.037 C 
ATOM     30  C   UNL     1      34.695 -15.288 -20.235  0.00  0.00    +0.001 C 
ATOM     31  C   UNL     1      34.449 -14.188 -21.055  0.00  0.00    +0.003 C 
BRANCH  27  32
ATOM     32  O   UNL     1      34.768 -15.682 -24.369  0.00  0.00    -0.475 OA
BRANCH  32  33
ATOM     33  C   UNL     1      33.508 -15.802 -25.025  0.00  0.00    +0.206 C 
ATOM     34  C   UNL     1      33.115 -14.452 -25.586  0.00  0.00    +0.051 C 
ENDBRANCH  32  33
ENDBRANCH  27  32
ENDBRANCH  25  26
ENDBRANCH   5  25
TORSDOF 6
ENDMDL
MODEL 2
REMARK VINA RESULT:      -9.5      5.969     12.533
REMARK  Name = 448317
REMARK  6 active torsions:
REMARK  status: ('A' for Active; 'I' for Inactive)
REMARK    1  A    between atoms: C_1  and  C_18
REMARK    2  A    between atoms: C_4  and  N_24
REMARK    3  A    between atoms: C_5  and  S_25
REMARK    4  A    between atoms: S_25  and  C_26
REMARK    5  A    between atoms: C_27  and  O_32
REMARK    6  A    between atoms: O_32  and  C_33
REMARK                            x       y       z     vdW  Elec       q    Type
REMARK                         _______ _______ _______ _____ _____    ______ ____
ROOT
ATOM      1  C   UNL     1      33.479 -13.993 -21.783  0.00  0.00    +0.002 C 
ATOM      2  C   UNL     1      33.257 -14.250 -23.136  0.00  0.00    +0.025 C 
ATOM      3  C   UNL     1      34.196 -14.904 -21.008  0.00  0.00    +0.001 C 
ATOM      4  C   UNL     1      33.754 -15.418 -23.715  0.00  0.00    +0.149 C 
ATOM      5  C   UNL     1      34.471 -16.330 -22.940  0.00  0.00    +0.052 C 
ATOM      6  C   UNL     1      34.693 -16.073 -21.586  0.00  0.00    +0.008 C 
ENDROOT
BRANCH   1  18
ATOM      7  O   UNL     1      31.237  -5.626 -25.033  0.00  0.00    -0.275 OA
ATOM      8  N   UNL     1      32.548  -9.211 -22.007  0.00  0.00    -0.290 N 
ATOM      9  N   UNL     1      32.477  -6.789 -23.453  0.00  0.00    -0.276 N 
ATOM     10  N   UNL     1      31.969 -10.442 -20.021  0.00  0.00    -0.229 NA
ATOM     11  C   UNL     1      32.678  -7.938 -21.285  0.00  0.00    +0.114 C 
ATOM     12  C   UNL     1      31.831  -9.155 -23.291  0.00  0.00    +0.114 C 
ATOM     13  C   UNL     1      33.242  -6.856 -22.206  0.00  0.00    +0.115 C 
ATOM     14  C   UNL     1      32.412  -8.055 -24.177  0.00  0.00    +0.115 C 
ATOM     15  C   UNL     1      32.501 -10.411 -21.288  0.00  0.00    +0.132 C 
ATOM     16  C   UNL     1      31.860  -5.652 -23.969  0.00  0.00    +0.226 C 
ATOM     17  C   UNL     1      33.005 -11.582 -21.884  0.00  0.00    +0.034 C 
ATOM     18  C   UNL     1      32.964 -12.782 -21.183  0.00  0.00    +0.004 C 
ATOM     19  C   UNL     1      31.978  -4.391 -23.151  0.00  0.00    +0.095 C 
ATOM     20  C   UNL     1      32.426 -12.813 -19.901  0.00  0.00    +0.021 C 
ATOM     21  C   UNL     1      31.947 -11.627 -19.370  0.00  0.00    +0.100 C 
ENDBRANCH   1  18
BRANCH   4  24
ATOM     22  O   UNL     1      32.995 -16.728 -25.454  0.00  0.00    -0.126 OA
ATOM     23  O   UNL     1      33.800 -14.739 -25.918  0.00  0.00    -0.126 OA
ATOM     24  N   UNL     1      33.504 -15.640 -25.099  0.00  0.00    +0.058 N 
ENDBRANCH   4  24
BRANCH   5  25
ATOM     25  S   UNL     1      35.136 -17.848 -23.619  0.00  0.00    -0.082 S 
BRANCH  25  26
ATOM     26  C   UNL     1      35.795 -18.618 -22.150  0.00  0.00    +0.063 C 
ATOM     27  C   UNL     1      35.018 -19.469 -21.363  0.00  0.00    +0.144 C 
ATOM     28  C   UNL     1      37.119 -18.354 -21.791  0.00  0.00    +0.010 C 
ATOM     29  C   UNL     1      35.562 -20.055 -20.220  0.00  0.00    +0.037 C 
ATOM     30  C   UNL     1      37.663 -18.940 -20.647  0.00  0.00    +0.001 C 
ATOM     31  C   UNL     1      36.885 -19.791 -19.862  0.00  0.00    +0.003 C 
BRANCH  27  32
ATOM     32  O   UNL     1      33.724 -19.752 -21.683  0.00  0.00    -0.475 OA
BRANCH  32  33
ATOM     33  C   UNL     1      32.783 -19.783 -20.612  0.00  0.00    +0.206 C 
ATOM     34  C   UNL     1      32.965 -21.068 -19.833  0.00  0.00    +0.051 C 
ENDBRANCH  32  33
ENDBRANCH  27  32
ENDBRANCH  25  26
ENDBRANCH   5  25
TORSDOF 6
ENDMDL
MODEL 3
REMARK VINA RESULT:      -9.2      5.167     12.473
REMARK  Name = 448317
REMARK  6 active torsions:
REMARK  status: ('A' for Active; 'I' for Inactive)
REMARK    1  A    between atoms: C_1  and  C_18
REMARK    2  A    between atoms: C_4  and  N_24
REMARK    3  A    between atoms: C_5  and  S_25
REMARK    4  A    between atoms: S_25  and  C_26
REMARK    5  A    between atoms: C_27  and  O_32
REMARK    6  A    between atoms: O_32  and  C_33
REMARK                            x       y       z     vdW  Elec       q    Type
REMARK                         _______ _______ _______ _____ _____    ______ ____
ROOT
ATOM      1  C   UNL     1      33.638 -14.251 -21.368  0.00  0.00    +0.002 C 
ATOM      2  C   UNL     1      33.808 -14.811 -22.633  0.00  0.00    +0.025 C 
ATOM      3  C   UNL     1      34.205 -14.866 -20.251  0.00  0.00    +0.001 C 
ATOM      4  C   UNL     1      34.547 -15.985 -22.784  0.00  0.00    +0.149 C 
ATOM      5  C   UNL     1      35.114 -16.600 -21.668  0.00  0.00    +0.052 C 
ATOM      6  C   UNL     1      34.944 -16.040 -20.401  0.00  0.00    +0.008 C 
ENDROOT
BRANCH   1  18
ATOM      7  O   UNL     1      33.107  -6.310 -26.085  0.00  0.00    -0.275 OA
ATOM      8  N   UNL     1      32.844  -9.568 -22.473  0.00  0.00    -0.290 N 
ATOM      9  N   UNL     1      33.440  -7.270 -23.998  0.00  0.00    -0.276 N 
ATOM     10  N   UNL     1      31.393 -10.682 -20.908  0.00  0.00    -0.229 NA
ATOM     11  C   UNL     1      32.580  -8.239 -21.905  0.00  0.00    +0.114 C 
ATOM     12  C   UNL     1      32.843  -9.654 -23.942  0.00  0.00    +0.114 C 
ATOM     13  C   UNL     1      33.501  -7.196 -22.537  0.00  0.00    +0.115 C 
ATOM     14  C   UNL     1      33.761  -8.589 -24.537  0.00  0.00    +0.115 C 
ATOM     15  C   UNL     1      32.474 -10.712 -21.756  0.00  0.00    +0.132 C 
ATOM     16  C   UNL     1      33.133  -6.217 -24.855  0.00  0.00    +0.226 C 
ATOM     17  C   UNL     1      33.228 -11.890 -21.917  0.00  0.00    +0.034 C 
ATOM     18  C   UNL     1      32.873 -13.034 -21.211  0.00  0.00    +0.004 C 
ATOM     19  C   UNL     1      32.812  -4.893 -24.208  0.00  0.00    +0.095 C 
ATOM     20  C   UNL     1      31.778 -13.004 -20.354  0.00  0.00    +0.021 C 
ATOM     21  C   UNL     1      31.078 -11.814 -20.238  0.00  0.00    +0.100 C 
ENDBRANCH   1  18
BRANCH   4  24
ATOM     22  O   UNL     1      34.195 -17.642 -24.349  0.00  0.00    -0.126 OA
ATOM     23  O   UNL     1      35.320 -15.855 -24.953  0.00  0.00    -0.126 OA
ATOM     24  N   UNL     1      34.695 -16.522 -24.095  0.00  0.00    +0.058 N 
ENDBRANCH   4  24
BRANCH   5  25
ATOM     25  S   UNL     1      36.073 -18.108 -21.790  0.00  0.00    -0.082 S 
BRANCH  25  26
ATOM     26  C   UNL     1      34.967 -19.278 -21.019  0.00  0.00    +0.063 C 
ATOM     27  C   UNL     1      35.411 -20.160 -20.033  0.00  0.00    +0.144 C 
ATOM     28  C   UNL     1      33.629 -19.302 -21.423  0.00  0.00    +0.010 C 
ATOM     29  C   UNL     1      34.522 -21.063 -19.451  0.00  0.00    +0.037 C 
ATOM     30  C   UNL     1      32.741 -20.206 -20.840  0.00  0.00    +0.001 C 
ATOM     31  C   UNL     1      33.186 -21.087 -19.854  0.00  0.00    +0.003 C 
BRANCH  27  32
ATOM     32  O   UNL     1      36.708 -20.164 -19.613  0.00  0.00    -0.475 OA
BRANCH  32  33
ATOM     33  C   UNL     1      37.089 -21.188 -18.696  0.00  0.00    +0.206 C 
ATOM     34  C   UNL     1      37.194 -20.593 -17.309  0.00  0.00    +0.051 C 
ENDBRANCH  32  33
ENDBRANCH  27  32
ENDBRANCH  25  26
ENDBRANCH   5  25
TORSDOF 6
ENDMDL
MODEL 4
REMARK VINA RESULT:      -9.1      2.729      3.854
REMARK  Name = 448317
REMARK  6 active torsions:
REMARK  status: ('A' for Active; 'I' for Inactive)
REMARK    1  A    between atoms: C_1  and  C_18
REMARK    2  A    between atoms: C_4  and  N_24
REMARK    3  A    between atoms: C_5  and  S_25
REMARK    4  A    between atoms: S_25  and  C_26
REMARK    5  A    between atoms: C_27  and  O_32
REMARK    6  A    between atoms: O_32  and  C_33
REMARK                            x       y       z     vdW  Elec       q    Type
REMARK                         _______ _______ _______ _____ _____    ______ ____
ROOT
ATOM      1  C   UNL     1      35.996 -20.746 -18.987  0.00  0.00    +0.002 C 
ATOM      2  C   UNL     1      34.847 -20.681 -19.775  0.00  0.00    +0.025 C 
ATOM      3  C   UNL     1      37.126 -20.010 -19.340  0.00  0.00    +0.001 C 
ATOM      4  C   UNL     1      34.827 -19.877 -20.916  0.00  0.00    +0.149 C 
ATOM      5  C   UNL     1      35.958 -19.141 -21.269  0.00  0.00    +0.052 C 
ATOM      6  C   UNL     1      37.108 -19.206 -20.480  0.00  0.00    +0.008 C 
ENDROOT
BRANCH   1  18
ATOM      7  O   UNL     1      29.623 -25.715 -14.482  0.00  0.00    -0.275 OA
ATOM      8  N   UNL     1      33.650 -23.152 -15.453  0.00  0.00    -0.290 N 
ATOM      9  N   UNL     1      31.254 -24.076 -14.284  0.00  0.00    -0.276 N 
ATOM     10  N   UNL     1      36.057 -23.188 -15.519  0.00  0.00    -0.229 NA
ATOM     11  C   UNL     1      33.600 -23.387 -14.003  0.00  0.00    +0.114 C 
ATOM     12  C   UNL     1      32.701 -23.929 -16.265  0.00  0.00    +0.114 C 
ATOM     13  C   UNL     1      32.167 -23.252 -13.489  0.00  0.00    +0.115 C 
ATOM     14  C   UNL     1      31.284 -23.782 -15.714  0.00  0.00    +0.115 C 
ATOM     15  C   UNL     1      34.858 -22.774 -16.050  0.00  0.00    +0.132 C 
ATOM     16  C   UNL     1      30.394 -25.050 -13.785  0.00  0.00    +0.226 C 
ATOM     17  C   UNL     1      34.824 -21.963 -17.200  0.00  0.00    +0.034 C 
ATOM     18  C   UNL     1      36.016 -21.579 -17.805  0.00  0.00    +0.004 C 
ATOM     19  C   UNL     1      30.433 -25.287 -12.297  0.00  0.00    +0.095 C 
ATOM     20  C   UNL     1      37.228 -21.999 -17.268  0.00  0.00    +0.021 C 
ATOM     21  C   UNL     1      37.195 -22.794 -16.134  0.00  0.00    +0.100 C 
ENDBRANCH   1  18
BRANCH   4  24
ATOM     22  O   UNL     1      33.712 -19.561 -22.909  0.00  0.00    -0.126 OA
ATOM     23  O   UNL     1      32.542 -20.093 -21.129  0.00  0.00    -0.126 OA
ATOM     24  N   UNL     1      33.633 -19.841 -21.691  0.00  0.00    +0.058 N 
ENDBRANCH   4  24
BRANCH   5  25
ATOM     25  S   UNL     1      36.001 -18.090 -22.719  0.00  0.00    -0.082 S 
BRANCH  25  26
ATOM     26  C   UNL     1      35.287 -16.587 -22.071  0.00  0.00    +0.063 C 
ATOM     27  C   UNL     1      34.840 -15.571 -22.917  0.00  0.00    +0.144 C 
ATOM     28  C   UNL     1      35.181 -16.437 -20.687  0.00  0.00    +0.010 C 
ATOM     29  C   UNL     1      34.287 -14.408 -22.380  0.00  0.00    +0.037 C 
ATOM     30  C   UNL     1      34.629 -15.274 -20.150  0.00  0.00    +0.001 C 
ATOM     31  C   UNL     1      34.182 -14.259 -20.997  0.00  0.00    +0.003 C 
BRANCH  27  32
ATOM     32  O   UNL     1      34.924 -15.682 -24.273  0.00  0.00    -0.475 OA
BRANCH  32  33
ATOM     33  C   UNL     1      33.707 -15.897 -24.983  0.00  0.00    +0.206 C 
ATOM     34  C   UNL     1      33.214 -14.574 -25.528  0.00  0.00    +0.051 C 
ENDBRANCH  32  33
ENDBRANCH  27  32
ENDBRANCH  25  26
ENDBRANCH   5  25
TORSDOF 6
ENDMDL
