MODEL 1
REMARK VINA RESULT:      -9.8      0.000      0.000
REMARK  Name = 101616
REMARK  7 active torsions:
REMARK  status: ('A' for Active; 'I' for Inactive)
REMARK    1  A    between atoms: C_2  and  C_9
REMARK    2  A    between atoms: C_3  and  C_19
REMARK    3  A    between atoms: C_9  and  C_10
REMARK    4  A    between atoms: C_10  and  C_11
REMARK    5  A    between atoms: C_10  and  O_17
REMARK    6  A    between atoms: C_19  and  C_21
REMARK    7  A    between atoms: C_21  and  C_22
REMARK                            x       y       z     vdW  Elec       q    Type
REMARK                         _______ _______ _______ _____ _____    ______ ____
ROOT
ATOM      1  N   UNL     1      32.036 -10.537 -21.611  0.00  0.00    +0.388 N 
ATOM      2  C   UNL     1      32.646 -11.682 -20.893  0.00  0.00    -0.055 C 
ATOM      3  C   UNL     1      32.116  -9.318 -20.772  0.00  0.00    -0.050 C 
ATOM      4  C   UNL     1      31.989 -11.949 -19.529  0.00  0.00    -0.021 C 
ATOM      5  C   UNL     1      31.436  -9.492 -19.402  0.00  0.00    -0.020 C 
ATOM      6  C   UNL     1      31.995 -10.698 -18.654  0.00  0.00    -0.004 C 
ATOM      7  C   UNL     1      30.695 -10.813 -22.128  0.00  0.00    -0.100 C 
ATOM      8  H   UNL     1      32.584 -10.371 -22.455  0.00  0.00    -0.080 HD
ENDROOT
BRANCH   2   9
ATOM      9  C   UNL     1      32.699 -12.968 -21.727  0.00  0.00    +0.013 C 
BRANCH   9  10
ATOM     10  C   UNL     1      34.066 -13.198 -22.372  0.00  0.00    +0.131 C 
BRANCH  10  11
ATOM     11  C   UNL     1      34.181 -14.502 -23.125  0.00  0.00    +0.004 C 
ATOM     12  C   UNL     1      33.524 -14.645 -24.337  0.00  0.00    -0.002 C 
ATOM     13  C   UNL     1      34.943 -15.528 -22.592  0.00  0.00    -0.002 C 
ATOM     14  C   UNL     1      33.631 -15.849 -25.033  0.00  0.00    -0.000 C 
ATOM     15  C   UNL     1      35.049 -16.733 -23.288  0.00  0.00    -0.000 C 
ATOM     16  C   UNL     1      34.394 -16.892 -24.508  0.00  0.00    -0.000 C 
ENDBRANCH  10  11
BRANCH  10  17
ATOM     17  O   UNL     1      34.316 -12.133 -23.292  0.00  0.00    -0.380 OA
ATOM     18  H   UNL     1      34.035 -11.292 -22.899  0.00  0.00    +0.211 HD
ENDBRANCH  10  17
ENDBRANCH   9  10
ENDBRANCH   2   9
BRANCH   3  19
ATOM     19  C   UNL     1      31.596  -8.059 -21.475  0.00  0.00    +0.048 C 
BRANCH  19  21
ATOM     20  O   UNL     1      32.640  -6.220 -20.317  0.00  0.00    -0.291 OA
ATOM     21  C   UNL     1      32.562  -6.901 -21.337  0.00  0.00    +0.171 C 
BRANCH  21  22
ATOM     22  C   UNL     1      33.449  -6.585 -22.494  0.00  0.00    +0.035 C 
ATOM     23  C   UNL     1      34.707  -7.144 -22.532  0.00  0.00    +0.003 C 
ATOM     24  C   UNL     1      32.978  -5.746 -23.478  0.00  0.00    +0.003 C 
ATOM     25  C   UNL     1      35.537  -6.848 -23.613  0.00  0.00    +0.000 C 
ATOM     26  C   UNL     1      33.808  -5.450 -24.558  0.00  0.00    +0.000 C 
ATOM     27  C   UNL     1      35.088  -6.002 -24.626  0.00  0.00    +0.000 C 
ENDBRANCH  21  22
ENDBRANCH  19  21
ENDBRANCH   3  19
TORSDOF 7
ENDMDL
MODEL 2
REMARK VINA RESULT:      -9.8      2.214      8.437
REMARK  Name = 101616
REMARK  7 active torsions:
REMARK  status: ('A' for Active; 'I' for Inactive)
REMARK    1  A    between atoms: C_2  and  C_9
REMARK    2  A    between atoms: C_3  and  C_19
REMARK    3  A    between atoms: C_9  and  C_10
REMARK    4  A    between atoms: C_10  and  C_11
REMARK    5  A    between atoms: C_10  and  O_17
REMARK    6  A    between atoms: C_19  and  C_21
REMARK    7  A    between atoms: C_21  and  C_22
REMARK                            x       y       z     vdW  Elec       q    Type
REMARK                         _______ _______ _______ _____ _____    ______ ____
ROOT
ATOM      1  N   UNL     1      32.833 -12.835 -22.749  0.00  0.00    +0.388 N 
ATOM      2  C   UNL     1      31.907 -12.690 -21.601  0.00  0.00    -0.055 C 
ATOM      3  C   UNL     1      33.443 -14.186 -22.734  0.00  0.00    -0.050 C 
ATOM      4  C   UNL     1      32.594 -12.932 -20.246  0.00  0.00    -0.021 C 
ATOM      5  C   UNL     1      34.192 -14.486 -21.424  0.00  0.00    -0.020 C 
ATOM      6  C   UNL     1      33.288 -14.290 -20.211  0.00  0.00    -0.004 C 
ATOM      7  C   UNL     1      33.806 -11.748 -22.863  0.00  0.00    -0.100 C 
ATOM      8  H   UNL     1      32.284 -12.751 -23.604  0.00  0.00    -0.080 HD
ENDROOT
BRANCH   2   9
ATOM      9  C   UNL     1      31.151 -11.355 -21.590  0.00  0.00    +0.013 C 
BRANCH   9  10
ATOM     10  C   UNL     1      31.494 -10.491 -20.377  0.00  0.00    +0.131 C 
BRANCH  10  11
ATOM     11  C   UNL     1      31.906  -9.080 -20.722  0.00  0.00    +0.004 C 
ATOM     12  C   UNL     1      31.631  -8.583 -21.985  0.00  0.00    -0.002 C 
ATOM     13  C   UNL     1      32.548  -8.308 -19.767  0.00  0.00    -0.002 C 
ATOM     14  C   UNL     1      32.010  -7.278 -22.304  0.00  0.00    -0.000 C 
ATOM     15  C   UNL     1      32.929  -7.004 -20.085  0.00  0.00    -0.000 C 
ATOM     16  C   UNL     1      32.659  -6.490 -21.353  0.00  0.00    -0.000 C 
ENDBRANCH  10  11
BRANCH  10  17
ATOM     17  O   UNL     1      30.343 -10.422 -19.533  0.00  0.00    -0.380 OA
ATOM     18  H   UNL     1      29.549 -10.633 -20.048  0.00  0.00    +0.211 HD
ENDBRANCH  10  17
ENDBRANCH   9  10
ENDBRANCH   2   9
BRANCH   3  19
ATOM     19  C   UNL     1      34.343 -14.462 -23.944  0.00  0.00    +0.048 C 
BRANCH  19  21
ATOM     20  O   UNL     1      33.289 -15.737 -25.698  0.00  0.00    -0.291 OA
ATOM     21  C   UNL     1      33.946 -15.736 -24.659  0.00  0.00    +0.171 C 
BRANCH  21  22
ATOM     22  C   UNL     1      34.375 -17.037 -24.067  0.00  0.00    +0.035 C 
ATOM     23  C   UNL     1      33.837 -18.200 -24.571  0.00  0.00    +0.003 C 
ATOM     24  C   UNL     1      35.292 -17.025 -23.041  0.00  0.00    +0.003 C 
ATOM     25  C   UNL     1      34.238 -19.416 -24.019  0.00  0.00    +0.000 C 
ATOM     26  C   UNL     1      35.693 -18.241 -22.489  0.00  0.00    +0.000 C 
ATOM     27  C   UNL     1      35.166 -19.437 -22.978  0.00  0.00    +0.000 C 
ENDBRANCH  21  22
ENDBRANCH  19  21
ENDBRANCH   3  19
TORSDOF 7
ENDMDL
MODEL 3
REMARK VINA RESULT:      -9.4     10.630     15.375
REMARK  Name = 101616
REMARK  7 active torsions:
REMARK  status: ('A' for Active; 'I' for Inactive)
REMARK    1  A    between atoms: C_2  and  C_9
REMARK    2  A    between atoms: C_3  and  C_19
REMARK    3  A    between atoms: C_9  and  C_10
REMARK    4  A    between atoms: C_10  and  C_11
REMARK    5  A    between atoms: C_10  and  O_17
REMARK    6  A    between atoms: C_19  and  C_21
REMARK    7  A    between atoms: C_21  and  C_22
REMARK                            x       y       z     vdW  Elec       q    Type
REMARK                         _______ _______ _______ _____ _____    ______ ____
ROOT
ATOM      1  N   UNL     1      34.496 -23.653 -16.364  0.00  0.00    +0.388 N 
ATOM      2  C   UNL     1      33.485 -23.406 -17.419  0.00  0.00    -0.055 C 
ATOM      3  C   UNL     1      33.841 -24.224 -15.163  0.00  0.00    -0.050 C 
ATOM      4  C   UNL     1      32.354 -22.472 -16.954  0.00  0.00    -0.021 C 
ATOM      5  C   UNL     1      32.725 -23.321 -14.608  0.00  0.00    -0.020 C 
ATOM      6  C   UNL     1      31.692 -22.993 -15.681  0.00  0.00    -0.004 C 
ATOM      7  C   UNL     1      35.347 -22.496 -16.080  0.00  0.00    -0.100 C 
ATOM      8  H   UNL     1      35.153 -24.347 -16.720  0.00  0.00    -0.080 HD
ENDROOT
BRANCH   2   9
ATOM      9  C   UNL     1      34.086 -22.907 -18.738  0.00  0.00    +0.013 C 
BRANCH   9  10
ATOM     10  C   UNL     1      33.619 -21.499 -19.106  0.00  0.00    +0.131 C 
BRANCH  10  11
ATOM     11  C   UNL     1      34.691 -20.635 -19.726  0.00  0.00    +0.004 C 
ATOM     12  C   UNL     1      34.336 -19.691 -20.676  0.00  0.00    -0.002 C 
ATOM     13  C   UNL     1      36.009 -20.802 -19.332  0.00  0.00    -0.002 C 
ATOM     14  C   UNL     1      35.326 -18.892 -21.248  0.00  0.00    -0.000 C 
ATOM     15  C   UNL     1      36.999 -20.004 -19.906  0.00  0.00    -0.000 C 
ATOM     16  C   UNL     1      36.657 -19.049 -20.863  0.00  0.00    -0.000 C 
ENDBRANCH  10  11
BRANCH  10  17
ATOM     17  O   UNL     1      32.545 -21.610 -20.042  0.00  0.00    -0.380 OA
ATOM     18  H   UNL     1      31.714 -21.349 -19.616  0.00  0.00    +0.211 HD
ENDBRANCH  10  17
ENDBRANCH   9  10
ENDBRANCH   2   9
BRANCH   3  19
ATOM     19  C   UNL     1      34.827 -24.604 -14.053  0.00  0.00    +0.048 C 
BRANCH  19  21
ATOM     20  O   UNL     1      35.640 -26.436 -15.392  0.00  0.00    -0.291 OA
ATOM     21  C   UNL     1      35.877 -25.578 -14.546  0.00  0.00    +0.171 C 
BRANCH  21  22
ATOM     22  C   UNL     1      37.251 -25.479 -13.972  0.00  0.00    +0.035 C 
ATOM     23  C   UNL     1      38.297 -26.045 -14.666  0.00  0.00    +0.003 C 
ATOM     24  C   UNL     1      37.421 -24.828 -12.772  0.00  0.00    +0.003 C 
ATOM     25  C   UNL     1      39.582 -25.954 -14.131  0.00  0.00    +0.000 C 
ATOM     26  C   UNL     1      38.705 -24.737 -12.236  0.00  0.00    +0.000 C 
ATOM     27  C   UNL     1      39.786 -25.300 -12.916  0.00  0.00    +0.000 C 
ENDBRANCH  21  22
ENDBRANCH  19  21
ENDBRANCH   3  19
TORSDOF 7
ENDMDL
MODEL 4
REMARK VINA RESULT:      -9.3     11.083     14.699
REMARK  Name = 101616
REMARK  7 active torsions:
REMARK  status: ('A' for Active; 'I' for Inactive)
REMARK    1  A    between atoms: C_2  and  C_9
REMARK    2  A    between atoms: C_3  and  C_19
REMARK    3  A    between atoms: C_9  and  C_10
REMARK    4  A    between atoms: C_10  and  C_11
REMARK    5  A    between atoms: C_10  and  O_17
REMARK    6  A    between atoms: C_19  and  C_21
REMARK    7  A    between atoms: C_21  and  C_22
REMARK                            x       y       z     vdW  Elec       q    Type
REMARK                         _______ _______ _______ _____ _____    ______ ____
ROOT
ATOM      1  N   UNL     1      31.910 -23.461 -15.063  0.00  0.00    +0.388 N 
ATOM      2  C   UNL     1      32.029 -24.577 -14.094  0.00  0.00    -0.055 C 
ATOM      3  C   UNL     1      33.023 -23.523 -16.039  0.00  0.00    -0.050 C 
ATOM      4  C   UNL     1      33.373 -24.577 -13.347  0.00  0.00    -0.021 C 
ATOM      5  C   UNL     1      34.407 -23.480 -15.368  0.00  0.00    -0.020 C 
ATOM      6  C   UNL     1      34.549 -24.579 -14.319  0.00  0.00    -0.004 C 
ATOM      7  C   UNL     1      31.747 -22.150 -14.434  0.00  0.00    -0.100 C 
ATOM      8  H   UNL     1      31.038 -23.586 -15.576  0.00  0.00    -0.080 HD
ENDROOT
BRANCH   2   9
ATOM      9  C   UNL     1      30.861 -24.653 -13.103  0.00  0.00    +0.013 C 
BRANCH   9  10
ATOM     10  C   UNL     1      29.598 -25.250 -13.723  0.00  0.00    +0.131 C 
BRANCH  10  11
ATOM     11  C   UNL     1      28.905 -24.340 -14.710  0.00  0.00    +0.004 C 
ATOM     12  C   UNL     1      28.453 -23.101 -14.286  0.00  0.00    -0.002 C 
ATOM     13  C   UNL     1      28.739 -24.760 -16.019  0.00  0.00    -0.002 C 
ATOM     14  C   UNL     1      27.813 -22.259 -15.198  0.00  0.00    -0.000 C 
ATOM     15  C   UNL     1      28.099 -23.919 -16.930  0.00  0.00    -0.000 C 
ATOM     16  C   UNL     1      27.637 -22.669 -16.519  0.00  0.00    -0.000 C 
ENDBRANCH  10  11
BRANCH  10  17
ATOM     17  O   UNL     1      29.956 -26.452 -14.408  0.00  0.00    -0.380 OA
ATOM     18  H   UNL     1      29.219 -27.081 -14.367  0.00  0.00    +0.211 HD
ENDBRANCH  10  17
ENDBRANCH   9  10
ENDBRANCH   2   9
BRANCH   3  19
ATOM     19  C   UNL     1      32.927 -22.462 -17.142  0.00  0.00    +0.048 C 
BRANCH  19  21
ATOM     20  O   UNL     1      33.902 -24.000 -18.722  0.00  0.00    -0.291 OA
ATOM     21  C   UNL     1      33.755 -22.837 -18.353  0.00  0.00    +0.171 C 
BRANCH  21  22
ATOM     22  C   UNL     1      34.413 -21.740 -19.122  0.00  0.00    +0.035 C 
ATOM     23  C   UNL     1      35.782 -21.611 -19.046  0.00  0.00    +0.003 C 
ATOM     24  C   UNL     1      33.627 -20.899 -19.876  0.00  0.00    +0.003 C 
ATOM     25  C   UNL     1      36.397 -20.586 -19.764  0.00  0.00    +0.000 C 
ATOM     26  C   UNL     1      34.242 -19.874 -20.593  0.00  0.00    +0.000 C 
ATOM     27  C   UNL     1      35.628 -19.718 -20.538  0.00  0.00    +0.000 C 
ENDBRANCH  21  22
ENDBRANCH  19  21
ENDBRANCH   3  19
TORSDOF 7
ENDMDL
MODEL 5
REMARK VINA RESULT:      -9.2     11.215     14.974
REMARK  Name = 101616
REMARK  7 active torsions:
REMARK  status: ('A' for Active; 'I' for Inactive)
REMARK    1  A    between atoms: C_2  and  C_9
REMARK    2  A    between atoms: C_3  and  C_19
REMARK    3  A    between atoms: C_9  and  C_10
REMARK    4  A    between atoms: C_10  and  C_11
REMARK    5  A    between atoms: C_10  and  O_17
REMARK    6  A    between atoms: C_19  and  C_21
REMARK    7  A    between atoms: C_21  and  C_22
REMARK                            x       y       z     vdW  Elec       q    Type
REMARK                         _______ _______ _______ _____ _____    ______ ____
ROOT
ATOM      1  N   UNL     1      34.230 -23.952 -14.856  0.00  0.00    +0.388 N 
ATOM      2  C   UNL     1      33.889 -23.741 -13.429  0.00  0.00    -0.055 C 
ATOM      3  C   UNL     1      33.176 -23.364 -15.716  0.00  0.00    -0.050 C 
ATOM      4  C   UNL     1      32.521 -24.333 -13.049  0.00  0.00    -0.021 C 
ATOM      5  C   UNL     1      31.780 -23.942 -15.427  0.00  0.00    -0.020 C 
ATOM      6  C   UNL     1      31.414 -23.799 -13.953  0.00  0.00    -0.004 C 
ATOM      7  C   UNL     1      34.556 -25.340 -15.186  0.00  0.00    -0.100 C 
ATOM      8  H   UNL     1      35.100 -23.454 -15.045  0.00  0.00    -0.080 HD
ENDROOT
BRANCH   2   9
ATOM      9  C   UNL     1      34.975 -24.230 -12.463  0.00  0.00    +0.013 C 
BRANCH   9  10
ATOM     10  C   UNL     1      36.274 -23.433 -12.582  0.00  0.00    +0.131 C 
BRANCH  10  11
ATOM     11  C   UNL     1      37.440 -24.231 -13.118  0.00  0.00    +0.004 C 
ATOM     12  C   UNL     1      37.954 -25.271 -12.361  0.00  0.00    -0.002 C 
ATOM     13  C   UNL     1      37.970 -23.909 -14.356  0.00  0.00    -0.002 C 
ATOM     14  C   UNL     1      39.031 -26.008 -12.856  0.00  0.00    -0.000 C 
ATOM     15  C   UNL     1      39.047 -24.645 -14.851  0.00  0.00    -0.000 C 
ATOM     16  C   UNL     1      39.576 -25.695 -14.100  0.00  0.00    -0.000 C 
ENDBRANCH  10  11
BRANCH  10  17
ATOM     17  O   UNL     1      36.049 -22.333 -13.466  0.00  0.00    -0.380 OA
ATOM     18  H   UNL     1      36.683 -21.625 -13.270  0.00  0.00    +0.211 HD
ENDBRANCH  10  17
ENDBRANCH   9  10
ENDBRANCH   2   9
BRANCH   3  19
ATOM     19  C   UNL     1      33.493 -23.447 -17.214  0.00  0.00    +0.048 C 
BRANCH  19  21
ATOM     20  O   UNL     1      35.745 -22.615 -16.989  0.00  0.00    -0.291 OA
ATOM     21  C   UNL     1      34.671 -22.572 -17.587  0.00  0.00    +0.171 C 
BRANCH  21  22
ATOM     22  C   UNL     1      34.510 -21.625 -18.728  0.00  0.00    +0.035 C 
ATOM     23  C   UNL     1      35.640 -21.106 -19.318  0.00  0.00    +0.003 C 
ATOM     24  C   UNL     1      33.239 -21.306 -19.147  0.00  0.00    +0.003 C 
ATOM     25  C   UNL     1      35.490 -20.219 -20.385  0.00  0.00    +0.000 C 
ATOM     26  C   UNL     1      33.088 -20.420 -20.213  0.00  0.00    +0.000 C 
ATOM     27  C   UNL     1      34.215 -19.877 -20.832  0.00  0.00    +0.000 C 
ENDBRANCH  21  22
ENDBRANCH  19  21
ENDBRANCH   3  19
TORSDOF 7
ENDMDL
MODEL 6
REMARK VINA RESULT:      -9.2      6.495     11.996
REMARK  Name = 101616
REMARK  7 active torsions:
REMARK  status: ('A' for Active; 'I' for Inactive)
REMARK    1  A    between atoms: C_2  and  C_9
REMARK    2  A    between atoms: C_3  and  C_19
REMARK    3  A    between atoms: C_9  and  C_10
REMARK    4  A    between atoms: C_10  and  C_11
REMARK    5  A    between atoms: C_10  and  O_17
REMARK    6  A    between atoms: C_19  and  C_21
REMARK    7  A    between atoms: C_21  and  C_22
REMARK                            x       y       z     vdW  Elec       q    Type
REMARK                         _______ _______ _______ _____ _____    ______ ____
ROOT
ATOM      1  N   UNL     1      34.601 -19.478 -20.876  0.00  0.00    +0.388 N 
ATOM      2  C   UNL     1      35.747 -18.539 -20.855  0.00  0.00    -0.055 C 
ATOM      3  C   UNL     1      34.616 -20.317 -19.654  0.00  0.00    -0.050 C 
ATOM      4  C   UNL     1      37.103 -19.254 -20.737  0.00  0.00    -0.021 C 
ATOM      5  C   UNL     1      35.928 -21.104 -19.489  0.00  0.00    -0.020 C 
ATOM      6  C   UNL     1      37.139 -20.178 -19.522  0.00  0.00    -0.004 C 
ATOM      7  C   UNL     1      34.489 -20.244 -22.118  0.00  0.00    -0.100 C 
ATOM      8  H   UNL     1      33.744 -18.925 -20.863  0.00  0.00    -0.080 HD
ENDROOT
BRANCH   2   9
ATOM      9  C   UNL     1      35.756 -17.559 -22.035  0.00  0.00    +0.013 C 
BRANCH   9  10
ATOM     10  C   UNL     1      35.401 -16.131 -21.620  0.00  0.00    +0.131 C 
BRANCH  10  11
ATOM     11  C   UNL     1      34.587 -15.376 -22.644  0.00  0.00    +0.004 C 
ATOM     12  C   UNL     1      34.008 -14.168 -22.292  0.00  0.00    -0.002 C 
ATOM     13  C   UNL     1      34.438 -15.904 -23.916  0.00  0.00    -0.002 C 
ATOM     14  C   UNL     1      33.257 -13.469 -23.238  0.00  0.00    -0.000 C 
ATOM     15  C   UNL     1      33.686 -15.206 -24.862  0.00  0.00    -0.000 C 
ATOM     16  C   UNL     1      33.097 -13.989 -24.522  0.00  0.00    -0.000 C 
ENDBRANCH  10  11
BRANCH  10  17
ATOM     17  O   UNL     1      34.644 -16.188 -20.409  0.00  0.00    -0.380 OA
ATOM     18  H   UNL     1      34.382 -15.291 -20.148  0.00  0.00    +0.211 HD
ENDBRANCH  10  17
ENDBRANCH   9  10
ENDBRANCH   2   9
BRANCH   3  19
ATOM     19  C   UNL     1      33.408 -21.255 -19.542  0.00  0.00    +0.048 C 
BRANCH  19  21
ATOM     20  O   UNL     1      34.261 -23.509 -19.550  0.00  0.00    -0.291 OA
ATOM     21  C   UNL     1      33.783 -22.577 -18.907  0.00  0.00    +0.171 C 
BRANCH  21  22
ATOM     22  C   UNL     1      33.558 -22.742 -17.442  0.00  0.00    +0.035 C 
ATOM     23  C   UNL     1      32.264 -22.793 -16.975  0.00  0.00    +0.003 C 
ATOM     24  C   UNL     1      34.652 -22.837 -16.612  0.00  0.00    +0.003 C 
ATOM     25  C   UNL     1      32.052 -22.946 -15.605  0.00  0.00    +0.000 C 
ATOM     26  C   UNL     1      34.441 -22.990 -15.243  0.00  0.00    +0.000 C 
ATOM     27  C   UNL     1      33.141 -23.045 -14.739  0.00  0.00    +0.000 C 
ENDBRANCH  21  22
ENDBRANCH  19  21
ENDBRANCH   3  19
TORSDOF 7
ENDMDL
MODEL 7
REMARK VINA RESULT:      -9.2      3.301      6.065
REMARK  Name = 101616
REMARK  7 active torsions:
REMARK  status: ('A' for Active; 'I' for Inactive)
REMARK    1  A    between atoms: C_2  and  C_9
REMARK    2  A    between atoms: C_3  and  C_19
REMARK    3  A    between atoms: C_9  and  C_10
REMARK    4  A    between atoms: C_10  and  C_11
REMARK    5  A    between atoms: C_10  and  O_17
REMARK    6  A    between atoms: C_19  and  C_21
REMARK    7  A    between atoms: C_21  and  C_22
REMARK                            x       y       z     vdW  Elec       q    Type
REMARK                         _______ _______ _______ _____ _____    ______ ____
ROOT
ATOM      1  N   UNL     1      33.785 -14.510 -22.360  0.00  0.00    +0.388 N 
ATOM      2  C   UNL     1      34.197 -15.826 -22.904  0.00  0.00    -0.055 C 
ATOM      3  C   UNL     1      32.693 -13.944 -23.187  0.00  0.00    -0.050 C 
ATOM      4  C   UNL     1      34.648 -15.749 -24.373  0.00  0.00    -0.021 C 
ATOM      5  C   UNL     1      33.085 -13.791 -24.667  0.00  0.00    -0.020 C 
ATOM      6  C   UNL     1      33.573 -15.113 -25.251  0.00  0.00    -0.004 C 
ATOM      7  C   UNL     1      34.900 -13.588 -22.140  0.00  0.00    -0.100 C 
ATOM      8  H   UNL     1      33.417 -14.663 -21.421  0.00  0.00    -0.080 HD
ENDROOT
BRANCH   2   9
ATOM      9  C   UNL     1      35.257 -16.535 -22.052  0.00  0.00    +0.013 C 
BRANCH   9  10
ATOM     10  C   UNL     1      35.537 -17.961 -22.526  0.00  0.00    +0.131 C 
BRANCH  10  11
ATOM     11  C   UNL     1      35.640 -18.973 -21.409  0.00  0.00    +0.004 C 
ATOM     12  C   UNL     1      36.847 -19.131 -20.747  0.00  0.00    -0.002 C 
ATOM     13  C   UNL     1      34.526 -19.721 -21.066  0.00  0.00    -0.002 C 
ATOM     14  C   UNL     1      36.942 -20.065 -19.715  0.00  0.00    -0.000 C 
ATOM     15  C   UNL     1      34.621 -20.655 -20.034  0.00  0.00    -0.000 C 
ATOM     16  C   UNL     1      35.829 -20.826 -19.359  0.00  0.00    -0.000 C 
ENDBRANCH  10  11
BRANCH  10  17
ATOM     17  O   UNL     1      34.475 -18.367 -23.392  0.00  0.00    -0.380 OA
ATOM     18  H   UNL     1      34.374 -19.330 -23.351  0.00  0.00    +0.211 HD
ENDBRANCH  10  17
ENDBRANCH   9  10
ENDBRANCH   2   9
BRANCH   3  19
ATOM     19  C   UNL     1      32.135 -12.625 -22.640  0.00  0.00    +0.048 C 
BRANCH  19  21
ATOM     20  O   UNL     1      31.799 -13.743 -20.531  0.00  0.00    -0.291 OA
ATOM     21  C   UNL     1      31.926 -12.684 -21.142  0.00  0.00    +0.171 C 
BRANCH  21  22
ATOM     22  C   UNL     1      31.874 -11.397 -20.388  0.00  0.00    +0.035 C 
ATOM     23  C   UNL     1      31.716 -10.226 -21.093  0.00  0.00    +0.003 C 
ATOM     24  C   UNL     1      31.986 -11.430 -19.017  0.00  0.00    +0.003 C 
ATOM     25  C   UNL     1      31.667  -9.022 -20.389  0.00  0.00    +0.000 C 
ATOM     26  C   UNL     1      31.939 -10.228 -18.313  0.00  0.00    +0.000 C 
ATOM     27  C   UNL     1      31.778  -9.024 -18.999  0.00  0.00    +0.000 C 
ENDBRANCH  21  22
ENDBRANCH  19  21
ENDBRANCH   3  19
TORSDOF 7
ENDMDL
MODEL 8
REMARK VINA RESULT:      -9.1      1.472      2.276
REMARK  Name = 101616
REMARK  7 active torsions:
REMARK  status: ('A' for Active; 'I' for Inactive)
REMARK    1  A    between atoms: C_2  and  C_9
REMARK    2  A    between atoms: C_3  and  C_19
REMARK    3  A    between atoms: C_9  and  C_10
REMARK    4  A    between atoms: C_10  and  C_11
REMARK    5  A    between atoms: C_10  and  O_17
REMARK    6  A    between atoms: C_19  and  C_21
REMARK    7  A    between atoms: C_21  and  C_22
REMARK                            x       y       z     vdW  Elec       q    Type
REMARK                         _______ _______ _______ _____ _____    ______ ____
ROOT
ATOM      1  N   UNL     1      32.532  -9.410 -21.984  0.00  0.00    +0.388 N 
ATOM      2  C   UNL     1      32.419 -10.695 -21.255  0.00  0.00    -0.055 C 
ATOM      3  C   UNL     1      32.844  -8.317 -21.032  0.00  0.00    -0.050 C 
ATOM      4  C   UNL     1      31.355 -10.658 -20.144  0.00  0.00    -0.021 C 
ATOM      5  C   UNL     1      31.796  -8.186 -19.913  0.00  0.00    -0.020 C 
ATOM      6  C   UNL     1      31.605  -9.507 -19.174  0.00  0.00    -0.004 C 
ATOM      7  C   UNL     1      31.394  -9.126 -22.859  0.00  0.00    -0.100 C 
ATOM      8  H   UNL     1      33.315  -9.489 -22.634  0.00  0.00    -0.080 HD
ENDROOT
BRANCH   2   9
ATOM      9  C   UNL     1      32.197 -11.902 -22.174  0.00  0.00    +0.013 C 
BRANCH   9  10
ATOM     10  C   UNL     1      33.496 -12.427 -22.785  0.00  0.00    +0.131 C 
BRANCH  10  11
ATOM     11  C   UNL     1      34.008 -13.697 -22.148  0.00  0.00    +0.004 C 
ATOM     12  C   UNL     1      34.564 -14.681 -22.950  0.00  0.00    -0.002 C 
ATOM     13  C   UNL     1      33.914 -13.854 -20.775  0.00  0.00    -0.002 C 
ATOM     14  C   UNL     1      35.038 -15.854 -22.361  0.00  0.00    -0.000 C 
ATOM     15  C   UNL     1      34.386 -15.027 -20.186  0.00  0.00    -0.000 C 
ATOM     16  C   UNL     1      34.949 -16.026 -20.980  0.00  0.00    -0.000 C 
ENDBRANCH  10  11
BRANCH  10  17
ATOM     17  O   UNL     1      33.270 -12.688 -24.171  0.00  0.00    -0.380 OA
ATOM     18  H   UNL     1      32.891 -13.575 -24.276  0.00  0.00    +0.211 HD
ENDBRANCH  10  17
ENDBRANCH   9  10
ENDBRANCH   2   9
BRANCH   3  19
ATOM     19  C   UNL     1      33.077  -6.963 -21.712  0.00  0.00    +0.048 C 
BRANCH  19  21
ATOM     20  O   UNL     1      35.258  -7.689 -22.438  0.00  0.00    -0.291 OA
ATOM     21  C   UNL     1      34.259  -7.007 -22.657  0.00  0.00    +0.171 C 
BRANCH  21  22
ATOM     22  C   UNL     1      34.196  -6.184 -23.900  0.00  0.00    +0.035 C 
ATOM     23  C   UNL     1      32.983  -5.658 -24.282  0.00  0.00    +0.003 C 
ATOM     24  C   UNL     1      35.353  -5.984 -24.618  0.00  0.00    +0.003 C 
ATOM     25  C   UNL     1      32.924  -4.889 -25.445  0.00  0.00    +0.000 C 
ATOM     26  C   UNL     1      35.295  -5.216 -25.780  0.00  0.00    +0.000 C 
ATOM     27  C   UNL     1      34.079  -4.668 -26.193  0.00  0.00    +0.000 C 
ENDBRANCH  21  22
ENDBRANCH  19  21
ENDBRANCH   3  19
TORSDOF 7
ENDMDL
MODEL 9
REMARK VINA RESULT:      -9.1      7.706     11.307
REMARK  Name = 101616
REMARK  7 active torsions:
REMARK  status: ('A' for Active; 'I' for Inactive)
REMARK    1  A    between atoms: C_2  and  C_9
REMARK    2  A    between atoms: C_3  and  C_19
REMARK    3  A    between atoms: C_9  and  C_10
REMARK    4  A    between atoms: C_10  and  C_11
REMARK    5  A    between atoms: C_10  and  O_17
REMARK    6  A    between atoms: C_19  and  C_21
REMARK    7  A    between atoms: C_21  and  C_22
REMARK                            x       y       z     vdW  Elec       q    Type
REMARK                         _______ _______ _______ _____ _____    ______ ____
ROOT
ATOM      1  N   UNL     1      34.143 -21.358 -19.940  0.00  0.00    +0.388 N 
ATOM      2  C   UNL     1      34.776 -22.312 -19.000  0.00  0.00    -0.055 C 
ATOM      3  C   UNL     1      35.187 -20.641 -20.709  0.00  0.00    -0.050 C 
ATOM      4  C   UNL     1      35.756 -21.631 -18.029  0.00  0.00    -0.021 C 
ATOM      5  C   UNL     1      36.183 -19.892 -19.805  0.00  0.00    -0.020 C 
ATOM      6  C   UNL     1      36.815 -20.829 -18.780  0.00  0.00    -0.004 C 
ATOM      7  C   UNL     1      33.160 -20.474 -19.311  0.00  0.00    -0.100 C 
ATOM      8  H   UNL     1      33.584 -21.897 -20.602  0.00  0.00    -0.080 HD
ENDROOT
BRANCH   2   9
ATOM      9  C   UNL     1      33.767 -23.173 -18.230  0.00  0.00    +0.013 C 
BRANCH   9  10
ATOM     10  C   UNL     1      33.941 -23.074 -16.715  0.00  0.00    +0.131 C 
BRANCH  10  11
ATOM     11  C   UNL     1      32.641 -23.017 -15.947  0.00  0.00    +0.004 C 
ATOM     12  C   UNL     1      31.458 -22.799 -16.634  0.00  0.00    -0.002 C 
ATOM     13  C   UNL     1      32.656 -23.186 -14.573  0.00  0.00    -0.002 C 
ATOM     14  C   UNL     1      30.256 -22.747 -15.926  0.00  0.00    -0.000 C 
ATOM     15  C   UNL     1      31.456 -23.133 -13.864  0.00  0.00    -0.000 C 
ATOM     16  C   UNL     1      30.257 -22.914 -14.541  0.00  0.00    -0.000 C 
ENDBRANCH  10  11
BRANCH  10  17
ATOM     17  O   UNL     1      34.667 -24.221 -16.268  0.00  0.00    -0.380 OA
ATOM     18  H   UNL     1      35.619 -24.059 -16.360  0.00  0.00    +0.211 HD
ENDBRANCH  10  17
ENDBRANCH   9  10
ENDBRANCH   2   9
BRANCH   3  19
ATOM     19  C   UNL     1      34.621 -19.701 -21.779  0.00  0.00    +0.048 C 
BRANCH  19  21
ATOM     20  O   UNL     1      36.752 -18.897 -22.569  0.00  0.00    -0.291 OA
ATOM     21  C   UNL     1      35.619 -18.632 -22.171  0.00  0.00    +0.171 C 
BRANCH  21  22
ATOM     22  C   UNL     1      35.199 -17.205 -22.066  0.00  0.00    +0.035 C 
ATOM     23  C   UNL     1      34.960 -16.501 -23.225  0.00  0.00    +0.003 C 
ATOM     24  C   UNL     1      35.068 -16.645 -20.816  0.00  0.00    +0.003 C 
ATOM     25  C   UNL     1      34.567 -15.166 -23.128  0.00  0.00    +0.000 C 
ATOM     26  C   UNL     1      34.676 -15.311 -20.718  0.00  0.00    +0.000 C 
ATOM     27  C   UNL     1      34.425 -14.571 -21.874  0.00  0.00    +0.000 C 
ENDBRANCH  21  22
ENDBRANCH  19  21
ENDBRANCH   3  19
TORSDOF 7
ENDMDL
