MODEL 1
REMARK VINA RESULT:     -11.4      0.000      0.000
REMARK  Name = 86764100
REMARK  4 active torsions:
REMARK  status: ('A' for Active; 'I' for Inactive)
REMARK    1  A    between atoms: C_1  and  C_12
REMARK    2  A    between atoms: C_5  and  O_19
REMARK    3  A    between atoms: O_19  and  C_21
REMARK    4  A    between atoms: C_22  and  C_29
REMARK                            x       y       z     vdW  Elec       q    Type
REMARK                         _______ _______ _______ _____ _____    ______ ____
ROOT
ATOM      1  C   UNL     1      33.626 -13.305 -22.940  0.00  0.00    +0.012 C 
ATOM      2  C   UNL     1      32.607 -12.867 -22.094  0.00  0.00    -0.017 C 
ATOM      3  C   UNL     1      34.209 -12.420 -23.847  0.00  0.00    +0.004 C 
ATOM      4  C   UNL     1      32.171 -11.543 -22.155  0.00  0.00    +0.033 C 
ATOM      5  C   UNL     1      32.755 -10.658 -23.061  0.00  0.00    +0.147 C 
ATOM      6  C   UNL     1      33.773 -11.096 -23.907  0.00  0.00    +0.038 C 
ATOM      7  C   UNL     1      31.960 -13.788 -21.110  0.00  0.00    +0.031 C 
ENDROOT
BRANCH   1  12
ATOM      8  O   UNL     1      34.291 -17.557 -25.062  0.00  0.00    -0.246 OA
ATOM      9  O   UNL     1      35.677 -17.041 -20.732  0.00  0.00    -0.267 OA
ATOM     10  N   UNL     1      33.959 -15.479 -24.047  0.00  0.00    -0.280 N 
ATOM     11  N   UNL     1      34.974 -17.273 -22.904  0.00  0.00    -0.275 N 
ATOM     12  C   UNL     1      34.104 -14.686 -22.902  0.00  0.00    +0.064 A 
ATOM     13  C   UNL     1      34.669 -15.151 -21.766  0.00  0.00    +0.050 A 
ATOM     14  C   UNL     1      34.395 -16.814 -24.082  0.00  0.00    +0.331 A 
ATOM     15  C   UNL     1      35.156 -16.562 -21.736  0.00  0.00    +0.258 A 
ATOM     16  C   UNL     1      33.337 -14.913 -25.246  0.00  0.00    +0.135 C 
ATOM     17  C   UNL     1      34.870 -14.380 -20.489  0.00  0.00    +0.038 C 
ATOM     18  H   UNL     1      35.289 -18.206 -22.903  0.00  0.00    +0.173 HD
ENDBRANCH   1  12
BRANCH   5  19
ATOM     19  O   UNL     1      32.329  -9.366 -23.121  0.00  0.00    -0.436 OA
BRANCH  19  21
ATOM     20  N   UNL     1      31.732  -8.707 -20.973  0.00  0.00    -0.210 NA
ATOM     21  C   UNL     1      32.571  -8.558 -22.023  0.00  0.00    +0.234 C 
ATOM     22  C   UNL     1      33.626  -7.661 -22.050  0.00  0.00    +0.125 C 
ATOM     23  C   UNL     1      33.835  -6.865 -20.929  0.00  0.00    +0.010 C 
ATOM     24  C   UNL     1      32.993  -6.990 -19.829  0.00  0.00    +0.021 C 
ATOM     25  C   UNL     1      31.966  -7.917 -19.900  0.00  0.00    +0.102 C 
BRANCH  22  29
ATOM     26  F   UNL     1      35.418  -8.560 -23.357  0.00  0.00    -0.166 F 
ATOM     27  F   UNL     1      33.854  -7.504 -24.426  0.00  0.00    -0.166 F 
ATOM     28  F   UNL     1      35.274  -6.396 -23.208  0.00  0.00    -0.166 F 
ATOM     29  C   UNL     1      34.522  -7.535 -23.234  0.00  0.00    +0.423 C 
ENDBRANCH  22  29
ENDBRANCH  19  21
ENDBRANCH   5  19
TORSDOF 4
ENDMDL
MODEL 2
REMARK VINA RESULT:     -11.4      7.080     11.066
REMARK  Name = 86764100
REMARK  4 active torsions:
REMARK  status: ('A' for Active; 'I' for Inactive)
REMARK    1  A    between atoms: C_1  and  C_12
REMARK    2  A    between atoms: C_5  and  O_19
REMARK    3  A    between atoms: O_19  and  C_21
REMARK    4  A    between atoms: C_22  and  C_29
REMARK                            x       y       z     vdW  Elec       q    Type
REMARK                         _______ _______ _______ _____ _____    ______ ____
ROOT
ATOM      1  C   UNL     1      34.976 -18.765 -21.185  0.00  0.00    +0.012 C 
ATOM      2  C   UNL     1      36.224 -19.316 -20.892  0.00  0.00    -0.017 C 
ATOM      3  C   UNL     1      33.813 -19.398 -20.746  0.00  0.00    +0.004 C 
ATOM      4  C   UNL     1      36.308 -20.500 -20.161  0.00  0.00    +0.033 C 
ATOM      5  C   UNL     1      35.145 -21.133 -19.722  0.00  0.00    +0.147 C 
ATOM      6  C   UNL     1      33.898 -20.583 -20.014  0.00  0.00    +0.038 C 
ATOM      7  C   UNL     1      37.490 -18.663 -21.346  0.00  0.00    +0.031 C 
ENDROOT
BRANCH   1  12
ATOM      8  O   UNL     1      34.493 -16.468 -25.371  0.00  0.00    -0.246 OA
ATOM      9  O   UNL     1      34.742 -13.983 -21.536  0.00  0.00    -0.267 OA
ATOM     10  N   UNL     1      34.727 -17.605 -23.342  0.00  0.00    -0.280 N 
ATOM     11  N   UNL     1      34.619 -15.252 -23.444  0.00  0.00    -0.275 N 
ATOM     12  C   UNL     1      34.852 -17.526 -21.950  0.00  0.00    +0.064 A 
ATOM     13  C   UNL     1      34.864 -16.346 -21.291  0.00  0.00    +0.050 A 
ATOM     14  C   UNL     1      34.606 -16.455 -24.142  0.00  0.00    +0.331 A 
ATOM     15  C   UNL     1      34.737 -15.085 -22.079  0.00  0.00    +0.258 A 
ATOM     16  C   UNL     1      34.723 -18.915 -23.996  0.00  0.00    +0.135 C 
ATOM     17  C   UNL     1      34.993 -16.157 -19.803  0.00  0.00    +0.038 C 
ATOM     18  H   UNL     1      34.534 -14.432 -23.981  0.00  0.00    +0.173 HD
ENDBRANCH   1  12
BRANCH   5  19
ATOM     19  O   UNL     1      35.228 -22.290 -19.008  0.00  0.00    -0.436 OA
BRANCH  19  21
ATOM     20  N   UNL     1      36.853 -21.679 -17.461  0.00  0.00    -0.210 NA
ATOM     21  C   UNL     1      35.626 -22.202 -17.685  0.00  0.00    +0.234 C 
ATOM     22  C   UNL     1      34.777 -22.641 -16.683  0.00  0.00    +0.125 C 
ATOM     23  C   UNL     1      35.214 -22.538 -15.366  0.00  0.00    +0.010 C 
ATOM     24  C   UNL     1      36.470 -22.006 -15.097  0.00  0.00    +0.021 C 
ATOM     25  C   UNL     1      37.244 -21.594 -16.170  0.00  0.00    +0.102 C 
BRANCH  22  29
ATOM     26  F   UNL     1      32.773 -23.672 -15.878  0.00  0.00    -0.166 F 
ATOM     27  F   UNL     1      32.576 -22.318 -17.562  0.00  0.00    -0.166 F 
ATOM     28  F   UNL     1      33.490 -24.271 -17.842  0.00  0.00    -0.166 F 
ATOM     29  C   UNL     1      33.433 -23.211 -16.983  0.00  0.00    +0.423 C 
ENDBRANCH  22  29
ENDBRANCH  19  21
ENDBRANCH   5  19
TORSDOF 4
ENDMDL
MODEL 3
REMARK VINA RESULT:     -11.3      0.522      2.040
REMARK  Name = 86764100
REMARK  4 active torsions:
REMARK  status: ('A' for Active; 'I' for Inactive)
REMARK    1  A    between atoms: C_1  and  C_12
REMARK    2  A    between atoms: C_5  and  O_19
REMARK    3  A    between atoms: O_19  and  C_21
REMARK    4  A    between atoms: C_22  and  C_29
REMARK                            x       y       z     vdW  Elec       q    Type
REMARK                         _______ _______ _______ _____ _____    ______ ____
ROOT
ATOM      1  C   UNL     1      33.611 -13.248 -22.998  0.00  0.00    +0.012 C 
ATOM      2  C   UNL     1      32.592 -12.833 -22.140  0.00  0.00    -0.017 C 
ATOM      3  C   UNL     1      34.192 -12.340 -23.883  0.00  0.00    +0.004 C 
ATOM      4  C   UNL     1      32.155 -11.509 -22.167  0.00  0.00    +0.033 C 
ATOM      5  C   UNL     1      32.736 -10.600 -23.052  0.00  0.00    +0.147 C 
ATOM      6  C   UNL     1      33.754 -11.015 -23.910  0.00  0.00    +0.038 C 
ATOM      7  C   UNL     1      31.947 -13.779 -21.179  0.00  0.00    +0.031 C 
ENDROOT
BRANCH   1  12
ATOM      8  O   UNL     1      35.697 -16.943 -20.758  0.00  0.00    -0.246 OA
ATOM      9  O   UNL     1      34.344 -17.504 -25.093  0.00  0.00    -0.267 OA
ATOM     10  N   UNL     1      34.682 -15.133 -21.831  0.00  0.00    -0.280 N 
ATOM     11  N   UNL     1      35.013 -17.197 -22.920  0.00  0.00    -0.275 N 
ATOM     12  C   UNL     1      34.091 -14.629 -22.995  0.00  0.00    +0.064 A 
ATOM     13  C   UNL     1      33.951 -15.371 -24.116  0.00  0.00    +0.050 A 
ATOM     14  C   UNL     1      35.168 -16.449 -21.757  0.00  0.00    +0.331 A 
ATOM     15  C   UNL     1      34.444 -16.780 -24.105  0.00  0.00    +0.258 A 
ATOM     16  C   UNL     1      34.805 -14.274 -20.651  0.00  0.00    +0.135 C 
ATOM     17  C   UNL     1      33.332 -14.923 -25.412  0.00  0.00    +0.038 C 
ATOM     18  H   UNL     1      35.344 -18.124 -22.894  0.00  0.00    +0.173 HD
ENDBRANCH   1  12
BRANCH   5  19
ATOM     19  O   UNL     1      32.309  -9.308 -23.079  0.00  0.00    -0.436 OA
BRANCH  19  21
ATOM     20  N   UNL     1      31.749  -8.684 -20.910  0.00  0.00    -0.210 NA
ATOM     21  C   UNL     1      32.571  -8.520 -21.971  0.00  0.00    +0.234 C 
ATOM     22  C   UNL     1      33.631  -7.627 -22.000  0.00  0.00    +0.125 C 
ATOM     23  C   UNL     1      33.861  -6.852 -20.868  0.00  0.00    +0.010 C 
ATOM     24  C   UNL     1      33.036  -6.993 -19.757  0.00  0.00    +0.021 C 
ATOM     25  C   UNL     1      32.004  -7.915 -19.828  0.00  0.00    +0.102 C 
BRANCH  22  29
ATOM     26  F   UNL     1      35.393  -8.514 -23.354  0.00  0.00    -0.166 F 
ATOM     27  F   UNL     1      33.821  -7.424 -24.376  0.00  0.00    -0.166 F 
ATOM     28  F   UNL     1      35.269  -6.352 -23.160  0.00  0.00    -0.166 F 
ATOM     29  C   UNL     1      34.507  -7.485 -23.196  0.00  0.00    +0.423 C 
ENDBRANCH  22  29
ENDBRANCH  19  21
ENDBRANCH   5  19
TORSDOF 4
ENDMDL
MODEL 4
REMARK VINA RESULT:     -11.2      7.064     11.199
REMARK  Name = 86764100
REMARK  4 active torsions:
REMARK  status: ('A' for Active; 'I' for Inactive)
REMARK    1  A    between atoms: C_1  and  C_12
REMARK    2  A    between atoms: C_5  and  O_19
REMARK    3  A    between atoms: O_19  and  C_21
REMARK    4  A    between atoms: C_22  and  C_29
REMARK                            x       y       z     vdW  Elec       q    Type
REMARK                         _______ _______ _______ _____ _____    ______ ____
ROOT
ATOM      1  C   UNL     1      34.959 -18.761 -21.266  0.00  0.00    +0.012 C 
ATOM      2  C   UNL     1      36.204 -19.309 -20.957  0.00  0.00    -0.017 C 
ATOM      3  C   UNL     1      33.792 -19.387 -20.829  0.00  0.00    +0.004 C 
ATOM      4  C   UNL     1      36.282 -20.484 -20.210  0.00  0.00    +0.033 C 
ATOM      5  C   UNL     1      35.115 -21.111 -19.772  0.00  0.00    +0.147 C 
ATOM      6  C   UNL     1      33.870 -20.563 -20.081  0.00  0.00    +0.038 C 
ATOM      7  C   UNL     1      37.474 -18.664 -21.410  0.00  0.00    +0.031 C 
ENDROOT
BRANCH   1  12
ATOM      8  O   UNL     1      34.785 -13.972 -21.525  0.00  0.00    -0.246 OA
ATOM      9  O   UNL     1      34.465 -16.378 -25.404  0.00  0.00    -0.267 OA
ATOM     10  N   UNL     1      34.873 -16.303 -21.378  0.00  0.00    -0.280 N 
ATOM     11  N   UNL     1      34.629 -15.195 -23.445  0.00  0.00    -0.275 N 
ATOM     12  C   UNL     1      34.843 -17.531 -22.048  0.00  0.00    +0.064 A 
ATOM     13  C   UNL     1      34.708 -17.621 -23.390  0.00  0.00    +0.050 A 
ATOM     14  C   UNL     1      34.765 -15.082 -22.065  0.00  0.00    +0.331 A 
ATOM     15  C   UNL     1      34.590 -16.361 -24.182  0.00  0.00    +0.258 A 
ATOM     16  C   UNL     1      35.020 -16.276 -19.921  0.00  0.00    +0.135 C 
ATOM     17  C   UNL     1      34.664 -18.888 -24.201  0.00  0.00    +0.038 C 
ATOM     18  H   UNL     1      34.552 -14.354 -23.949  0.00  0.00    +0.173 HD
ENDBRANCH   1  12
BRANCH   5  19
ATOM     19  O   UNL     1      35.191 -22.258 -19.043  0.00  0.00    -0.436 OA
BRANCH  19  21
ATOM     20  N   UNL     1      36.852 -21.623 -17.545  0.00  0.00    -0.210 NA
ATOM     21  C   UNL     1      35.625 -22.160 -17.732  0.00  0.00    +0.234 C 
ATOM     22  C   UNL     1      34.809 -22.604 -16.704  0.00  0.00    +0.125 C 
ATOM     23  C   UNL     1      35.282 -22.490 -15.401  0.00  0.00    +0.010 C 
ATOM     24  C   UNL     1      36.539 -21.942 -15.170  0.00  0.00    +0.021 C 
ATOM     25  C   UNL     1      37.277 -21.527 -16.266  0.00  0.00    +0.102 C 
BRANCH  22  29
ATOM     26  F   UNL     1      33.487 -24.265 -17.808  0.00  0.00    -0.166 F 
ATOM     27  F   UNL     1      32.833 -23.637 -15.837  0.00  0.00    -0.166 F 
ATOM     28  F   UNL     1      32.601 -22.298 -17.535  0.00  0.00    -0.166 F 
ATOM     29  C   UNL     1      33.464 -23.190 -16.964  0.00  0.00    +0.423 C 
ENDBRANCH  22  29
ENDBRANCH  19  21
ENDBRANCH   5  19
TORSDOF 4
ENDMDL
MODEL 5
REMARK VINA RESULT:     -11.2      1.528      2.173
REMARK  Name = 86764100
REMARK  4 active torsions:
REMARK  status: ('A' for Active; 'I' for Inactive)
REMARK    1  A    between atoms: C_1  and  C_12
REMARK    2  A    between atoms: C_5  and  O_19
REMARK    3  A    between atoms: O_19  and  C_21
REMARK    4  A    between atoms: C_22  and  C_29
REMARK                            x       y       z     vdW  Elec       q    Type
REMARK                         _______ _______ _______ _____ _____    ______ ____
ROOT
ATOM      1  C   UNL     1      32.889 -12.765 -22.724  0.00  0.00    +0.012 C 
ATOM      2  C   UNL     1      33.429 -11.622 -23.315  0.00  0.00    -0.017 C 
ATOM      3  C   UNL     1      31.655 -12.699 -22.077  0.00  0.00    +0.004 C 
ATOM      4  C   UNL     1      32.734 -10.414 -23.260  0.00  0.00    +0.033 C 
ATOM      5  C   UNL     1      31.500 -10.349 -22.613  0.00  0.00    +0.147 C 
ATOM      6  C   UNL     1      30.960 -11.490 -22.022  0.00  0.00    +0.038 C 
ATOM      7  C   UNL     1      34.749 -11.656 -24.017  0.00  0.00    +0.031 C 
ENDROOT
BRANCH   1  12
ATOM      8  O   UNL     1      34.415 -16.623 -25.135  0.00  0.00    -0.246 OA
ATOM      9  O   UNL     1      35.387 -16.314 -20.674  0.00  0.00    -0.267 OA
ATOM     10  N   UNL     1      33.664 -14.736 -23.979  0.00  0.00    -0.280 N 
ATOM     11  N   UNL     1      34.887 -16.444 -22.910  0.00  0.00    -0.275 N 
ATOM     12  C   UNL     1      33.592 -14.046 -22.763  0.00  0.00    +0.064 A 
ATOM     13  C   UNL     1      34.147 -14.521 -21.626  0.00  0.00    +0.050 A 
ATOM     14  C   UNL     1      34.322 -15.973 -24.090  0.00  0.00    +0.331 A 
ATOM     15  C   UNL     1      34.863 -15.830 -21.674  0.00  0.00    +0.258 A 
ATOM     16  C   UNL     1      33.040 -14.165 -25.174  0.00  0.00    +0.135 C 
ATOM     17  C   UNL     1      34.124 -13.857 -20.276  0.00  0.00    +0.038 C 
ATOM     18  H   UNL     1      35.355 -17.309 -22.961  0.00  0.00    +0.173 HD
ENDBRANCH   1  12
BRANCH   5  19
ATOM     19  O   UNL     1      30.822  -9.169 -22.558  0.00  0.00    -0.436 OA
BRANCH  19  21
ATOM     20  N   UNL     1      31.797  -8.141 -20.715  0.00  0.00    -0.210 NA
ATOM     21  C   UNL     1      31.479  -8.072 -22.028  0.00  0.00    +0.234 C 
ATOM     22  C   UNL     1      31.772  -6.989 -22.840  0.00  0.00    +0.125 C 
ATOM     23  C   UNL     1      32.432  -5.906 -22.269  0.00  0.00    +0.010 C 
ATOM     24  C   UNL     1      32.775  -5.940 -20.922  0.00  0.00    +0.021 C 
ATOM     25  C   UNL     1      32.438  -7.070 -20.196  0.00  0.00    +0.102 C 
BRANCH  22  29
ATOM     26  F   UNL     1      32.220  -7.717 -25.075  0.00  0.00    -0.166 F 
ATOM     27  F   UNL     1      30.139  -7.429 -24.532  0.00  0.00    -0.166 F 
ATOM     28  F   UNL     1      31.435  -5.706 -24.815  0.00  0.00    -0.166 F 
ATOM     29  C   UNL     1      31.400  -6.964 -24.283  0.00  0.00    +0.423 C 
ENDBRANCH  22  29
ENDBRANCH  19  21
ENDBRANCH   5  19
TORSDOF 4
ENDMDL
MODEL 6
REMARK VINA RESULT:     -11.2      1.591      2.978
REMARK  Name = 86764100
REMARK  4 active torsions:
REMARK  status: ('A' for Active; 'I' for Inactive)
REMARK    1  A    between atoms: C_1  and  C_12
REMARK    2  A    between atoms: C_5  and  O_19
REMARK    3  A    between atoms: O_19  and  C_21
REMARK    4  A    between atoms: C_22  and  C_29
REMARK                            x       y       z     vdW  Elec       q    Type
REMARK                         _______ _______ _______ _____ _____    ______ ____
ROOT
ATOM      1  C   UNL     1      32.869 -12.754 -22.767  0.00  0.00    +0.012 C 
ATOM      2  C   UNL     1      33.412 -11.605 -23.343  0.00  0.00    -0.017 C 
ATOM      3  C   UNL     1      31.635 -12.693 -22.120  0.00  0.00    +0.004 C 
ATOM      4  C   UNL     1      32.721 -10.396 -23.272  0.00  0.00    +0.033 C 
ATOM      5  C   UNL     1      31.487 -10.335 -22.625  0.00  0.00    +0.147 C 
ATOM      6  C   UNL     1      30.943 -11.482 -22.049  0.00  0.00    +0.038 C 
ATOM      7  C   UNL     1      34.732 -11.635 -24.045  0.00  0.00    +0.031 C 
ENDROOT
BRANCH   1  12
ATOM      8  O   UNL     1      35.337 -16.266 -20.622  0.00  0.00    -0.246 OA
ATOM      9  O   UNL     1      34.465 -16.634 -25.099  0.00  0.00    -0.267 OA
ATOM     10  N   UNL     1      34.133 -14.546 -21.648  0.00  0.00    -0.280 N 
ATOM     11  N   UNL     1      34.888 -16.425 -22.853  0.00  0.00    -0.275 N 
ATOM     12  C   UNL     1      33.567 -14.036 -22.823  0.00  0.00    +0.064 A 
ATOM     13  C   UNL     1      33.646 -14.687 -24.005  0.00  0.00    +0.050 A 
ATOM     14  C   UNL     1      34.820 -15.771 -21.627  0.00  0.00    +0.331 A 
ATOM     15  C   UNL     1      34.361 -15.996 -24.054  0.00  0.00    +0.258 A 
ATOM     16  C   UNL     1      34.013 -13.789 -20.399  0.00  0.00    +0.135 C 
ATOM     17  C   UNL     1      33.074 -14.225 -25.318  0.00  0.00    +0.038 C 
ATOM     18  H   UNL     1      35.363 -17.287 -22.865  0.00  0.00    +0.173 HD
ENDBRANCH   1  12
BRANCH   5  19
ATOM     19  O   UNL     1      30.813  -9.154 -22.556  0.00  0.00    -0.436 OA
BRANCH  19  21
ATOM     20  N   UNL     1      31.800  -8.135 -20.714  0.00  0.00    -0.210 NA
ATOM     21  C   UNL     1      31.479  -8.062 -22.025  0.00  0.00    +0.234 C 
ATOM     22  C   UNL     1      31.777  -6.980 -22.837  0.00  0.00    +0.125 C 
ATOM     23  C   UNL     1      32.446  -5.902 -22.267  0.00  0.00    +0.010 C 
ATOM     24  C   UNL     1      32.792  -5.940 -20.921  0.00  0.00    +0.021 C 
ATOM     25  C   UNL     1      32.451  -7.069 -20.195  0.00  0.00    +0.102 C 
BRANCH  22  29
ATOM     26  F   UNL     1      32.188  -7.739 -25.068  0.00  0.00    -0.166 F 
ATOM     27  F   UNL     1      30.122  -7.369 -24.520  0.00  0.00    -0.166 F 
ATOM     28  F   UNL     1      31.482  -5.698 -24.819  0.00  0.00    -0.166 F 
ATOM     29  C   UNL     1      31.400  -6.950 -24.278  0.00  0.00    +0.423 C 
ENDBRANCH  22  29
ENDBRANCH  19  21
ENDBRANCH   5  19
TORSDOF 4
ENDMDL
MODEL 7
REMARK VINA RESULT:     -10.9      1.951      2.305
REMARK  Name = 86764100
REMARK  4 active torsions:
REMARK  status: ('A' for Active; 'I' for Inactive)
REMARK    1  A    between atoms: C_1  and  C_12
REMARK    2  A    between atoms: C_5  and  O_19
REMARK    3  A    between atoms: O_19  and  C_21
REMARK    4  A    between atoms: C_22  and  C_29
REMARK                            x       y       z     vdW  Elec       q    Type
REMARK                         _______ _______ _______ _____ _____    ______ ____
ROOT
ATOM      1  C   UNL     1      33.582 -13.077 -22.787  0.00  0.00    +0.012 C 
ATOM      2  C   UNL     1      32.566 -12.684 -21.915  0.00  0.00    -0.017 C 
ATOM      3  C   UNL     1      34.157 -12.147 -23.652  0.00  0.00    +0.004 C 
ATOM      4  C   UNL     1      32.126 -11.361 -21.908  0.00  0.00    +0.033 C 
ATOM      5  C   UNL     1      32.702 -10.430 -22.774  0.00  0.00    +0.147 C 
ATOM      6  C   UNL     1      33.717 -10.822 -23.646  0.00  0.00    +0.038 C 
ATOM      7  C   UNL     1      31.928 -13.655 -20.973  0.00  0.00    +0.031 C 
ENDROOT
BRANCH   1  12
ATOM      8  O   UNL     1      34.275 -17.208 -25.128  0.00  0.00    -0.246 OA
ATOM      9  O   UNL     1      35.633 -16.918 -20.767  0.00  0.00    -0.267 OA
ATOM     10  N   UNL     1      33.930 -15.188 -24.005  0.00  0.00    -0.280 N 
ATOM     11  N   UNL     1      34.944 -17.037 -22.953  0.00  0.00    -0.275 N 
ATOM     12  C   UNL     1      34.065 -14.456 -22.820  0.00  0.00    +0.064 A 
ATOM     13  C   UNL     1      34.624 -14.979 -21.706  0.00  0.00    +0.050 A 
ATOM     14  C   UNL     1      34.370 -16.518 -24.109  0.00  0.00    +0.331 A 
ATOM     15  C   UNL     1      35.115 -16.388 -21.748  0.00  0.00    +0.258 A 
ATOM     16  C   UNL     1      33.313 -14.561 -25.177  0.00  0.00    +0.135 C 
ATOM     17  C   UNL     1      34.815 -14.277 -20.389  0.00  0.00    +0.038 C 
ATOM     18  H   UNL     1      35.262 -17.967 -23.000  0.00  0.00    +0.173 HD
ENDBRANCH   1  12
BRANCH   5  19
ATOM     19  O   UNL     1      32.272  -9.138 -22.767  0.00  0.00    -0.436 OA
BRANCH  19  21
ATOM     20  N   UNL     1      34.466  -8.384 -22.915  0.00  0.00    -0.210 NA
ATOM     21  C   UNL     1      33.160  -8.162 -23.186  0.00  0.00    +0.234 C 
ATOM     22  C   UNL     1      32.685  -7.039 -23.843  0.00  0.00    +0.125 C 
ATOM     23  C   UNL     1      33.608  -6.080 -24.247  0.00  0.00    +0.010 C 
ATOM     24  C   UNL     1      34.960  -6.273 -23.985  0.00  0.00    +0.021 C 
ATOM     25  C   UNL     1      35.334  -7.431 -23.323  0.00  0.00    +0.102 C 
BRANCH  22  29
ATOM     26  F   UNL     1      30.669  -7.858 -24.838  0.00  0.00    -0.166 F 
ATOM     27  F   UNL     1      30.470  -6.741 -22.989  0.00  0.00    -0.166 F 
ATOM     28  F   UNL     1      30.980  -5.706 -24.831  0.00  0.00    -0.166 F 
ATOM     29  C   UNL     1      31.234  -6.843 -24.118  0.00  0.00    +0.423 C 
ENDBRANCH  22  29
ENDBRANCH  19  21
ENDBRANCH   5  19
TORSDOF 4
ENDMDL
MODEL 8
REMARK VINA RESULT:     -10.9      6.956     11.221
REMARK  Name = 86764100
REMARK  4 active torsions:
REMARK  status: ('A' for Active; 'I' for Inactive)
REMARK    1  A    between atoms: C_1  and  C_12
REMARK    2  A    between atoms: C_5  and  O_19
REMARK    3  A    between atoms: O_19  and  C_21
REMARK    4  A    between atoms: C_22  and  C_29
REMARK                            x       y       z     vdW  Elec       q    Type
REMARK                         _______ _______ _______ _____ _____    ______ ____
ROOT
ATOM      1  C   UNL     1      35.317 -18.935 -21.143  0.00  0.00    +0.012 C 
ATOM      2  C   UNL     1      36.639 -19.298 -20.884  0.00  0.00    -0.017 C 
ATOM      3  C   UNL     1      34.270 -19.649 -20.560  0.00  0.00    +0.004 C 
ATOM      4  C   UNL     1      36.914 -20.374 -20.040  0.00  0.00    +0.033 C 
ATOM      5  C   UNL     1      35.867 -21.088 -19.457  0.00  0.00    +0.147 C 
ATOM      6  C   UNL     1      34.545 -20.726 -19.716  0.00  0.00    +0.038 C 
ATOM      7  C   UNL     1      37.785 -18.555 -21.492  0.00  0.00    +0.031 C 
ENDROOT
BRANCH   1  12
ATOM      8  O   UNL     1      34.611 -14.241 -21.843  0.00  0.00    -0.246 OA
ATOM      9  O   UNL     1      34.170 -17.068 -25.414  0.00  0.00    -0.267 OA
ATOM     10  N   UNL     1      34.960 -16.523 -21.482  0.00  0.00    -0.280 N 
ATOM     11  N   UNL     1      34.398 -15.672 -23.607  0.00  0.00    -0.275 N 
ATOM     12  C   UNL     1      34.995 -17.813 -22.023  0.00  0.00    +0.064 A 
ATOM     13  C   UNL     1      34.740 -18.058 -23.327  0.00  0.00    +0.050 A 
ATOM     14  C   UNL     1      34.655 -15.398 -22.268  0.00  0.00    +0.331 A 
ATOM     15  C   UNL     1      34.411 -16.908 -24.220  0.00  0.00    +0.258 A 
ATOM     16  C   UNL     1      35.245 -16.326 -20.059  0.00  0.00    +0.135 C 
ATOM     17  C   UNL     1      34.752 -19.404 -24.002  0.00  0.00    +0.038 C 
ATOM     18  H   UNL     1      34.183 -14.900 -24.180  0.00  0.00    +0.173 HD
ENDBRANCH   1  12
BRANCH   5  19
ATOM     19  O   UNL     1      36.135 -22.138 -18.634  0.00  0.00    -0.436 OA
BRANCH  19  21
ATOM     20  N   UNL     1      33.967 -22.819 -18.141  0.00  0.00    -0.210 NA
ATOM     21  C   UNL     1      35.188 -22.467 -17.679  0.00  0.00    +0.234 C 
ATOM     22  C   UNL     1      35.523 -22.421 -16.335  0.00  0.00    +0.125 C 
ATOM     23  C   UNL     1      34.544 -22.756 -15.407  0.00  0.00    +0.010 C 
ATOM     24  C   UNL     1      33.276 -23.123 -15.845  0.00  0.00    +0.021 C 
ATOM     25  C   UNL     1      33.041 -23.139 -17.210  0.00  0.00    +0.102 C 
BRANCH  22  29
ATOM     26  F   UNL     1      37.251 -20.767 -16.266  0.00  0.00    -0.166 F 
ATOM     27  F   UNL     1      37.031 -22.033 -14.519  0.00  0.00    -0.166 F 
ATOM     28  F   UNL     1      37.863 -22.852 -16.353  0.00  0.00    -0.166 F 
ATOM     29  C   UNL     1      36.885 -22.025 -15.877  0.00  0.00    +0.423 C 
ENDBRANCH  22  29
ENDBRANCH  19  21
ENDBRANCH   5  19
TORSDOF 4
ENDMDL
MODEL 9
REMARK VINA RESULT:     -10.9      2.029      2.713
REMARK  Name = 86764100
REMARK  4 active torsions:
REMARK  status: ('A' for Active; 'I' for Inactive)
REMARK    1  A    between atoms: C_1  and  C_12
REMARK    2  A    between atoms: C_5  and  O_19
REMARK    3  A    between atoms: O_19  and  C_21
REMARK    4  A    between atoms: C_22  and  C_29
REMARK                            x       y       z     vdW  Elec       q    Type
REMARK                         _______ _______ _______ _____ _____    ______ ____
ROOT
ATOM      1  C   UNL     1      32.873 -12.644 -22.667  0.00  0.00    +0.012 C 
ATOM      2  C   UNL     1      33.424 -11.480 -23.206  0.00  0.00    -0.017 C 
ATOM      3  C   UNL     1      31.671 -12.585 -21.963  0.00  0.00    +0.004 C 
ATOM      4  C   UNL     1      32.772 -10.259 -23.039  0.00  0.00    +0.033 C 
ATOM      5  C   UNL     1      31.569 -10.201 -22.335  0.00  0.00    +0.147 C 
ATOM      6  C   UNL     1      31.018 -11.363 -21.797  0.00  0.00    +0.038 C 
ATOM      7  C   UNL     1      34.711 -11.506 -23.966  0.00  0.00    +0.031 C 
ENDROOT
BRANCH   1  12
ATOM      8  O   UNL     1      34.065 -16.430 -25.363  0.00  0.00    -0.246 OA
ATOM      9  O   UNL     1      35.436 -16.343 -20.998  0.00  0.00    -0.267 OA
ATOM     10  N   UNL     1      33.476 -14.577 -24.067  0.00  0.00    -0.280 N 
ATOM     11  N   UNL     1      34.737 -16.361 -23.184  0.00  0.00    -0.275 N 
ATOM     12  C   UNL     1      33.532 -13.939 -22.822  0.00  0.00    +0.064 A 
ATOM     13  C   UNL     1      34.170 -14.479 -21.761  0.00  0.00    +0.050 A 
ATOM     14  C   UNL     1      34.084 -15.824 -24.288  0.00  0.00    +0.331 A 
ATOM     15  C   UNL     1      34.840 -15.802 -21.927  0.00  0.00    +0.258 A 
ATOM     16  C   UNL     1      32.766 -13.938 -25.177  0.00  0.00    +0.135 C 
ATOM     17  C   UNL     1      34.286 -13.875 -20.387  0.00  0.00    +0.038 C 
ATOM     18  H   UNL     1      35.173 -17.235 -23.313  0.00  0.00    +0.173 HD
ENDBRANCH   1  12
BRANCH   5  19
ATOM     19  O   UNL     1      30.933  -9.008 -22.173  0.00  0.00    -0.436 OA
BRANCH  19  21
ATOM     20  N   UNL     1      31.372  -7.658 -24.014  0.00  0.00    -0.210 NA
ATOM     21  C   UNL     1      31.541  -7.877 -22.690  0.00  0.00    +0.234 C 
ATOM     22  C   UNL     1      32.273  -7.049 -21.855  0.00  0.00    +0.125 C 
ATOM     23  C   UNL     1      32.871  -5.924 -22.413  0.00  0.00    +0.010 C 
ATOM     24  C   UNL     1      32.719  -5.665 -23.771  0.00  0.00    +0.021 C 
ATOM     25  C   UNL     1      31.967  -6.554 -24.520  0.00  0.00    +0.102 C 
BRANCH  22  29
ATOM     26  F   UNL     1      33.096  -8.501 -20.140  0.00  0.00    -0.166 F 
ATOM     27  F   UNL     1      33.121  -6.373 -19.722  0.00  0.00    -0.166 F 
ATOM     28  F   UNL     1      31.232  -7.450 -19.754  0.00  0.00    -0.166 F 
ATOM     29  C   UNL     1      32.430  -7.337 -20.401  0.00  0.00    +0.423 C 
ENDBRANCH  22  29
ENDBRANCH  19  21
ENDBRANCH   5  19
TORSDOF 4
ENDMDL
