MODEL 1
REMARK VINA RESULT:     -10.7      0.000      0.000
REMARK  Name = 9956726
REMARK  9 active torsions:
REMARK  status: ('A' for Active; 'I' for Inactive)
REMARK    1  A    between atoms: N_2  and  C_21
REMARK    2  A    between atoms: C_3  and  C_7
REMARK    3  A    between atoms: C_8  and  C_11
REMARK    4  A    between atoms: C_14  and  C_20
REMARK    5  A    between atoms: C_21  and  C_22
REMARK    6  A    between atoms: C_23  and  O_28
REMARK    7  A    between atoms: O_28  and  C_29
REMARK    8  A    between atoms: C_29  and  C_33
REMARK    9  A    between atoms: C_33  and  O_34
REMARK                            x       y       z     vdW  Elec       q    Type
REMARK                         _______ _______ _______ _____ _____    ______ ____
ROOT
ATOM      1  O   UNL     1      33.824 -23.906 -18.795  0.00  0.00    -0.274 OA
ATOM      2  N   UNL     1      33.244 -22.393 -17.166  0.00  0.00    -0.299 N 
ATOM      3  C   UNL     1      33.853 -22.749 -18.370  0.00  0.00    +0.239 C 
ATOM      4  H   UNL     1      33.293 -21.457 -16.868  0.00  0.00    +0.150 HD
ENDROOT
BRANCH   3   7
ATOM      5  S   UNL     1      33.580 -20.790 -20.239  0.00  0.00    -0.067 S 
ATOM      6  N   UNL     1      36.059 -20.153 -19.872  0.00  0.00    -0.403 NA
ATOM      7  C   UNL     1      34.499 -21.656 -19.111  0.00  0.00    +0.178 C 
ATOM      8  C   UNL     1      34.979 -19.848 -20.557  0.00  0.00    +0.157 C 
ATOM      9  C   UNL     1      35.770 -21.209 -19.030  0.00  0.00    +0.107 C 
ATOM     10  C   UNL     1      36.851 -21.719 -18.161  0.00  0.00    +0.063 C 
BRANCH   8  11
ATOM     11  C   UNL     1      34.894 -18.793 -21.540  0.00  0.00    +0.036 C 
ATOM     12  C   UNL     1      34.568 -19.097 -22.861  0.00  0.00    +0.003 C 
ATOM     13  C   UNL     1      35.138 -17.473 -21.166  0.00  0.00    +0.003 C 
ATOM     14  C   UNL     1      34.729 -16.757 -23.437  0.00  0.00    +0.071 C 
ATOM     15  C   UNL     1      34.487 -18.078 -23.811  0.00  0.00    +0.004 C 
ATOM     16  C   UNL     1      35.055 -16.454 -22.116  0.00  0.00    +0.004 C 
BRANCH  14  20
ATOM     17  F   UNL     1      33.529 -15.739 -25.239  0.00  0.00    -0.166 F 
ATOM     18  F   UNL     1      34.613 -14.415 -23.907  0.00  0.00    -0.166 F 
ATOM     19  F   UNL     1      35.701 -15.667 -25.315  0.00  0.00    -0.166 F 
ATOM     20  C   UNL     1      34.643 -15.667 -24.452  0.00  0.00    +0.419 C 
ENDBRANCH  14  20
ENDBRANCH   8  11
ENDBRANCH   3   7
BRANCH   2  21
ATOM     21  C   UNL     1      32.546 -23.349 -16.345  0.00  0.00    +0.116 C 
BRANCH  21  22
ATOM     22  C   UNL     1      33.353 -23.785 -15.169  0.00  0.00    -0.002 C 
ATOM     23  C   UNL     1      34.863 -24.598 -12.977  0.00  0.00    +0.139 C 
ATOM     24  C   UNL     1      32.902 -23.521 -13.876  0.00  0.00    +0.000 C 
ATOM     25  C   UNL     1      34.562 -24.456 -15.364  0.00  0.00    +0.000 C 
ATOM     26  C   UNL     1      33.658 -23.929 -12.777  0.00  0.00    +0.037 C 
ATOM     27  C   UNL     1      35.317 -24.862 -14.265  0.00  0.00    +0.037 C 
BRANCH  23  28
ATOM     28  O   UNL     1      35.603 -24.997 -11.899  0.00  0.00    -0.472 OA
BRANCH  28  29
ATOM     29  C   UNL     1      36.870 -24.362 -11.723  0.00  0.00    +0.221 C 
ATOM     30  C   UNL     1      37.942 -25.447 -11.695  0.00  0.00    +0.055 C 
ATOM     31  C   UNL     1      37.070 -23.379 -12.873  0.00  0.00    +0.055 C 
BRANCH  29  33
ATOM     32  O   UNL     1      36.388 -24.147  -9.346  0.00  0.00    -0.246 OA
ATOM     33  C   UNL     1      36.783 -23.636 -10.387  0.00  0.00    +0.350 C 
BRANCH  33  34
ATOM     34  O   UNL     1      37.193 -22.344 -10.449  0.00  0.00    -0.478 OA
ATOM     35  H   UNL     1      37.861 -22.092 -11.056  0.00  0.00    +0.295 HD
ENDBRANCH  33  34
ENDBRANCH  29  33
ENDBRANCH  28  29
ENDBRANCH  23  28
ENDBRANCH  21  22
ENDBRANCH   2  21
TORSDOF 9
ENDMDL
MODEL 2
REMARK VINA RESULT:     -10.4      6.554     11.763
REMARK  Name = 9956726
REMARK  9 active torsions:
REMARK  status: ('A' for Active; 'I' for Inactive)
REMARK    1  A    between atoms: N_2  and  C_21
REMARK    2  A    between atoms: C_3  and  C_7
REMARK    3  A    between atoms: C_8  and  C_11
REMARK    4  A    between atoms: C_14  and  C_20
REMARK    5  A    between atoms: C_21  and  C_22
REMARK    6  A    between atoms: C_23  and  O_28
REMARK    7  A    between atoms: O_28  and  C_29
REMARK    8  A    between atoms: C_29  and  C_33
REMARK    9  A    between atoms: C_33  and  O_34
REMARK                            x       y       z     vdW  Elec       q    Type
REMARK                         _______ _______ _______ _____ _____    ______ ____
ROOT
ATOM      1  O   UNL     1      34.269 -19.178 -23.581  0.00  0.00    -0.274 OA
ATOM      2  N   UNL     1      35.223 -17.245 -22.784  0.00  0.00    -0.299 N 
ATOM      3  C   UNL     1      34.908 -18.602 -22.698  0.00  0.00    +0.239 C 
ATOM      4  H   UNL     1      35.735 -16.830 -22.055  0.00  0.00    +0.150 HD
ENDROOT
BRANCH   3   7
ATOM      5  S   UNL     1      34.326 -20.209 -20.580  0.00  0.00    -0.067 S 
ATOM      6  N   UNL     1      36.810 -20.106 -19.873  0.00  0.00    -0.403 NA
ATOM      7  C   UNL     1      35.414 -19.304 -21.510  0.00  0.00    +0.178 C 
ATOM      8  C   UNL     1      35.639 -20.609 -19.550  0.00  0.00    +0.157 C 
ATOM      9  C   UNL     1      36.670 -19.346 -21.017  0.00  0.00    +0.107 C 
ATOM     10  C   UNL     1      37.873 -18.683 -21.561  0.00  0.00    +0.063 C 
BRANCH   8  11
ATOM     11  C   UNL     1      35.389 -21.459 -18.410  0.00  0.00    +0.036 C 
ATOM     12  C   UNL     1      34.167 -22.117 -18.286  0.00  0.00    +0.003 C 
ATOM     13  C   UNL     1      36.372 -21.619 -17.434  0.00  0.00    +0.003 C 
ATOM     14  C   UNL     1      34.908 -23.099 -16.207  0.00  0.00    +0.071 C 
ATOM     15  C   UNL     1      33.926 -22.938 -17.183  0.00  0.00    +0.004 C 
ATOM     16  C   UNL     1      36.131 -22.440 -16.332  0.00  0.00    +0.004 C 
BRANCH  14  20
ATOM     17  F   UNL     1      35.015 -23.413 -13.838  0.00  0.00    -0.166 F 
ATOM     18  F   UNL     1      33.336 -24.312 -14.875  0.00  0.00    -0.166 F 
ATOM     19  F   UNL     1      35.327 -25.159 -15.095  0.00  0.00    -0.166 F 
ATOM     20  C   UNL     1      34.651 -23.976 -15.028  0.00  0.00    +0.419 C 
ENDBRANCH  14  20
ENDBRANCH   8  11
ENDBRANCH   3   7
BRANCH   2  21
ATOM     21  C   UNL     1      34.823 -16.433 -23.905  0.00  0.00    +0.116 C 
BRANCH  21  22
ATOM     22  C   UNL     1      34.314 -15.096 -23.484  0.00  0.00    -0.002 C 
ATOM     23  C   UNL     1      33.367 -12.599 -22.698  0.00  0.00    +0.139 C 
ATOM     24  C   UNL     1      33.455 -14.382 -24.319  0.00  0.00    +0.000 C 
ATOM     25  C   UNL     1      34.699 -14.558 -22.255  0.00  0.00    +0.000 C 
ATOM     26  C   UNL     1      32.980 -13.131 -23.925  0.00  0.00    +0.037 C 
ATOM     27  C   UNL     1      34.225 -13.307 -21.863  0.00  0.00    +0.037 C 
BRANCH  23  28
ATOM     28  O   UNL     1      32.901 -11.373 -22.314  0.00  0.00    -0.472 OA
BRANCH  28  29
ATOM     29  C   UNL     1      31.813 -11.364 -21.387  0.00  0.00    +0.221 C 
ATOM     30  C   UNL     1      30.537 -11.048 -22.161  0.00  0.00    +0.055 C 
ATOM     31  C   UNL     1      31.758 -12.731 -20.711  0.00  0.00    +0.055 C 
BRANCH  29  33
ATOM     32  O   UNL     1      32.404  -9.108 -20.687  0.00  0.00    -0.246 OA
ATOM     33  C   UNL     1      32.139 -10.266 -20.384  0.00  0.00    +0.350 C 
BRANCH  33  34
ATOM     34  O   UNL     1      32.106 -10.688 -19.094  0.00  0.00    -0.478 OA
ATOM     35  H   UNL     1      31.388 -10.449 -18.541  0.00  0.00    +0.295 HD
ENDBRANCH  33  34
ENDBRANCH  29  33
ENDBRANCH  28  29
ENDBRANCH  23  28
ENDBRANCH  21  22
ENDBRANCH   2  21
TORSDOF 9
ENDMDL
MODEL 3
REMARK VINA RESULT:     -10.2      3.656      5.677
REMARK  Name = 9956726
REMARK  9 active torsions:
REMARK  status: ('A' for Active; 'I' for Inactive)
REMARK    1  A    between atoms: N_2  and  C_21
REMARK    2  A    between atoms: C_3  and  C_7
REMARK    3  A    between atoms: C_8  and  C_11
REMARK    4  A    between atoms: C_14  and  C_20
REMARK    5  A    between atoms: C_21  and  C_22
REMARK    6  A    between atoms: C_23  and  O_28
REMARK    7  A    between atoms: O_28  and  C_29
REMARK    8  A    between atoms: C_29  and  C_33
REMARK    9  A    between atoms: C_33  and  O_34
REMARK                            x       y       z     vdW  Elec       q    Type
REMARK                         _______ _______ _______ _____ _____    ______ ____
ROOT
ATOM      1  O   UNL     1      37.742 -18.766 -20.904  0.00  0.00    -0.274 OA
ATOM      2  N   UNL     1      35.791 -19.686 -20.110  0.00  0.00    -0.299 N 
ATOM      3  C   UNL     1      36.510 -18.756 -20.863  0.00  0.00    +0.239 C 
ATOM      4  H   UNL     1      34.809 -19.638 -20.109  0.00  0.00    +0.150 HD
ENDROOT
BRANCH   3   7
ATOM      5  S   UNL     1      35.392 -16.276 -20.937  0.00  0.00    -0.067 S 
ATOM      6  N   UNL     1      34.454 -16.814 -23.284  0.00  0.00    -0.403 NA
ATOM      7  C   UNL     1      35.707 -17.790 -21.626  0.00  0.00    +0.178 C 
ATOM      8  C   UNL     1      34.512 -15.884 -22.357  0.00  0.00    +0.157 C 
ATOM      9  C   UNL     1      35.154 -17.923 -22.850  0.00  0.00    +0.107 C 
ATOM     10  C   UNL     1      35.218 -19.097 -23.745  0.00  0.00    +0.063 C 
BRANCH   8  11
ATOM     11  C   UNL     1      33.897 -14.581 -22.452  0.00  0.00    +0.036 C 
ATOM     12  C   UNL     1      33.149 -14.085 -21.386  0.00  0.00    +0.003 C 
ATOM     13  C   UNL     1      34.053 -13.822 -23.612  0.00  0.00    +0.003 C 
ATOM     14  C   UNL     1      32.710 -12.066 -22.637  0.00  0.00    +0.071 C 
ATOM     15  C   UNL     1      32.554 -12.826 -21.479  0.00  0.00    +0.004 C 
ATOM     16  C   UNL     1      33.458 -12.563 -23.703  0.00  0.00    +0.004 C 
BRANCH  14  20
ATOM     17  F   UNL     1      30.725 -10.734 -22.517  0.00  0.00    -0.166 F 
ATOM     18  F   UNL     1      32.570  -9.814 -21.843  0.00  0.00    -0.166 F 
ATOM     19  F   UNL     1      32.238 -10.150 -23.966  0.00  0.00    -0.166 F 
ATOM     20  C   UNL     1      32.073 -10.720 -22.737  0.00  0.00    +0.419 C 
ENDBRANCH  14  20
ENDBRANCH   8  11
ENDBRANCH   3   7
BRANCH   2  21
ATOM     21  C   UNL     1      36.439 -20.714 -19.336  0.00  0.00    +0.116 C 
BRANCH  21  22
ATOM     22  C   UNL     1      35.463 -21.579 -18.611  0.00  0.00    -0.002 C 
ATOM     23  C   UNL     1      33.643 -23.195 -17.262  0.00  0.00    +0.139 C 
ATOM     24  C   UNL     1      35.809 -22.144 -17.384  0.00  0.00    +0.000 C 
ATOM     25  C   UNL     1      34.205 -21.824 -19.162  0.00  0.00    +0.000 C 
ATOM     26  C   UNL     1      34.897 -22.954 -16.707  0.00  0.00    +0.037 C 
ATOM     27  C   UNL     1      33.294 -22.634 -18.486  0.00  0.00    +0.037 C 
BRANCH  23  28
ATOM     28  O   UNL     1      32.750 -23.989 -16.598  0.00  0.00    -0.472 OA
BRANCH  28  29
ATOM     29  C   UNL     1      31.913 -23.344 -15.637  0.00  0.00    +0.221 C 
ATOM     30  C   UNL     1      32.810 -22.601 -14.651  0.00  0.00    +0.055 C 
ATOM     31  C   UNL     1      30.971 -22.405 -16.385  0.00  0.00    +0.055 C 
BRANCH  29  33
ATOM     32  O   UNL     1      30.079 -24.920 -15.352  0.00  0.00    -0.246 OA
ATOM     33  C   UNL     1      31.142 -24.462 -14.949  0.00  0.00    +0.350 C 
BRANCH  33  34
ATOM     34  O   UNL     1      31.748 -24.921 -13.824  0.00  0.00    -0.478 OA
ATOM     35  H   UNL     1      31.755 -24.396 -13.048  0.00  0.00    +0.295 HD
ENDBRANCH  33  34
ENDBRANCH  29  33
ENDBRANCH  28  29
ENDBRANCH  23  28
ENDBRANCH  21  22
ENDBRANCH   2  21
TORSDOF 9
ENDMDL
MODEL 4
REMARK VINA RESULT:     -10.0      6.649     11.861
REMARK  Name = 9956726
REMARK  9 active torsions:
REMARK  status: ('A' for Active; 'I' for Inactive)
REMARK    1  A    between atoms: N_2  and  C_21
REMARK    2  A    between atoms: C_3  and  C_7
REMARK    3  A    between atoms: C_8  and  C_11
REMARK    4  A    between atoms: C_14  and  C_20
REMARK    5  A    between atoms: C_21  and  C_22
REMARK    6  A    between atoms: C_23  and  O_28
REMARK    7  A    between atoms: O_28  and  C_29
REMARK    8  A    between atoms: C_29  and  C_33
REMARK    9  A    between atoms: C_33  and  O_34
REMARK                            x       y       z     vdW  Elec       q    Type
REMARK                         _______ _______ _______ _____ _____    ______ ____
ROOT
ATOM      1  O   UNL     1      35.019 -20.255 -22.387  0.00  0.00    -0.274 OA
ATOM      2  N   UNL     1      35.511 -18.431 -21.079  0.00  0.00    -0.299 N 
ATOM      3  C   UNL     1      35.140 -19.764 -21.263  0.00  0.00    +0.239 C 
ATOM      4  H   UNL     1      35.594 -18.084 -20.162  0.00  0.00    +0.150 HD
ENDROOT
BRANCH   3   7
ATOM      5  S   UNL     1      36.289 -20.970 -19.111  0.00  0.00    -0.067 S 
ATOM      6  N   UNL     1      33.942 -21.719 -18.330  0.00  0.00    -0.403 NA
ATOM      7  C   UNL     1      34.936 -20.548 -20.037  0.00  0.00    +0.178 C 
ATOM      8  C   UNL     1      35.220 -21.763 -18.028  0.00  0.00    +0.157 C 
ATOM      9  C   UNL     1      33.784 -21.009 -19.504  0.00  0.00    +0.107 C 
ATOM     10  C   UNL     1      32.415 -20.836 -20.032  0.00  0.00    +0.063 C 
BRANCH   8  11
ATOM     11  C   UNL     1      35.773 -22.421 -16.868  0.00  0.00    +0.036 C 
ATOM     12  C   UNL     1      37.096 -22.184 -16.498  0.00  0.00    +0.003 C 
ATOM     13  C   UNL     1      34.983 -23.293 -16.120  0.00  0.00    +0.003 C 
ATOM     14  C   UNL     1      36.841 -23.692 -14.628  0.00  0.00    +0.071 C 
ATOM     15  C   UNL     1      37.631 -22.821 -15.377  0.00  0.00    +0.004 C 
ATOM     16  C   UNL     1      35.518 -23.928 -14.999  0.00  0.00    +0.004 C 
BRANCH  14  20
ATOM     17  F   UNL     1      37.746 -23.516 -12.420  0.00  0.00    -0.166 F 
ATOM     18  F   UNL     1      36.563 -25.280 -12.861  0.00  0.00    -0.166 F 
ATOM     19  F   UNL     1      38.553 -25.067 -13.713  0.00  0.00    -0.166 F 
ATOM     20  C   UNL     1      37.412 -24.373 -13.430  0.00  0.00    +0.419 C 
ENDBRANCH  14  20
ENDBRANCH   8  11
ENDBRANCH   3   7
BRANCH   2  21
ATOM     21  C   UNL     1      35.776 -17.547 -22.185  0.00  0.00    +0.116 C 
BRANCH  21  22
ATOM     22  C   UNL     1      35.205 -16.185 -21.973  0.00  0.00    -0.002 C 
ATOM     23  C   UNL     1      34.143 -13.643 -21.574  0.00  0.00    +0.139 C 
ATOM     24  C   UNL     1      35.058 -15.314 -23.052  0.00  0.00    +0.000 C 
ATOM     25  C   UNL     1      34.820 -15.782 -20.693  0.00  0.00    +0.000 C 
ATOM     26  C   UNL     1      34.525 -14.040 -22.853  0.00  0.00    +0.037 C 
ATOM     27  C   UNL     1      34.289 -14.508 -20.495  0.00  0.00    +0.037 C 
BRANCH  23  28
ATOM     28  O   UNL     1      33.621 -12.395 -21.381  0.00  0.00    -0.472 OA
BRANCH  28  29
ATOM     29  C   UNL     1      32.280 -12.186 -21.827  0.00  0.00    +0.221 C 
ATOM     30  C   UNL     1      31.902 -13.346 -22.744  0.00  0.00    +0.055 C 
ATOM     31  C   UNL     1      31.380 -12.101 -20.598  0.00  0.00    +0.055 C 
BRANCH  29  33
ATOM     32  O   UNL     1      33.203 -10.515 -23.340  0.00  0.00    -0.246 OA
ATOM     33  C   UNL     1      32.302 -10.866 -22.587  0.00  0.00    +0.350 C 
BRANCH  33  34
ATOM     34  O   UNL     1      31.212 -10.092 -22.353  0.00  0.00    -0.478 OA
ATOM     35  H   UNL     1      30.436 -10.473 -21.992  0.00  0.00    +0.295 HD
ENDBRANCH  33  34
ENDBRANCH  29  33
ENDBRANCH  28  29
ENDBRANCH  23  28
ENDBRANCH  21  22
ENDBRANCH   2  21
TORSDOF 9
ENDMDL
MODEL 5
REMARK VINA RESULT:     -10.0      4.853      8.063
REMARK  Name = 9956726
REMARK  9 active torsions:
REMARK  status: ('A' for Active; 'I' for Inactive)
REMARK    1  A    between atoms: N_2  and  C_21
REMARK    2  A    between atoms: C_3  and  C_7
REMARK    3  A    between atoms: C_8  and  C_11
REMARK    4  A    between atoms: C_14  and  C_20
REMARK    5  A    between atoms: C_21  and  C_22
REMARK    6  A    between atoms: C_23  and  O_28
REMARK    7  A    between atoms: O_28  and  C_29
REMARK    8  A    between atoms: C_29  and  C_33
REMARK    9  A    between atoms: C_33  and  O_34
REMARK                            x       y       z     vdW  Elec       q    Type
REMARK                         _______ _______ _______ _____ _____    ______ ____
ROOT
ATOM      1  O   UNL     1      34.830 -17.271 -24.598  0.00  0.00    -0.274 OA
ATOM      2  N   UNL     1      35.562 -17.138 -22.424  0.00  0.00    -0.299 N 
ATOM      3  C   UNL     1      34.851 -16.662 -23.526  0.00  0.00    +0.239 C 
ATOM      4  H   UNL     1      35.548 -16.617 -21.590  0.00  0.00    +0.150 HD
ENDROOT
BRANCH   3   7
ATOM      5  S   UNL     1      34.037 -14.760 -21.758  0.00  0.00    -0.067 S 
ATOM      6  N   UNL     1      32.842 -13.531 -23.693  0.00  0.00    -0.403 NA
ATOM      7  C   UNL     1      34.107 -15.411 -23.319  0.00  0.00    +0.178 C 
ATOM      8  C   UNL     1      33.091 -13.482 -22.404  0.00  0.00    +0.157 C 
ATOM      9  C   UNL     1      33.439 -14.660 -24.221  0.00  0.00    +0.107 C 
ATOM     10  C   UNL     1      33.285 -14.915 -25.668  0.00  0.00    +0.063 C 
BRANCH   8  11
ATOM     11  C   UNL     1      32.630 -12.444 -21.512  0.00  0.00    +0.036 C 
ATOM     12  C   UNL     1      32.486 -12.708 -20.151  0.00  0.00    +0.003 C 
ATOM     13  C   UNL     1      32.330 -11.178 -22.014  0.00  0.00    +0.003 C 
ATOM     14  C   UNL     1      31.740 -10.439 -19.791  0.00  0.00    +0.071 C 
ATOM     15  C   UNL     1      32.040 -11.705 -19.290  0.00  0.00    +0.004 C 
ATOM     16  C   UNL     1      31.885 -10.175 -21.152  0.00  0.00    +0.004 C 
BRANCH  14  20
ATOM     17  F   UNL     1      31.984  -9.277 -17.714  0.00  0.00    -0.166 F 
ATOM     18  F   UNL     1      31.312  -8.115 -19.418  0.00  0.00    -0.166 F 
ATOM     19  F   UNL     1      29.967  -9.545 -18.481  0.00  0.00    -0.166 F 
ATOM     20  C   UNL     1      31.263  -9.366 -18.871  0.00  0.00    +0.419 C 
ENDBRANCH  14  20
ENDBRANCH   8  11
ENDBRANCH   3   7
BRANCH   2  21
ATOM     21  C   UNL     1      36.313 -18.367 -22.465  0.00  0.00    +0.116 C 
BRANCH  21  22
ATOM     22  C   UNL     1      35.980 -19.274 -21.329  0.00  0.00    -0.002 C 
ATOM     23  C   UNL     1      35.361 -20.965 -19.207  0.00  0.00    +0.139 C 
ATOM     24  C   UNL     1      34.664 -19.692 -21.131  0.00  0.00    +0.000 C 
ATOM     25  C   UNL     1      36.986 -19.704 -20.462  0.00  0.00    +0.000 C 
ATOM     26  C   UNL     1      34.353 -20.539 -20.068  0.00  0.00    +0.037 C 
ATOM     27  C   UNL     1      36.675 -20.550 -19.399  0.00  0.00    +0.037 C 
BRANCH  23  28
ATOM     28  O   UNL     1      35.055 -21.795 -18.165  0.00  0.00    -0.472 OA
BRANCH  28  29
ATOM     29  C   UNL     1      33.860 -22.568 -18.293  0.00  0.00    +0.221 C 
ATOM     30  C   UNL     1      32.715 -21.616 -18.625  0.00  0.00    +0.055 C 
ATOM     31  C   UNL     1      34.085 -23.608 -19.386  0.00  0.00    +0.055 C 
BRANCH  29  33
ATOM     32  O   UNL     1      34.529 -23.817 -16.312  0.00  0.00    -0.246 OA
ATOM     33  C   UNL     1      33.653 -23.230 -16.937  0.00  0.00    +0.350 C 
BRANCH  33  34
ATOM     34  O   UNL     1      32.385 -23.109 -16.467  0.00  0.00    -0.478 OA
ATOM     35  H   UNL     1      32.112 -23.609 -15.723  0.00  0.00    +0.295 HD
ENDBRANCH  33  34
ENDBRANCH  29  33
ENDBRANCH  28  29
ENDBRANCH  23  28
ENDBRANCH  21  22
ENDBRANCH   2  21
TORSDOF 9
ENDMDL
MODEL 6
REMARK VINA RESULT:      -9.9      5.042      8.131
REMARK  Name = 9956726
REMARK  9 active torsions:
REMARK  status: ('A' for Active; 'I' for Inactive)
REMARK    1  A    between atoms: N_2  and  C_21
REMARK    2  A    between atoms: C_3  and  C_7
REMARK    3  A    between atoms: C_8  and  C_11
REMARK    4  A    between atoms: C_14  and  C_20
REMARK    5  A    between atoms: C_21  and  C_22
REMARK    6  A    between atoms: C_23  and  O_28
REMARK    7  A    between atoms: O_28  and  C_29
REMARK    8  A    between atoms: C_29  and  C_33
REMARK    9  A    between atoms: C_33  and  O_34
REMARK                            x       y       z     vdW  Elec       q    Type
REMARK                         _______ _______ _______ _____ _____    ______ ____
ROOT
ATOM      1  O   UNL     1      34.820 -16.357 -24.280  0.00  0.00    -0.274 OA
ATOM      2  N   UNL     1      35.418 -16.845 -22.115  0.00  0.00    -0.299 N 
ATOM      3  C   UNL     1      34.853 -16.025 -23.093  0.00  0.00    +0.239 C 
ATOM      4  H   UNL     1      35.421 -16.538 -21.181  0.00  0.00    +0.150 HD
ENDROOT
BRANCH   3   7
ATOM      5  S   UNL     1      33.782 -13.613 -23.756  0.00  0.00    -0.067 S 
ATOM      6  N   UNL     1      33.486 -13.099 -21.240  0.00  0.00    -0.403 NA
ATOM      7  C   UNL     1      34.272 -14.763 -22.614  0.00  0.00    +0.178 C 
ATOM      8  C   UNL     1      33.298 -12.614 -22.447  0.00  0.00    +0.157 C 
ATOM      9  C   UNL     1      34.054 -14.354 -21.346  0.00  0.00    +0.107 C 
ATOM     10  C   UNL     1      34.354 -15.087 -20.099  0.00  0.00    +0.063 C 
BRANCH   8  11
ATOM     11  C   UNL     1      32.723 -11.322 -22.739  0.00  0.00    +0.036 C 
ATOM     12  C   UNL     1      31.524 -10.942 -22.138  0.00  0.00    +0.003 C 
ATOM     13  C   UNL     1      33.369 -10.457 -23.621  0.00  0.00    +0.003 C 
ATOM     14  C   UNL     1      31.614  -8.827 -23.302  0.00  0.00    +0.071 C 
ATOM     15  C   UNL     1      30.969  -9.693 -22.420  0.00  0.00    +0.004 C 
ATOM     16  C   UNL     1      32.813  -9.209 -23.903  0.00  0.00    +0.004 C 
BRANCH  14  20
ATOM     17  F   UNL     1      31.937  -6.563 -24.005  0.00  0.00    -0.166 F 
ATOM     18  F   UNL     1      30.087  -7.524 -24.604  0.00  0.00    -0.166 F 
ATOM     19  F   UNL     1      30.386  -6.942 -22.529  0.00  0.00    -0.166 F 
ATOM     20  C   UNL     1      31.020  -7.493 -23.605  0.00  0.00    +0.419 C 
ENDBRANCH  14  20
ENDBRANCH   8  11
ENDBRANCH   3   7
BRANCH   2  21
ATOM     21  C   UNL     1      35.998 -18.126 -22.428  0.00  0.00    +0.116 C 
BRANCH  21  22
ATOM     22  C   UNL     1      35.799 -19.122 -21.335  0.00  0.00    -0.002 C 
ATOM     23  C   UNL     1      35.427 -20.981 -19.297  0.00  0.00    +0.139 C 
ATOM     24  C   UNL     1      36.873 -19.497 -20.528  0.00  0.00    +0.000 C 
ATOM     25  C   UNL     1      34.538 -19.679 -21.121  0.00  0.00    +0.000 C 
ATOM     26  C   UNL     1      36.687 -20.428 -19.507  0.00  0.00    +0.037 C 
ATOM     27  C   UNL     1      34.353 -20.611 -20.100  0.00  0.00    +0.037 C 
BRANCH  23  28
ATOM     28  O   UNL     1      35.245 -21.894 -18.296  0.00  0.00    -0.472 OA
BRANCH  28  29
ATOM     29  C   UNL     1      34.024 -22.634 -18.319  0.00  0.00    +0.221 C 
ATOM     30  C   UNL     1      32.890 -21.663 -18.635  0.00  0.00    +0.055 C 
ATOM     31  C   UNL     1      34.156 -23.732 -19.369  0.00  0.00    +0.055 C 
BRANCH  29  33
ATOM     32  O   UNL     1      34.802 -23.673 -16.258  0.00  0.00    -0.246 OA
ATOM     33  C   UNL     1      33.875 -23.222 -16.922  0.00  0.00    +0.350 C 
BRANCH  33  34
ATOM     34  O   UNL     1      32.598 -23.203 -16.463  0.00  0.00    -0.478 OA
ATOM     35  H   UNL     1      31.901 -23.516 -17.004  0.00  0.00    +0.295 HD
ENDBRANCH  33  34
ENDBRANCH  29  33
ENDBRANCH  28  29
ENDBRANCH  23  28
ENDBRANCH  21  22
ENDBRANCH   2  21
TORSDOF 9
ENDMDL
MODEL 7
REMARK VINA RESULT:      -9.8      8.285     12.265
REMARK  Name = 9956726
REMARK  9 active torsions:
REMARK  status: ('A' for Active; 'I' for Inactive)
REMARK    1  A    between atoms: N_2  and  C_21
REMARK    2  A    between atoms: C_3  and  C_7
REMARK    3  A    between atoms: C_8  and  C_11
REMARK    4  A    between atoms: C_14  and  C_20
REMARK    5  A    between atoms: C_21  and  C_22
REMARK    6  A    between atoms: C_23  and  O_28
REMARK    7  A    between atoms: O_28  and  C_29
REMARK    8  A    between atoms: C_29  and  C_33
REMARK    9  A    between atoms: C_33  and  O_34
REMARK                            x       y       z     vdW  Elec       q    Type
REMARK                         _______ _______ _______ _____ _____    ______ ____
ROOT
ATOM      1  O   UNL     1      30.402 -10.814 -20.611  0.00  0.00    -0.274 OA
ATOM      2  N   UNL     1      32.405 -11.754 -21.231  0.00  0.00    -0.299 N 
ATOM      3  C   UNL     1      31.538 -10.673 -21.070  0.00  0.00    +0.239 C 
ATOM      4  H   UNL     1      33.302 -11.592 -21.601  0.00  0.00    +0.150 HD
ENDROOT
BRANCH   3   7
ATOM      5  S   UNL     1      32.594  -9.123 -23.042  0.00  0.00    -0.067 S 
ATOM      6  N   UNL     1      32.764  -7.169 -21.358  0.00  0.00    -0.403 NA
ATOM      7  C   UNL     1      32.074  -9.358 -21.448  0.00  0.00    +0.178 C 
ATOM      8  C   UNL     1      32.998  -7.514 -22.605  0.00  0.00    +0.157 C 
ATOM      9  C   UNL     1      32.224  -8.251 -20.689  0.00  0.00    +0.107 C 
ATOM     10  C   UNL     1      31.882  -8.084 -19.262  0.00  0.00    +0.063 C 
BRANCH   8  11
ATOM     11  C   UNL     1      33.562  -6.645 -23.611  0.00  0.00    +0.036 C 
ATOM     12  C   UNL     1      34.916  -6.735 -23.929  0.00  0.00    +0.003 C 
ATOM     13  C   UNL     1      32.751  -5.716 -24.261  0.00  0.00    +0.003 C 
ATOM     14  C   UNL     1      34.651  -4.967 -25.553  0.00  0.00    +0.071 C 
ATOM     15  C   UNL     1      35.461  -5.895 -24.901  0.00  0.00    +0.004 C 
ATOM     16  C   UNL     1      33.296  -4.876 -25.233  0.00  0.00    +0.004 C 
BRANCH  14  20
ATOM     17  F   UNL     1      34.910  -2.752 -26.420  0.00  0.00    -0.166 F 
ATOM     18  F   UNL     1      36.598  -4.095 -26.634  0.00  0.00    -0.166 F 
ATOM     19  F   UNL     1      34.820  -4.385 -27.853  0.00  0.00    -0.166 F 
ATOM     20  C   UNL     1      35.233  -4.068 -26.591  0.00  0.00    +0.419 C 
ENDBRANCH  14  20
ENDBRANCH   8  11
ENDBRANCH   3   7
BRANCH   2  21
ATOM     21  C   UNL     1      32.032 -13.099 -20.875  0.00  0.00    +0.116 C 
BRANCH  21  22
ATOM     22  C   UNL     1      33.100 -14.089 -21.198  0.00  0.00    -0.002 C 
ATOM     23  C   UNL     1      35.096 -15.934 -21.801  0.00  0.00    +0.139 C 
ATOM     24  C   UNL     1      33.779 -14.744 -20.169  0.00  0.00    +0.000 C 
ATOM     25  C   UNL     1      33.423 -14.359 -22.528  0.00  0.00    +0.000 C 
ATOM     26  C   UNL     1      34.778 -15.668 -20.471  0.00  0.00    +0.037 C 
ATOM     27  C   UNL     1      34.423 -15.283 -22.829  0.00  0.00    +0.037 C 
BRANCH  23  28
ATOM     28  O   UNL     1      36.076 -16.840 -22.095  0.00  0.00    -0.472 OA
BRANCH  28  29
ATOM     29  C   UNL     1      35.793 -18.208 -21.793  0.00  0.00    +0.221 C 
ATOM     30  C   UNL     1      34.541 -18.250 -20.922  0.00  0.00    +0.055 C 
ATOM     31  C   UNL     1      35.608 -18.954 -23.111  0.00  0.00    +0.055 C 
BRANCH  29  33
ATOM     32  O   UNL     1      36.981 -19.161 -19.893  0.00  0.00    -0.246 OA
ATOM     33  C   UNL     1      37.011 -18.721 -21.037  0.00  0.00    +0.350 C 
BRANCH  33  34
ATOM     34  O   UNL     1      38.161 -18.648 -21.755  0.00  0.00    -0.478 OA
ATOM     35  H   UNL     1      38.960 -18.977 -21.393  0.00  0.00    +0.295 HD
ENDBRANCH  33  34
ENDBRANCH  29  33
ENDBRANCH  28  29
ENDBRANCH  23  28
ENDBRANCH  21  22
ENDBRANCH   2  21
TORSDOF 9
ENDMDL
MODEL 8
REMARK VINA RESULT:      -9.7     10.401     16.132
REMARK  Name = 9956726
REMARK  9 active torsions:
REMARK  status: ('A' for Active; 'I' for Inactive)
REMARK    1  A    between atoms: N_2  and  C_21
REMARK    2  A    between atoms: C_3  and  C_7
REMARK    3  A    between atoms: C_8  and  C_11
REMARK    4  A    between atoms: C_14  and  C_20
REMARK    5  A    between atoms: C_21  and  C_22
REMARK    6  A    between atoms: C_23  and  O_28
REMARK    7  A    between atoms: O_28  and  C_29
REMARK    8  A    between atoms: C_29  and  C_33
REMARK    9  A    between atoms: C_33  and  O_34
REMARK                            x       y       z     vdW  Elec       q    Type
REMARK                         _______ _______ _______ _____ _____    ______ ____
ROOT
ATOM      1  O   UNL     1      30.454 -10.573 -20.920  0.00  0.00    -0.274 OA
ATOM      2  N   UNL     1      32.348  -9.279 -20.771  0.00  0.00    -0.299 N 
ATOM      3  C   UNL     1      31.666 -10.447 -21.114  0.00  0.00    +0.239 C 
ATOM      4  H   UNL     1      33.314  -9.225 -20.946  0.00  0.00    +0.150 HD
ENDROOT
BRANCH   3   7
ATOM      5  S   UNL     1      32.755 -12.931 -20.891  0.00  0.00    -0.067 S 
ATOM      6  N   UNL     1      33.747 -12.663 -23.263  0.00  0.00    -0.403 NA
ATOM      7  C   UNL     1      32.472 -11.499 -21.749  0.00  0.00    +0.178 C 
ATOM      8  C   UNL     1      33.659 -13.485 -22.240  0.00  0.00    +0.157 C 
ATOM      9  C   UNL     1      33.052 -11.507 -22.969  0.00  0.00    +0.107 C 
ATOM     10  C   UNL     1      33.019 -10.438 -23.988  0.00  0.00    +0.063 C 
BRANCH   8  11
ATOM     11  C   UNL     1      34.260 -14.796 -22.179  0.00  0.00    +0.036 C 
ATOM     12  C   UNL     1      34.614 -15.343 -20.946  0.00  0.00    +0.003 C 
ATOM     13  C   UNL     1      34.487 -15.513 -23.353  0.00  0.00    +0.003 C 
ATOM     14  C   UNL     1      35.422 -17.328 -22.061  0.00  0.00    +0.071 C 
ATOM     15  C   UNL     1      35.195 -16.610 -20.887  0.00  0.00    +0.004 C 
ATOM     16  C   UNL     1      35.068 -16.780 -23.293  0.00  0.00    +0.004 C 
BRANCH  14  20
ATOM     17  F   UNL     1      37.410 -18.659 -22.031  0.00  0.00    -0.166 F 
ATOM     18  F   UNL     1      35.728 -19.376 -20.864  0.00  0.00    -0.166 F 
ATOM     19  F   UNL     1      35.667 -19.483 -23.036  0.00  0.00    -0.166 F 
ATOM     20  C   UNL     1      36.045 -18.682 -21.998  0.00  0.00    +0.419 C 
ENDBRANCH  14  20
ENDBRANCH   8  11
ENDBRANCH   3   7
BRANCH   2  21
ATOM     21  C   UNL     1      31.685  -8.150 -20.170  0.00  0.00    +0.116 C 
BRANCH  21  22
ATOM     22  C   UNL     1      31.791  -6.919 -21.006  0.00  0.00    -0.002 C 
ATOM     23  C   UNL     1      31.989  -4.620 -22.564  0.00  0.00    +0.139 C 
ATOM     24  C   UNL     1      32.928  -6.699 -21.785  0.00  0.00    +0.000 C 
ATOM     25  C   UNL     1      30.753  -5.986 -21.008  0.00  0.00    +0.000 C 
ATOM     26  C   UNL     1      33.027  -5.548 -22.566  0.00  0.00    +0.037 C 
ATOM     27  C   UNL     1      30.854  -4.834 -21.788  0.00  0.00    +0.037 C 
BRANCH  23  28
ATOM     28  O   UNL     1      32.087  -3.492 -23.330  0.00  0.00    -0.472 OA
BRANCH  28  29
ATOM     29  C   UNL     1      31.712  -3.617 -24.702  0.00  0.00    +0.221 C 
ATOM     30  C   UNL     1      32.905  -3.201 -25.558  0.00  0.00    +0.055 C 
ATOM     31  C   UNL     1      31.297  -5.064 -24.950  0.00  0.00    +0.055 C 
BRANCH  29  33
ATOM     32  O   UNL     1      29.734  -2.372 -24.015  0.00  0.00    -0.246 OA
ATOM     33  C   UNL     1      30.537  -2.667 -24.894  0.00  0.00    +0.350 C 
BRANCH  33  34
ATOM     34  O   UNL     1      30.452  -2.161 -26.150  0.00  0.00    -0.478 OA
ATOM     35  H   UNL     1      30.657  -1.260 -26.307  0.00  0.00    +0.295 HD
ENDBRANCH  33  34
ENDBRANCH  29  33
ENDBRANCH  28  29
ENDBRANCH  23  28
ENDBRANCH  21  22
ENDBRANCH   2  21
TORSDOF 9
ENDMDL
MODEL 9
REMARK VINA RESULT:      -9.7      6.371     11.670
REMARK  Name = 9956726
REMARK  9 active torsions:
REMARK  status: ('A' for Active; 'I' for Inactive)
REMARK    1  A    between atoms: N_2  and  C_21
REMARK    2  A    between atoms: C_3  and  C_7
REMARK    3  A    between atoms: C_8  and  C_11
REMARK    4  A    between atoms: C_14  and  C_20
REMARK    5  A    between atoms: C_21  and  C_22
REMARK    6  A    between atoms: C_23  and  O_28
REMARK    7  A    between atoms: O_28  and  C_29
REMARK    8  A    between atoms: C_29  and  C_33
REMARK    9  A    between atoms: C_33  and  O_34
REMARK                            x       y       z     vdW  Elec       q    Type
REMARK                         _______ _______ _______ _____ _____    ______ ____
ROOT
ATOM      1  O   UNL     1      37.329 -19.405 -20.498  0.00  0.00    -0.274 OA
ATOM      2  N   UNL     1      35.286 -19.552 -21.541  0.00  0.00    -0.299 N 
ATOM      3  C   UNL     1      36.179 -19.850 -20.511  0.00  0.00    +0.239 C 
ATOM      4  H   UNL     1      34.379 -19.931 -21.507  0.00  0.00    +0.150 HD
ENDROOT
BRANCH   3   7
ATOM      5  S   UNL     1      36.718 -21.221 -18.222  0.00  0.00    -0.067 S 
ATOM      6  N   UNL     1      34.234 -21.930 -18.112  0.00  0.00    -0.403 NA
ATOM      7  C   UNL     1      35.654 -20.697 -19.431  0.00  0.00    +0.178 C 
ATOM      8  C   UNL     1      35.392 -22.037 -17.499  0.00  0.00    +0.157 C 
ATOM      9  C   UNL     1      34.395 -21.146 -19.238  0.00  0.00    +0.107 C 
ATOM     10  C   UNL     1      33.210 -20.893 -20.082  0.00  0.00    +0.063 C 
BRANCH   8  11
ATOM     11  C   UNL     1      35.618 -22.781 -16.282  0.00  0.00    +0.036 C 
ATOM     12  C   UNL     1      34.580 -23.516 -15.712  0.00  0.00    +0.003 C 
ATOM     13  C   UNL     1      36.876 -22.762 -15.680  0.00  0.00    +0.003 C 
ATOM     14  C   UNL     1      36.056 -24.218 -13.933  0.00  0.00    +0.071 C 
ATOM     15  C   UNL     1      34.799 -24.235 -14.536  0.00  0.00    +0.004 C 
ATOM     16  C   UNL     1      37.094 -23.482 -14.504  0.00  0.00    +0.004 C 
BRANCH  14  20
ATOM     17  F   UNL     1      37.277 -24.461 -11.890  0.00  0.00    -0.166 F 
ATOM     18  F   UNL     1      35.192 -25.056 -11.867  0.00  0.00    -0.166 F 
ATOM     19  F   UNL     1      36.658 -26.279 -12.910  0.00  0.00    -0.166 F 
ATOM     20  C   UNL     1      36.291 -24.985 -12.676  0.00  0.00    +0.419 C 
ENDBRANCH  14  20
ENDBRANCH   8  11
ENDBRANCH   3   7
BRANCH   2  21
ATOM     21  C   UNL     1      35.647 -18.709 -22.651  0.00  0.00    +0.116 C 
BRANCH  21  22
ATOM     22  C   UNL     1      35.271 -17.283 -22.427  0.00  0.00    -0.002 C 
ATOM     23  C   UNL     1      34.567 -14.622 -22.010  0.00  0.00    +0.139 C 
ATOM     24  C   UNL     1      34.992 -16.829 -21.138  0.00  0.00    +0.000 C 
ATOM     25  C   UNL     1      35.197 -16.403 -23.508  0.00  0.00    +0.000 C 
ATOM     26  C   UNL     1      34.639 -15.496 -20.929  0.00  0.00    +0.037 C 
ATOM     27  C   UNL     1      34.844 -15.070 -23.298  0.00  0.00    +0.037 C 
BRANCH  23  28
ATOM     28  O   UNL     1      34.221 -13.316 -21.804  0.00  0.00    -0.472 OA
BRANCH  28  29
ATOM     29  C   UNL     1      33.058 -12.847 -22.487  0.00  0.00    +0.221 C 
ATOM     30  C   UNL     1      33.395 -11.501 -23.124  0.00  0.00    +0.055 C 
ATOM     31  C   UNL     1      32.663 -13.895 -23.523  0.00  0.00    +0.055 C 
BRANCH  29  33
ATOM     32  O   UNL     1      32.012 -13.261 -20.327  0.00  0.00    -0.246 OA
ATOM     33  C   UNL     1      31.985 -12.699 -21.416  0.00  0.00    +0.350 C 
BRANCH  33  34
ATOM     34  O   UNL     1      30.973 -11.870 -21.779  0.00  0.00    -0.478 OA
ATOM     35  H   UNL     1      30.754 -11.766 -22.684  0.00  0.00    +0.295 HD
ENDBRANCH  33  34
ENDBRANCH  29  33
ENDBRANCH  28  29
ENDBRANCH  23  28
ENDBRANCH  21  22
ENDBRANCH   2  21
TORSDOF 9
ENDMDL
