MODEL 1
REMARK VINA RESULT:     -11.1      0.000      0.000
REMARK  Name = 4369491
REMARK  2 active torsions:
REMARK  status: ('A' for Active; 'I' for Inactive)
REMARK    1  A    between atoms: C_10  and  C_21
REMARK    2  A    between atoms: C_17  and  O_27
REMARK                            x       y       z     vdW  Elec       q    Type
REMARK                         _______ _______ _______ _____ _____    ______ ____
ROOT
ATOM      1  O   UNL     1      36.279 -22.762 -17.154  0.00  0.00    -0.270 OA
ATOM      2  O   UNL     1      31.721 -22.277 -17.543  0.00  0.00    -0.270 OA
ATOM      3  N   UNL     1      34.851 -25.090 -12.649  0.00  0.00    -0.353 N 
ATOM      4  N   UNL     1      34.048 -22.345 -17.681  0.00  0.00    -0.248 N 
ATOM      5  C   UNL     1      35.039 -24.046 -14.617  0.00  0.00    +0.022 A 
ATOM      6  C   UNL     1      34.474 -23.415 -15.732  0.00  0.00    +0.060 C 
ATOM      7  C   UNL     1      34.124 -24.506 -13.656  0.00  0.00    +0.057 A 
ATOM      8  C   UNL     1      36.352 -24.379 -14.144  0.00  0.00    +0.020 A 
ATOM      9  C   UNL     1      33.094 -23.266 -15.856  0.00  0.00    +0.058 C 
ATOM     10  C   UNL     1      32.205 -23.720 -14.907  0.00  0.00    +0.006 C 
ATOM     11  C   UNL     1      36.197 -25.028 -12.915  0.00  0.00    +0.057 A 
ATOM     12  C   UNL     1      32.724 -24.356 -13.777  0.00  0.00    +0.017 C 
ATOM     13  C   UNL     1      35.089 -22.818 -16.917  0.00  0.00    +0.252 C 
ATOM     14  C   UNL     1      32.819 -22.574 -17.114  0.00  0.00    +0.252 C 
ATOM     15  C   UNL     1      37.667 -24.197 -14.628  0.00  0.00    +0.038 C 
ATOM     16  C   UNL     1      37.277 -25.498 -12.157  0.00  0.00    +0.020 C 
ATOM     17  C   UNL     1      38.757 -24.661 -13.881  0.00  0.00    +0.134 C 
ATOM     18  C   UNL     1      38.563 -25.303 -12.663  0.00  0.00    +0.038 C 
ATOM     19  H   UNL     1      34.461 -25.499 -11.843  0.00  0.00    +0.166 HD
ATOM     20  H   UNL     1      34.171 -21.890 -18.545  0.00  0.00    +0.158 HD
ENDROOT
BRANCH  10  21
ATOM     21  C   UNL     1      30.774 -23.563 -15.037  0.00  0.00    +0.000 C 
ATOM     22  C   UNL     1      30.152 -22.405 -14.568  0.00  0.00    +0.000 C 
ATOM     23  C   UNL     1      30.012 -24.570 -15.632  0.00  0.00    +0.000 C 
ATOM     24  C   UNL     1      28.772 -22.254 -14.692  0.00  0.00    +0.000 C 
ATOM     25  C   UNL     1      28.631 -24.418 -15.757  0.00  0.00    +0.000 C 
ATOM     26  C   UNL     1      28.011 -23.260 -15.286  0.00  0.00    +0.000 C 
ENDBRANCH  10  21
BRANCH  17  27
ATOM     27  O   UNL     1      40.021 -24.482 -14.357  0.00  0.00    -0.506 OA
ATOM     28  H   UNL     1      40.620 -25.202 -14.379  0.00  0.00    +0.292 HD
ENDBRANCH  17  27
TORSDOF 2
ENDMDL
MODEL 2
REMARK VINA RESULT:     -10.9      2.652      6.810
REMARK  Name = 4369491
REMARK  2 active torsions:
REMARK  status: ('A' for Active; 'I' for Inactive)
REMARK    1  A    between atoms: C_10  and  C_21
REMARK    2  A    between atoms: C_17  and  O_27
REMARK                            x       y       z     vdW  Elec       q    Type
REMARK                         _______ _______ _______ _____ _____    ______ ____
ROOT
ATOM      1  O   UNL     1      31.614 -22.778 -16.825  0.00  0.00    -0.270 OA
ATOM      2  O   UNL     1      33.659 -24.755 -13.209  0.00  0.00    -0.270 OA
ATOM      3  N   UNL     1      36.617 -21.653 -18.035  0.00  0.00    -0.353 N 
ATOM      4  N   UNL     1      32.298 -23.873 -14.885  0.00  0.00    -0.248 N 
ATOM      5  C   UNL     1      34.662 -22.319 -17.179  0.00  0.00    +0.022 A 
ATOM      6  C   UNL     1      33.909 -22.967 -16.191  0.00  0.00    +0.060 C 
ATOM      7  C   UNL     1      36.052 -22.324 -16.979  0.00  0.00    +0.057 A 
ATOM      8  C   UNL     1      34.414 -21.613 -18.402  0.00  0.00    +0.020 A 
ATOM      9  C   UNL     1      34.524 -23.568 -15.094  0.00  0.00    +0.058 C 
ATOM     10  C   UNL     1      35.888 -23.568 -14.907  0.00  0.00    +0.006 C 
ATOM     11  C   UNL     1      35.653 -21.212 -18.908  0.00  0.00    +0.057 A 
ATOM     12  C   UNL     1      36.678 -22.933 -15.868  0.00  0.00    +0.017 C 
ATOM     13  C   UNL     1      32.468 -23.166 -16.053  0.00  0.00    +0.252 C 
ATOM     14  C   UNL     1      33.482 -24.153 -14.250  0.00  0.00    +0.252 C 
ATOM     15  C   UNL     1      33.260 -21.266 -19.142  0.00  0.00    +0.038 C 
ATOM     16  C   UNL     1      35.796 -20.491 -20.101  0.00  0.00    +0.020 C 
ATOM     17  C   UNL     1      33.387 -20.545 -20.336  0.00  0.00    +0.134 C 
ATOM     18  C   UNL     1      34.638 -20.164 -20.807  0.00  0.00    +0.038 C 
ATOM     19  H   UNL     1      37.583 -21.506 -18.151  0.00  0.00    +0.166 HD
ATOM     20  H   UNL     1      31.419 -24.150 -14.541  0.00  0.00    +0.158 HD
ENDROOT
BRANCH  10  21
ATOM     21  C   UNL     1      36.522 -24.191 -13.768  0.00  0.00    +0.000 C 
ATOM     22  C   UNL     1      36.758 -23.453 -12.608  0.00  0.00    +0.000 C 
ATOM     23  C   UNL     1      36.901 -25.534 -13.827  0.00  0.00    +0.000 C 
ATOM     24  C   UNL     1      37.370 -24.054 -11.509  0.00  0.00    +0.000 C 
ATOM     25  C   UNL     1      37.512 -26.135 -12.727  0.00  0.00    +0.000 C 
ATOM     26  C   UNL     1      37.748 -25.395 -11.568  0.00  0.00    +0.000 C 
ENDBRANCH  10  21
BRANCH  17  27
ATOM     27  O   UNL     1      32.270 -20.215 -21.043  0.00  0.00    -0.506 OA
ATOM     28  H   UNL     1      31.436 -20.192 -20.616  0.00  0.00    +0.292 HD
ENDBRANCH  17  27
TORSDOF 2
ENDMDL
MODEL 3
REMARK VINA RESULT:     -10.4      1.536      6.767
REMARK  Name = 4369491
REMARK  2 active torsions:
REMARK  status: ('A' for Active; 'I' for Inactive)
REMARK    1  A    between atoms: C_10  and  C_21
REMARK    2  A    between atoms: C_17  and  O_27
REMARK                            x       y       z     vdW  Elec       q    Type
REMARK                         _______ _______ _______ _____ _____    ______ ____
ROOT
ATOM      1  O   UNL     1      32.790 -22.414 -17.894  0.00  0.00    -0.270 OA
ATOM      2  O   UNL     1      36.828 -23.105 -15.800  0.00  0.00    -0.270 OA
ATOM      3  N   UNL     1      30.998 -24.446 -13.375  0.00  0.00    -0.353 N 
ATOM      4  N   UNL     1      34.988 -22.619 -17.149  0.00  0.00    -0.248 N 
ATOM      5  C   UNL     1      32.143 -23.639 -15.118  0.00  0.00    +0.022 A 
ATOM      6  C   UNL     1      33.348 -23.306 -15.749  0.00  0.00    +0.060 C 
ATOM      7  C   UNL     1      32.267 -24.185 -13.830  0.00  0.00    +0.057 A 
ATOM      8  C   UNL     1      30.741 -23.583 -15.420  0.00  0.00    +0.020 A 
ATOM      9  C   UNL     1      34.574 -23.512 -15.119  0.00  0.00    +0.058 C 
ATOM     10  C   UNL     1      34.685 -24.048 -13.856  0.00  0.00    +0.006 C 
ATOM     11  C   UNL     1      30.058 -24.093 -14.313  0.00  0.00    +0.057 A 
ATOM     12  C   UNL     1      33.507 -24.396 -13.188  0.00  0.00    +0.017 C 
ATOM     13  C   UNL     1      33.620 -22.727 -17.064  0.00  0.00    +0.252 C 
ATOM     14  C   UNL     1      35.634 -23.070 -16.024  0.00  0.00    +0.252 C 
ATOM     15  C   UNL     1      29.972 -23.151 -16.524  0.00  0.00    +0.038 C 
ATOM     16  C   UNL     1      28.662 -24.192 -14.254  0.00  0.00    +0.020 C 
ATOM     17  C   UNL     1      28.575 -23.244 -16.480  0.00  0.00    +0.134 C 
ATOM     18  C   UNL     1      27.931 -23.757 -15.360  0.00  0.00    +0.038 C 
ATOM     19  H   UNL     1      30.789 -24.833 -12.495  0.00  0.00    +0.166 HD
ATOM     20  H   UNL     1      35.457 -22.258 -17.935  0.00  0.00    +0.158 HD
ENDROOT
BRANCH  10  21
ATOM     21  C   UNL     1      35.958 -24.262 -13.205  0.00  0.00    +0.000 C 
ATOM     22  C   UNL     1      36.474 -23.294 -12.343  0.00  0.00    +0.000 C 
ATOM     23  C   UNL     1      36.672 -25.439 -13.438  0.00  0.00    +0.000 C 
ATOM     24  C   UNL     1      37.701 -23.500 -11.716  0.00  0.00    +0.000 C 
ATOM     25  C   UNL     1      37.900 -25.646 -12.809  0.00  0.00    +0.000 C 
ATOM     26  C   UNL     1      38.415 -24.675 -11.949  0.00  0.00    +0.000 C 
ENDBRANCH  10  21
BRANCH  17  27
ATOM     27  O   UNL     1      27.841 -22.825 -17.549  0.00  0.00    -0.506 OA
ATOM     28  H   UNL     1      27.677 -21.911 -17.675  0.00  0.00    +0.292 HD
ENDBRANCH  17  27
TORSDOF 2
ENDMDL
MODEL 4
REMARK VINA RESULT:     -10.3      3.502      7.325
REMARK  Name = 4369491
REMARK  2 active torsions:
REMARK  status: ('A' for Active; 'I' for Inactive)
REMARK    1  A    between atoms: C_10  and  C_21
REMARK    2  A    between atoms: C_17  and  O_27
REMARK                            x       y       z     vdW  Elec       q    Type
REMARK                         _______ _______ _______ _____ _____    ______ ____
ROOT
ATOM      1  O   UNL     1      32.707 -22.244 -19.502  0.00  0.00    -0.270 OA
ATOM      2  O   UNL     1      33.921 -24.221 -15.529  0.00  0.00    -0.270 OA
ATOM      3  N   UNL     1      37.450 -20.021 -18.932  0.00  0.00    -0.353 N 
ATOM      4  N   UNL     1      32.985 -23.419 -17.509  0.00  0.00    -0.248 N 
ATOM      5  C   UNL     1      35.529 -21.158 -18.806  0.00  0.00    +0.022 A 
ATOM      6  C   UNL     1      34.673 -22.059 -18.158  0.00  0.00    +0.060 C 
ATOM      7  C   UNL     1      36.752 -20.917 -18.160  0.00  0.00    +0.057 A 
ATOM      8  C   UNL     1      35.519 -20.366 -20.003  0.00  0.00    +0.020 A 
ATOM      9  C   UNL     1      35.037 -22.661 -16.955  0.00  0.00    +0.058 C 
ATOM     10  C   UNL     1      36.239 -22.417 -16.330  0.00  0.00    +0.006 C 
ATOM     11  C   UNL     1      36.730 -19.671 -20.049  0.00  0.00    +0.057 A 
ATOM     12  C   UNL     1      37.124 -21.525 -16.941  0.00  0.00    +0.017 C 
ATOM     13  C   UNL     1      33.344 -22.552 -18.514  0.00  0.00    +0.252 C 
ATOM     14  C   UNL     1      33.945 -23.539 -16.535  0.00  0.00    +0.252 C 
ATOM     15  C   UNL     1      34.604 -20.162 -21.060  0.00  0.00    +0.038 C 
ATOM     16  C   UNL     1      37.069 -18.793 -21.086  0.00  0.00    +0.020 C 
ATOM     17  C   UNL     1      34.929 -19.287 -22.105  0.00  0.00    +0.134 C 
ATOM     18  C   UNL     1      36.145 -18.613 -22.116  0.00  0.00    +0.038 C 
ATOM     19  H   UNL     1      38.345 -19.675 -18.715  0.00  0.00    +0.166 HD
ATOM     20  H   UNL     1      32.128 -23.902 -17.489  0.00  0.00    +0.158 HD
ENDROOT
BRANCH  10  21
ATOM     21  C   UNL     1      36.613 -23.042 -15.081  0.00  0.00    +0.000 C 
ATOM     22  C   UNL     1      35.929 -22.723 -13.908  0.00  0.00    +0.000 C 
ATOM     23  C   UNL     1      37.658 -23.967 -15.048  0.00  0.00    +0.000 C 
ATOM     24  C   UNL     1      36.290 -23.326 -12.703  0.00  0.00    +0.000 C 
ATOM     25  C   UNL     1      38.019 -24.570 -13.843  0.00  0.00    +0.000 C 
ATOM     26  C   UNL     1      37.335 -24.249 -12.671  0.00  0.00    +0.000 C 
ENDBRANCH  10  21
BRANCH  17  27
ATOM     27  O   UNL     1      34.041 -19.096 -23.121  0.00  0.00    -0.506 OA
ATOM     28  H   UNL     1      33.975 -18.258 -23.534  0.00  0.00    +0.292 HD
ENDBRANCH  17  27
TORSDOF 2
ENDMDL
MODEL 5
REMARK VINA RESULT:     -10.1     13.404     16.344
REMARK  Name = 4369491
REMARK  2 active torsions:
REMARK  status: ('A' for Active; 'I' for Inactive)
REMARK    1  A    between atoms: C_10  and  C_21
REMARK    2  A    between atoms: C_17  and  O_27
REMARK                            x       y       z     vdW  Elec       q    Type
REMARK                         _______ _______ _______ _____ _____    ______ ____
ROOT
ATOM      1  O   UNL     1      30.902  -9.890 -19.831  0.00  0.00    -0.270 OA
ATOM      2  O   UNL     1      32.082 -14.159 -21.076  0.00  0.00    -0.270 OA
ATOM      3  N   UNL     1      33.802  -8.703 -24.066  0.00  0.00    -0.353 N 
ATOM      4  N   UNL     1      31.295 -12.163 -20.162  0.00  0.00    -0.248 N 
ATOM      5  C   UNL     1      32.669  -9.610 -22.365  0.00  0.00    +0.022 A 
ATOM      6  C   UNL     1      32.231 -10.721 -21.634  0.00  0.00    +0.060 C 
ATOM      7  C   UNL     1      33.474  -9.900 -23.479  0.00  0.00    +0.057 A 
ATOM      8  C   UNL     1      32.527  -8.183 -22.307  0.00  0.00    +0.020 A 
ATOM      9  C   UNL     1      32.585 -12.016 -22.007  0.00  0.00    +0.058 C 
ATOM     10  C   UNL     1      33.375 -12.289 -23.101  0.00  0.00    +0.006 C 
ATOM     11  C   UNL     1      33.246  -7.651 -23.380  0.00  0.00    +0.057 A 
ATOM     12  C   UNL     1      33.835 -11.211 -23.860  0.00  0.00    +0.017 C 
ATOM     13  C   UNL     1      31.395 -10.820 -20.438  0.00  0.00    +0.252 C 
ATOM     14  C   UNL     1      31.981 -12.947 -21.055  0.00  0.00    +0.252 C 
ATOM     15  C   UNL     1      31.862  -7.278 -21.449  0.00  0.00    +0.038 C 
ATOM     16  C   UNL     1      33.332  -6.276 -23.637  0.00  0.00    +0.020 C 
ATOM     17  C   UNL     1      31.938  -5.901 -21.693  0.00  0.00    +0.134 C 
ATOM     18  C   UNL     1      32.663  -5.409 -22.772  0.00  0.00    +0.038 C 
ATOM     19  H   UNL     1      34.362  -8.610 -24.870  0.00  0.00    +0.166 HD
ATOM     20  H   UNL     1      30.785 -12.524 -19.402  0.00  0.00    +0.158 HD
ENDROOT
BRANCH  10  21
ATOM     21  C   UNL     1      33.742 -13.634 -23.485  0.00  0.00    +0.000 C 
ATOM     22  C   UNL     1      34.671 -14.349 -22.728  0.00  0.00    +0.000 C 
ATOM     23  C   UNL     1      33.167 -14.219 -24.614  0.00  0.00    +0.000 C 
ATOM     24  C   UNL     1      35.024 -15.645 -23.099  0.00  0.00    +0.000 C 
ATOM     25  C   UNL     1      33.520 -15.517 -24.985  0.00  0.00    +0.000 C 
ATOM     26  C   UNL     1      34.450 -16.229 -24.227  0.00  0.00    +0.000 C 
ENDBRANCH  10  21
BRANCH  17  27
ATOM     27  O   UNL     1      31.293  -5.035 -20.862  0.00  0.00    -0.506 OA
ATOM     28  H   UNL     1      31.005  -4.204 -21.183  0.00  0.00    +0.292 HD
ENDBRANCH  17  27
TORSDOF 2
ENDMDL
MODEL 6
REMARK VINA RESULT:      -9.9      3.513      5.908
REMARK  Name = 4369491
REMARK  2 active torsions:
REMARK  status: ('A' for Active; 'I' for Inactive)
REMARK    1  A    between atoms: C_10  and  C_21
REMARK    2  A    between atoms: C_17  and  O_27
REMARK                            x       y       z     vdW  Elec       q    Type
REMARK                         _______ _______ _______ _____ _____    ______ ____
ROOT
ATOM      1  O   UNL     1      32.647 -23.400 -16.333  0.00  0.00    -0.270 OA
ATOM      2  O   UNL     1      32.713 -20.816 -20.139  0.00  0.00    -0.270 OA
ATOM      3  N   UNL     1      37.806 -22.334 -16.475  0.00  0.00    -0.353 N 
ATOM      4  N   UNL     1      32.306 -22.153 -18.271  0.00  0.00    -0.248 N 
ATOM      5  C   UNL     1      35.600 -22.551 -16.769  0.00  0.00    +0.022 A 
ATOM      6  C   UNL     1      34.423 -22.289 -17.482  0.00  0.00    +0.060 C 
ATOM      7  C   UNL     1      36.766 -21.975 -17.297  0.00  0.00    +0.057 A 
ATOM      8  C   UNL     1      35.982 -23.276 -15.591  0.00  0.00    +0.020 A 
ATOM      9  C   UNL     1      34.437 -21.507 -18.635  0.00  0.00    +0.058 C 
ATOM     10  C   UNL     1      35.586 -20.946 -19.145  0.00  0.00    +0.006 C 
ATOM     11  C   UNL     1      37.362 -23.120 -15.439  0.00  0.00    +0.057 A 
ATOM     12  C   UNL     1      36.784 -21.181 -18.465  0.00  0.00    +0.017 C 
ATOM     13  C   UNL     1      33.041 -22.706 -17.249  0.00  0.00    +0.252 C 
ATOM     14  C   UNL     1      33.069 -21.420 -19.146  0.00  0.00    +0.252 C 
ATOM     15  C   UNL     1      35.300 -24.056 -14.630  0.00  0.00    +0.038 C 
ATOM     16  C   UNL     1      38.086 -23.696 -14.387  0.00  0.00    +0.020 C 
ATOM     17  C   UNL     1      36.009 -24.639 -13.573  0.00  0.00    +0.134 C 
ATOM     18  C   UNL     1      37.383 -24.460 -13.454  0.00  0.00    +0.038 C 
ATOM     19  H   UNL     1      38.743 -22.066 -16.609  0.00  0.00    +0.166 HD
ATOM     20  H   UNL     1      31.334 -22.271 -18.367  0.00  0.00    +0.158 HD
ENDROOT
BRANCH  10  21
ATOM     21  C   UNL     1      35.598 -20.136 -20.342  0.00  0.00    +0.000 C 
ATOM     22  C   UNL     1      34.792 -20.480 -21.427  0.00  0.00    +0.000 C 
ATOM     23  C   UNL     1      36.416 -19.007 -20.413  0.00  0.00    +0.000 C 
ATOM     24  C   UNL     1      34.804 -19.699 -22.582  0.00  0.00    +0.000 C 
ATOM     25  C   UNL     1      36.427 -18.225 -21.568  0.00  0.00    +0.000 C 
ATOM     26  C   UNL     1      35.622 -18.571 -22.653  0.00  0.00    +0.000 C 
ENDBRANCH  10  21
BRANCH  17  27
ATOM     27  O   UNL     1      35.344 -25.389 -12.651  0.00  0.00    -0.506 OA
ATOM     28  H   UNL     1      34.421 -25.525 -12.736  0.00  0.00    +0.292 HD
ENDBRANCH  17  27
TORSDOF 2
ENDMDL
MODEL 7
REMARK VINA RESULT:      -9.7      2.651      4.578
REMARK  Name = 4369491
REMARK  2 active torsions:
REMARK  status: ('A' for Active; 'I' for Inactive)
REMARK    1  A    between atoms: C_10  and  C_21
REMARK    2  A    between atoms: C_17  and  O_27
REMARK                            x       y       z     vdW  Elec       q    Type
REMARK                         _______ _______ _______ _____ _____    ______ ____
ROOT
ATOM      1  O   UNL     1      33.068 -24.615 -13.958  0.00  0.00    -0.270 OA
ATOM      2  O   UNL     1      32.052 -22.258 -17.777  0.00  0.00    -0.270 OA
ATOM      3  N   UNL     1      37.959 -23.267 -15.379  0.00  0.00    -0.353 N 
ATOM      4  N   UNL     1      32.192 -23.505 -15.810  0.00  0.00    -0.248 N 
ATOM      5  C   UNL     1      35.767 -23.626 -15.126  0.00  0.00    +0.022 A 
ATOM      6  C   UNL     1      34.440 -23.474 -15.547  0.00  0.00    +0.060 C 
ATOM      7  C   UNL     1      36.733 -23.016 -15.942  0.00  0.00    +0.057 A 
ATOM      8  C   UNL     1      36.466 -24.258 -14.044  0.00  0.00    +0.020 A 
ATOM      9  C   UNL     1      34.126 -22.760 -16.702  0.00  0.00    +0.058 C 
ATOM     10  C   UNL     1      35.081 -22.166 -17.496  0.00  0.00    +0.006 C 
ATOM     11  C   UNL     1      37.829 -24.014 -14.234  0.00  0.00    +0.057 A 
ATOM     12  C   UNL     1      36.419 -22.292 -17.114  0.00  0.00    +0.017 C 
ATOM     13  C   UNL     1      33.184 -23.954 -14.971  0.00  0.00    +0.252 C 
ATOM     14  C   UNL     1      32.674 -22.781 -16.873  0.00  0.00    +0.252 C 
ATOM     15  C   UNL     1      36.087 -25.018 -12.915  0.00  0.00    +0.038 C 
ATOM     16  C   UNL     1      38.819 -24.487 -13.362  0.00  0.00    +0.020 C 
ATOM     17  C   UNL     1      37.065 -25.497 -12.034  0.00  0.00    +0.134 C 
ATOM     18  C   UNL     1      38.412 -25.234 -12.256  0.00  0.00    +0.038 C 
ATOM     19  H   UNL     1      38.817 -22.954 -15.746  0.00  0.00    +0.166 HD
ATOM     20  H   UNL     1      31.235 -23.683 -15.665  0.00  0.00    +0.158 HD
ENDROOT
BRANCH  10  21
ATOM     21  C   UNL     1      34.753 -21.427 -18.695  0.00  0.00    +0.000 C 
ATOM     22  C   UNL     1      33.420 -21.267 -19.075  0.00  0.00    +0.000 C 
ATOM     23  C   UNL     1      35.770 -20.873 -19.474  0.00  0.00    +0.000 C 
ATOM     24  C   UNL     1      33.104 -20.555 -20.231  0.00  0.00    +0.000 C 
ATOM     25  C   UNL     1      35.454 -20.160 -20.630  0.00  0.00    +0.000 C 
ATOM     26  C   UNL     1      34.121 -20.002 -21.009  0.00  0.00    +0.000 C 
ENDBRANCH  10  21
BRANCH  17  27
ATOM     27  O   UNL     1      36.690 -26.229 -10.948  0.00  0.00    -0.506 OA
ATOM     28  H   UNL     1      35.880 -26.700 -10.957  0.00  0.00    +0.292 HD
ENDBRANCH  17  27
TORSDOF 2
ENDMDL
MODEL 8
REMARK VINA RESULT:      -9.0      9.632     12.816
REMARK  Name = 4369491
REMARK  2 active torsions:
REMARK  status: ('A' for Active; 'I' for Inactive)
REMARK    1  A    between atoms: C_10  and  C_21
REMARK    2  A    between atoms: C_17  and  O_27
REMARK                            x       y       z     vdW  Elec       q    Type
REMARK                         _______ _______ _______ _____ _____    ______ ____
ROOT
ATOM      1  O   UNL     1      33.123 -13.556 -24.905  0.00  0.00    -0.270 OA
ATOM      2  O   UNL     1      35.204 -17.584 -24.120  0.00  0.00    -0.270 OA
ATOM      3  N   UNL     1      33.088 -13.450 -19.637  0.00  0.00    -0.353 N 
ATOM      4  N   UNL     1      34.193 -15.626 -24.886  0.00  0.00    -0.248 N 
ATOM      5  C   UNL     1      33.297 -13.871 -21.823  0.00  0.00    +0.022 A 
ATOM      6  C   UNL     1      33.714 -14.685 -22.884  0.00  0.00    +0.060 C 
ATOM      7  C   UNL     1      33.560 -14.372 -20.538  0.00  0.00    +0.057 A 
ATOM      8  C   UNL     1      32.643 -12.605 -21.657  0.00  0.00    +0.020 A 
ATOM      9  C   UNL     1      34.345 -15.906 -22.652  0.00  0.00    +0.058 C 
ATOM     10  C   UNL     1      34.598 -16.388 -21.387  0.00  0.00    +0.006 C 
ATOM     11  C   UNL     1      32.529 -12.375 -20.283  0.00  0.00    +0.057 A 
ATOM     12  C   UNL     1      34.199 -15.609 -20.299  0.00  0.00    +0.017 C 
ATOM     13  C   UNL     1      33.617 -14.507 -24.332  0.00  0.00    +0.252 C 
ATOM     14  C   UNL     1      34.653 -16.514 -23.945  0.00  0.00    +0.252 C 
ATOM     15  C   UNL     1      32.130 -11.621 -22.532  0.00  0.00    +0.038 C 
ATOM     16  C   UNL     1      31.935 -11.224 -19.747  0.00  0.00    +0.020 C 
ATOM     17  C   UNL     1      31.534 -10.465 -22.011  0.00  0.00    +0.134 C 
ATOM     18  C   UNL     1      31.439 -10.271 -20.637  0.00  0.00    +0.038 C 
ATOM     19  H   UNL     1      33.142 -13.546 -18.659  0.00  0.00    +0.166 HD
ATOM     20  H   UNL     1      34.267 -15.776 -25.855  0.00  0.00    +0.158 HD
ENDROOT
BRANCH  10  21
ATOM     21  C   UNL     1      35.252 -17.655 -21.149  0.00  0.00    +0.000 C 
ATOM     22  C   UNL     1      36.643 -17.746 -21.211  0.00  0.00    +0.000 C 
ATOM     23  C   UNL     1      34.493 -18.790 -20.858  0.00  0.00    +0.000 C 
ATOM     24  C   UNL     1      37.274 -18.968 -20.981  0.00  0.00    +0.000 C 
ATOM     25  C   UNL     1      35.124 -20.012 -20.628  0.00  0.00    +0.000 C 
ATOM     26  C   UNL     1      36.515 -20.101 -20.691  0.00  0.00    +0.000 C 
ENDBRANCH  10  21
BRANCH  17  27
ATOM     27  O   UNL     1      31.042  -9.522 -22.862  0.00  0.00    -0.506 OA
ATOM     28  H   UNL     1      30.191  -9.158 -22.717  0.00  0.00    +0.292 HD
ENDBRANCH  17  27
TORSDOF 2
ENDMDL
MODEL 9
REMARK VINA RESULT:      -9.0     15.190     17.586
REMARK  Name = 4369491
REMARK  2 active torsions:
REMARK  status: ('A' for Active; 'I' for Inactive)
REMARK    1  A    between atoms: C_10  and  C_21
REMARK    2  A    between atoms: C_17  and  O_27
REMARK                            x       y       z     vdW  Elec       q    Type
REMARK                         _______ _______ _______ _____ _____    ______ ____
ROOT
ATOM      1  O   UNL     1      31.833  -9.218 -18.981  0.00  0.00    -0.270 OA
ATOM      2  O   UNL     1      31.774  -5.215 -21.249  0.00  0.00    -0.270 OA
ATOM      3  N   UNL     1      32.686 -11.055 -23.845  0.00  0.00    -0.353 N 
ATOM      4  N   UNL     1      31.742  -7.034 -19.789  0.00  0.00    -0.248 N 
ATOM      5  C   UNL     1      32.314  -9.894 -21.970  0.00  0.00    +0.022 A 
ATOM      6  C   UNL     1      32.107  -8.685 -21.293  0.00  0.00    +0.060 C 
ATOM      7  C   UNL     1      32.498  -9.784 -23.358  0.00  0.00    +0.057 A 
ATOM      8  C   UNL     1      32.399 -11.288 -21.642  0.00  0.00    +0.020 A 
ATOM      9  C   UNL     1      32.088  -7.470 -21.975  0.00  0.00    +0.058 C 
ATOM     10  C   UNL     1      32.270  -7.374 -23.337  0.00  0.00    +0.006 C 
ATOM     11  C   UNL     1      32.630 -11.981 -22.833  0.00  0.00    +0.057 A 
ATOM     12  C   UNL     1      32.480  -8.555 -24.053  0.00  0.00    +0.017 C 
ATOM     13  C   UNL     1      31.882  -8.400 -19.877  0.00  0.00    +0.252 C 
ATOM     14  C   UNL     1      31.852  -6.404 -21.003  0.00  0.00    +0.252 C 
ATOM     15  C   UNL     1      32.301 -12.044 -20.451  0.00  0.00    +0.038 C 
ATOM     16  C   UNL     1      32.768 -13.374 -22.893  0.00  0.00    +0.020 C 
ATOM     17  C   UNL     1      32.436 -13.437 -20.495  0.00  0.00    +0.134 C 
ATOM     18  C   UNL     1      32.667 -14.091 -21.700  0.00  0.00    +0.038 C 
ATOM     19  H   UNL     1      32.840 -11.273 -24.792  0.00  0.00    +0.166 HD
ATOM     20  H   UNL     1      31.579  -6.559 -18.943  0.00  0.00    +0.158 HD
ENDROOT
BRANCH  10  21
ATOM     21  C   UNL     1      32.249  -6.112 -24.042  0.00  0.00    +0.000 C 
ATOM     22  C   UNL     1      33.446  -5.463 -24.348  0.00  0.00    +0.000 C 
ATOM     23  C   UNL     1      31.032  -5.541 -24.417  0.00  0.00    +0.000 C 
ATOM     24  C   UNL     1      33.426  -4.246 -25.028  0.00  0.00    +0.000 C 
ATOM     25  C   UNL     1      31.012  -4.324 -25.098  0.00  0.00    +0.000 C 
ATOM     26  C   UNL     1      32.210  -3.676 -25.403  0.00  0.00    +0.000 C 
ENDBRANCH  10  21
BRANCH  17  27
ATOM     27  O   UNL     1      32.342 -14.157 -19.343  0.00  0.00    -0.506 OA
ATOM     28  H   UNL     1      31.503 -14.319 -18.959  0.00  0.00    +0.292 HD
ENDBRANCH  17  27
TORSDOF 2
ENDMDL
