MODEL 1
REMARK VINA RESULT:     -12.3      0.000      0.000
REMARK  Name = 446805
REMARK  6 active torsions:
REMARK  status: ('A' for Active; 'I' for Inactive)
REMARK    1  A    between atoms: C_4  and  C_22
REMARK    2  A    between atoms: C_7  and  N_11
REMARK    3  A    between atoms: N_11  and  S_13
REMARK    4  A    between atoms: S_13  and  C_16
REMARK    5  A    between atoms: C_22  and  C_23
REMARK    6  A    between atoms: C_28  and  C_31
REMARK                            x       y       z     vdW  Elec       q    Type
REMARK                         _______ _______ _______ _____ _____    ______ ____
ROOT
ATOM      1  N   UNL     1      34.853 -16.522 -23.043  0.00  0.00    -0.262 N 
ATOM      2  N   UNL     1      35.128 -16.083 -20.881  0.00  0.00    -0.394 NA
ATOM      3  C   UNL     1      34.187 -15.344 -22.821  0.00  0.00    +0.079 C 
ATOM      4  C   UNL     1      35.398 -16.923 -21.855  0.00  0.00    +0.168 C 
ATOM      5  C   UNL     1      34.374 -15.091 -21.466  0.00  0.00    +0.129 C 
ATOM      6  C   UNL     1      33.809 -13.935 -20.900  0.00  0.00    +0.103 C 
ATOM      7  C   UNL     1      33.074 -13.077 -21.728  0.00  0.00    +0.050 C 
ATOM      8  C   UNL     1      33.461 -14.503 -23.665  0.00  0.00    +0.018 C 
ATOM      9  C   UNL     1      34.957 -17.213 -24.308  0.00  0.00    +0.119 C 
ATOM     10  C   UNL     1      32.905 -13.357 -23.086  0.00  0.00    +0.013 C 
ENDROOT
BRANCH   7  11
ATOM     11  N   UNL     1      32.490 -11.897 -21.174  0.00  0.00    -0.219 N 
ATOM     12  H   UNL     1      32.412 -11.767 -20.201  0.00  0.00    +0.173 HD
BRANCH  11  13
ATOM     13  S   UNL     1      31.927 -10.701 -22.301  0.00  0.00    +0.073 S 
ATOM     14  O   UNL     1      30.483 -10.783 -22.405  0.00  0.00    -0.150 OA
ATOM     15  O   UNL     1      32.754 -10.741 -23.492  0.00  0.00    -0.150 OA
BRANCH  13  16
ATOM     16  C   UNL     1      32.319  -9.198 -21.456  0.00  0.00    +0.125 C 
ATOM     17  C   UNL     1      33.025  -8.213 -22.125  0.00  0.00    +0.020 C 
ATOM     18  C   UNL     1      31.912  -9.036 -20.144  0.00  0.00    +0.020 C 
ATOM     19  C   UNL     1      33.333  -7.027 -21.458  0.00  0.00    +0.001 C 
ATOM     20  C   UNL     1      32.220  -7.849 -19.478  0.00  0.00    +0.001 C 
ATOM     21  C   UNL     1      32.931  -6.845 -20.135  0.00  0.00    +0.000 C 
ENDBRANCH  13  16
ENDBRANCH  11  13
ENDBRANCH   7  11
BRANCH   4  22
ATOM     22  C   UNL     1      36.189 -18.165 -21.733  0.00  0.00    +0.101 C 
BRANCH  22  23
ATOM     23  C   UNL     1      35.494 -19.264 -20.938  0.00  0.00    -0.014 C 
ATOM     24  C   UNL     1      34.123 -19.384 -21.027  0.00  0.00    -0.004 C 
ATOM     25  C   UNL     1      36.258 -20.103 -20.154  0.00  0.00    -0.004 C 
ATOM     26  C   UNL     1      33.486 -20.390 -20.299  0.00  0.00    +0.002 C 
ATOM     27  C   UNL     1      35.622 -21.109 -19.426  0.00  0.00    +0.002 C 
ATOM     28  C   UNL     1      34.236 -21.252 -19.499  0.00  0.00    +0.031 C 
BRANCH  28  31
ATOM     29  N   UNL     1      32.392 -22.053 -18.041  0.00  0.00    -0.343 N 
ATOM     30  N   UNL     1      34.093 -23.514 -18.700  0.00  0.00    -0.285 NA
ATOM     31  C   UNL     1      33.573 -22.300 -18.739  0.00  0.00    +0.117 C 
ATOM     32  H   UNL     1      31.960 -22.778 -17.533  0.00  0.00    +0.144 HD
ATOM     33  H   UNL     1      31.990 -21.155 -18.056  0.00  0.00    +0.144 HD
ATOM     34  H   UNL     1      33.646 -24.225 -18.187  0.00  0.00    +0.188 HD
ENDBRANCH  28  31
ENDBRANCH  22  23
ENDBRANCH   4  22
TORSDOF 6
ENDMDL
MODEL 2
REMARK VINA RESULT:     -11.9      3.415     10.342
REMARK  Name = 446805
REMARK  6 active torsions:
REMARK  status: ('A' for Active; 'I' for Inactive)
REMARK    1  A    between atoms: C_4  and  C_22
REMARK    2  A    between atoms: C_7  and  N_11
REMARK    3  A    between atoms: N_11  and  S_13
REMARK    4  A    between atoms: S_13  and  C_16
REMARK    5  A    between atoms: C_22  and  C_23
REMARK    6  A    between atoms: C_28  and  C_31
REMARK                            x       y       z     vdW  Elec       q    Type
REMARK                         _______ _______ _______ _____ _____    ______ ____
ROOT
ATOM      1  N   UNL     1      32.860 -12.885 -22.957  0.00  0.00    -0.262 N 
ATOM      2  N   UNL     1      32.140 -13.447 -20.930  0.00  0.00    -0.394 NA
ATOM      3  C   UNL     1      33.639 -13.946 -22.573  0.00  0.00    +0.079 C 
ATOM      4  C   UNL     1      31.980 -12.625 -21.943  0.00  0.00    +0.168 C 
ATOM      5  C   UNL     1      33.170 -14.279 -21.305  0.00  0.00    +0.129 C 
ATOM      6  C   UNL     1      33.764 -15.348 -20.613  0.00  0.00    +0.103 C 
ATOM      7  C   UNL     1      34.813 -16.042 -21.230  0.00  0.00    +0.050 C 
ATOM      8  C   UNL     1      34.681 -14.624 -23.206  0.00  0.00    +0.018 C 
ATOM      9  C   UNL     1      32.956 -12.172 -24.210  0.00  0.00    +0.119 C 
ATOM     10  C   UNL     1      35.262 -15.685 -22.504  0.00  0.00    +0.013 C 
ENDROOT
BRANCH   7  11
ATOM     11  N   UNL     1      35.433 -17.131 -20.544  0.00  0.00    -0.219 N 
ATOM     12  H   UNL     1      35.622 -17.093 -19.578  0.00  0.00    +0.173 HD
BRANCH  11  13
ATOM     13  S   UNL     1      35.834 -18.527 -21.497  0.00  0.00    +0.073 S 
ATOM     14  O   UNL     1      37.276 -18.636 -21.604  0.00  0.00    -0.150 OA
ATOM     15  O   UNL     1      35.003 -18.547 -22.687  0.00  0.00    -0.150 OA
BRANCH  13  16
ATOM     16  C   UNL     1      35.272 -19.845 -20.459  0.00  0.00    +0.125 C 
ATOM     17  C   UNL     1      36.204 -20.614 -19.784  0.00  0.00    +0.020 C 
ATOM     18  C   UNL     1      33.914 -20.079 -20.342  0.00  0.00    +0.020 C 
ATOM     19  C   UNL     1      35.760 -21.653 -18.964  0.00  0.00    +0.001 C 
ATOM     20  C   UNL     1      33.471 -21.117 -19.522  0.00  0.00    +0.001 C 
ATOM     21  C   UNL     1      34.394 -21.904 -18.834  0.00  0.00    +0.000 C 
ENDBRANCH  13  16
ENDBRANCH  11  13
ENDBRANCH   7  11
BRANCH   4  22
ATOM     22  C   UNL     1      30.986 -11.535 -22.025  0.00  0.00    +0.101 C 
BRANCH  22  23
ATOM     23  C   UNL     1      31.493 -10.197 -21.502  0.00  0.00    -0.014 C 
ATOM     24  C   UNL     1      31.894  -9.236 -22.406  0.00  0.00    -0.004 C 
ATOM     25  C   UNL     1      31.537  -9.990 -20.138  0.00  0.00    -0.004 C 
ATOM     26  C   UNL     1      32.358  -8.010 -21.926  0.00  0.00    +0.002 C 
ATOM     27  C   UNL     1      32.001  -8.765 -19.658  0.00  0.00    +0.002 C 
ATOM     28  C   UNL     1      32.412  -7.776 -20.552  0.00  0.00    +0.031 C 
BRANCH  28  31
ATOM     29  N   UNL     1      32.525  -5.297 -20.651  0.00  0.00    -0.343 N 
ATOM     30  N   UNL     1      33.709  -6.467 -19.010  0.00  0.00    -0.285 NA
ATOM     31  C   UNL     1      32.897  -6.499 -20.051  0.00  0.00    +0.117 C 
ATOM     32  H   UNL     1      32.866  -4.444 -20.295  0.00  0.00    +0.144 HD
ATOM     33  H   UNL     1      31.923  -5.300 -21.429  0.00  0.00    +0.144 HD
ATOM     34  H   UNL     1      34.039  -5.604 -18.669  0.00  0.00    +0.188 HD
ENDBRANCH  28  31
ENDBRANCH  22  23
ENDBRANCH   4  22
TORSDOF 6
ENDMDL
MODEL 3
REMARK VINA RESULT:     -11.7      5.087     10.587
REMARK  Name = 446805
REMARK  6 active torsions:
REMARK  status: ('A' for Active; 'I' for Inactive)
REMARK    1  A    between atoms: C_4  and  C_22
REMARK    2  A    between atoms: C_7  and  N_11
REMARK    3  A    between atoms: N_11  and  S_13
REMARK    4  A    between atoms: S_13  and  C_16
REMARK    5  A    between atoms: C_22  and  C_23
REMARK    6  A    between atoms: C_28  and  C_31
REMARK                            x       y       z     vdW  Elec       q    Type
REMARK                         _______ _______ _______ _____ _____    ______ ____
ROOT
ATOM      1  N   UNL     1      36.100 -19.063 -21.651  0.00  0.00    -0.262 N 
ATOM      2  N   UNL     1      33.930 -19.092 -22.132  0.00  0.00    -0.394 NA
ATOM      3  C   UNL     1      35.527 -19.876 -20.707  0.00  0.00    +0.079 C 
ATOM      4  C   UNL     1      35.107 -18.620 -22.478  0.00  0.00    +0.168 C 
ATOM      5  C   UNL     1      34.173 -19.879 -21.029  0.00  0.00    +0.129 C 
ATOM      6  C   UNL     1      33.283 -20.631 -20.243  0.00  0.00    +0.103 C 
ATOM      7  C   UNL     1      33.797 -21.353 -19.159  0.00  0.00    +0.050 C 
ATOM      8  C   UNL     1      36.061 -20.589 -19.633  0.00  0.00    +0.018 C 
ATOM      9  C   UNL     1      37.504 -18.735 -21.749  0.00  0.00    +0.119 C 
ATOM     10  C   UNL     1      35.162 -21.332 -18.861  0.00  0.00    +0.013 C 
ENDROOT
BRANCH   7  11
ATOM     11  N   UNL     1      32.910 -22.124 -18.346  0.00  0.00    -0.219 N 
ATOM     12  H   UNL     1      31.933 -22.006 -18.391  0.00  0.00    +0.173 HD
BRANCH  11  13
ATOM     13  S   UNL     1      33.639 -23.282 -17.276  0.00  0.00    +0.073 S 
ATOM     14  O   UNL     1      34.901 -22.758 -16.791  0.00  0.00    -0.150 OA
ATOM     15  O   UNL     1      33.573 -24.599 -17.881  0.00  0.00    -0.150 OA
BRANCH  13  16
ATOM     16  C   UNL     1      32.503 -23.284 -15.920  0.00  0.00    +0.125 C 
ATOM     17  C   UNL     1      32.974 -23.551 -14.646  0.00  0.00    +0.020 C 
ATOM     18  C   UNL     1      31.167 -23.017 -16.159  0.00  0.00    +0.020 C 
ATOM     19  C   UNL     1      32.078 -23.552 -13.577  0.00  0.00    +0.001 C 
ATOM     20  C   UNL     1      30.271 -23.018 -15.090  0.00  0.00    +0.001 C 
ATOM     21  C   UNL     1      30.726 -23.285 -13.799  0.00  0.00    +0.000 C 
ENDBRANCH  13  16
ENDBRANCH  11  13
ENDBRANCH   7  11
BRANCH   4  22
ATOM     22  C   UNL     1      35.376 -17.716 -23.616  0.00  0.00    +0.101 C 
BRANCH  22  23
ATOM     23  C   UNL     1      34.766 -16.328 -23.458  0.00  0.00    -0.014 C 
ATOM     24  C   UNL     1      34.034 -15.800 -24.501  0.00  0.00    -0.004 C 
ATOM     25  C   UNL     1      34.967 -15.643 -22.278  0.00  0.00    -0.004 C 
ATOM     26  C   UNL     1      33.475 -14.530 -24.356  0.00  0.00    +0.002 C 
ATOM     27  C   UNL     1      34.410 -14.373 -22.133  0.00  0.00    +0.002 C 
ATOM     28  C   UNL     1      33.664 -13.817 -23.173  0.00  0.00    +0.031 C 
BRANCH  28  31
ATOM     29  N   UNL     1      33.610 -11.389 -23.692  0.00  0.00    -0.343 N 
ATOM     30  N   UNL     1      32.036 -12.317 -22.235  0.00  0.00    -0.285 NA
ATOM     31  C   UNL     1      33.083 -12.492 -23.022  0.00  0.00    +0.117 C 
ATOM     32  H   UNL     1      33.200 -10.501 -23.575  0.00  0.00    +0.144 HD
ATOM     33  H   UNL     1      34.391 -11.497 -24.281  0.00  0.00    +0.144 HD
ATOM     34  H   UNL     1      31.641 -11.422 -22.131  0.00  0.00    +0.188 HD
ENDBRANCH  28  31
ENDBRANCH  22  23
ENDBRANCH   4  22
TORSDOF 6
ENDMDL
MODEL 4
REMARK VINA RESULT:     -11.6      8.232     12.986
REMARK  Name = 446805
REMARK  6 active torsions:
REMARK  status: ('A' for Active; 'I' for Inactive)
REMARK    1  A    between atoms: C_4  and  C_22
REMARK    2  A    between atoms: C_7  and  N_11
REMARK    3  A    between atoms: N_11  and  S_13
REMARK    4  A    between atoms: S_13  and  C_16
REMARK    5  A    between atoms: C_22  and  C_23
REMARK    6  A    between atoms: C_28  and  C_31
REMARK                            x       y       z     vdW  Elec       q    Type
REMARK                         _______ _______ _______ _____ _____    ______ ____
ROOT
ATOM      1  N   UNL     1      32.254 -22.977 -16.161  0.00  0.00    -0.262 N 
ATOM      2  N   UNL     1      34.290 -23.525 -16.864  0.00  0.00    -0.394 NA
ATOM      3  C   UNL     1      32.896 -23.486 -15.062  0.00  0.00    +0.079 C 
ATOM      4  C   UNL     1      33.127 -23.021 -17.211  0.00  0.00    +0.168 C 
ATOM      5  C   UNL     1      34.165 -23.819 -15.525  0.00  0.00    +0.129 C 
ATOM      6  C   UNL     1      35.097 -24.378 -14.633  0.00  0.00    +0.103 C 
ATOM      7  C   UNL     1      34.709 -24.578 -13.303  0.00  0.00    +0.050 C 
ATOM      8  C   UNL     1      32.489 -23.675 -13.740  0.00  0.00    +0.018 C 
ATOM      9  C   UNL     1      30.896 -22.485 -16.198  0.00  0.00    +0.119 C 
ATOM     10  C   UNL     1      33.428 -24.232 -12.866  0.00  0.00    +0.013 C 
ENDROOT
BRANCH   7  11
ATOM     11  N   UNL     1      35.639 -25.145 -12.379  0.00  0.00    -0.219 N 
ATOM     12  H   UNL     1      35.528 -26.059 -12.029  0.00  0.00    +0.173 HD
BRANCH  11  13
ATOM     13  S   UNL     1      36.978 -24.145 -11.904  0.00  0.00    +0.073 S 
ATOM     14  O   UNL     1      37.438 -24.551 -10.590  0.00  0.00    -0.150 OA
ATOM     15  O   UNL     1      36.654 -22.756 -12.173  0.00  0.00    -0.150 OA
BRANCH  13  16
ATOM     16  C   UNL     1      38.215 -24.619 -13.076  0.00  0.00    +0.125 C 
ATOM     17  C   UNL     1      39.048 -25.684 -12.783  0.00  0.00    +0.020 C 
ATOM     18  C   UNL     1      38.324 -23.916 -14.262  0.00  0.00    +0.020 C 
ATOM     19  C   UNL     1      40.023 -26.058 -13.708  0.00  0.00    +0.001 C 
ATOM     20  C   UNL     1      39.299 -24.290 -15.187  0.00  0.00    +0.001 C 
ATOM     21  C   UNL     1      40.148 -25.361 -14.910  0.00  0.00    +0.000 C 
ENDBRANCH  13  16
ENDBRANCH  11  13
ENDBRANCH   7  11
BRANCH   4  22
ATOM     22  C   UNL     1      32.757 -22.547 -18.561  0.00  0.00    +0.101 C 
BRANCH  22  23
ATOM     23  C   UNL     1      33.782 -21.609 -19.188  0.00  0.00    -0.014 C 
ATOM     24  C   UNL     1      33.338 -20.569 -19.978  0.00  0.00    -0.004 C 
ATOM     25  C   UNL     1      35.122 -21.830 -18.945  0.00  0.00    -0.004 C 
ATOM     26  C   UNL     1      34.276 -19.711 -20.551  0.00  0.00    +0.002 C 
ATOM     27  C   UNL     1      36.060 -20.972 -19.518  0.00  0.00    +0.002 C 
ATOM     28  C   UNL     1      35.637 -19.912 -20.321  0.00  0.00    +0.031 C 
BRANCH  28  31
ATOM     29  N   UNL     1      36.294 -18.222 -22.018  0.00  0.00    -0.343 N 
ATOM     30  N   UNL     1      37.838 -18.952 -20.423  0.00  0.00    -0.285 NA
ATOM     31  C   UNL     1      36.615 -19.018 -20.920  0.00  0.00    +0.117 C 
ATOM     32  H   UNL     1      36.973 -17.624 -22.407  0.00  0.00    +0.144 HD
ATOM     33  H   UNL     1      35.390 -18.258 -22.405  0.00  0.00    +0.144 HD
ATOM     34  H   UNL     1      38.502 -18.348 -20.826  0.00  0.00    +0.188 HD
ENDBRANCH  28  31
ENDBRANCH  22  23
ENDBRANCH   4  22
TORSDOF 6
ENDMDL
MODEL 5
REMARK VINA RESULT:     -11.4      4.974      8.554
REMARK  Name = 446805
REMARK  6 active torsions:
REMARK  status: ('A' for Active; 'I' for Inactive)
REMARK    1  A    between atoms: C_4  and  C_22
REMARK    2  A    between atoms: C_7  and  N_11
REMARK    3  A    between atoms: N_11  and  S_13
REMARK    4  A    between atoms: S_13  and  C_16
REMARK    5  A    between atoms: C_22  and  C_23
REMARK    6  A    between atoms: C_28  and  C_31
REMARK                            x       y       z     vdW  Elec       q    Type
REMARK                         _______ _______ _______ _____ _____    ______ ____
ROOT
ATOM      1  N   UNL     1      34.122 -22.803 -16.890  0.00  0.00    -0.262 N 
ATOM      2  N   UNL     1      32.268 -22.180 -17.946  0.00  0.00    -0.394 NA
ATOM      3  C   UNL     1      34.545 -22.088 -17.981  0.00  0.00    +0.079 C 
ATOM      4  C   UNL     1      32.756 -22.829 -16.913  0.00  0.00    +0.168 C 
ATOM      5  C   UNL     1      33.370 -21.709 -18.623  0.00  0.00    +0.129 C 
ATOM      6  C   UNL     1      33.447 -20.949 -19.802  0.00  0.00    +0.103 C 
ATOM      7  C   UNL     1      34.713 -20.598 -20.289  0.00  0.00    +0.050 C 
ATOM      8  C   UNL     1      35.816 -21.749 -18.447  0.00  0.00    +0.018 C 
ATOM      9  C   UNL     1      34.973 -23.417 -15.896  0.00  0.00    +0.119 C 
ATOM     10  C   UNL     1      35.875 -20.992 -19.621  0.00  0.00    +0.013 C 
ENDROOT
BRANCH   7  11
ATOM     11  N   UNL     1      34.815 -19.825 -21.486  0.00  0.00    -0.219 N 
ATOM     12  H   UNL     1      34.244 -20.006 -22.268  0.00  0.00    +0.173 HD
BRANCH  11  13
ATOM     13  S   UNL     1      35.995 -18.550 -21.494  0.00  0.00    +0.073 S 
ATOM     14  O   UNL     1      37.209 -19.025 -22.128  0.00  0.00    -0.150 OA
ATOM     15  O   UNL     1      36.042 -17.936 -20.180  0.00  0.00    -0.150 OA
BRANCH  13  16
ATOM     16  C   UNL     1      35.246 -17.374 -22.582  0.00  0.00    +0.125 C 
ATOM     17  C   UNL     1      35.145 -16.054 -22.181  0.00  0.00    +0.020 C 
ATOM     18  C   UNL     1      34.776 -17.797 -23.812  0.00  0.00    +0.020 C 
ATOM     19  C   UNL     1      34.554 -15.126 -23.040  0.00  0.00    +0.001 C 
ATOM     20  C   UNL     1      34.186 -16.870 -24.671  0.00  0.00    +0.001 C 
ATOM     21  C   UNL     1      34.075 -15.534 -24.285  0.00  0.00    +0.000 C 
ENDBRANCH  13  16
ENDBRANCH  11  13
ENDBRANCH   7  11
BRANCH   4  22
ATOM     22  C   UNL     1      31.966 -23.522 -15.873  0.00  0.00    +0.101 C 
BRANCH  22  23
ATOM     23  C   UNL     1      30.495 -23.127 -15.851  0.00  0.00    -0.014 C 
ATOM     24  C   UNL     1      29.675 -23.551 -16.876  0.00  0.00    -0.004 C 
ATOM     25  C   UNL     1      30.028 -22.356 -14.806  0.00  0.00    -0.004 C 
ATOM     26  C   UNL     1      28.327 -23.188 -16.855  0.00  0.00    +0.002 C 
ATOM     27  C   UNL     1      28.682 -21.993 -14.785  0.00  0.00    +0.002 C 
ATOM     28  C   UNL     1      27.832 -22.410 -15.810  0.00  0.00    +0.031 C 
BRANCH  28  31
ATOM     29  N   UNL     1      25.823 -21.425 -16.889  0.00  0.00    -0.343 N 
ATOM     30  N   UNL     1      25.701 -22.258 -14.709  0.00  0.00    -0.285 NA
ATOM     31  C   UNL     1      26.427 -22.031 -15.789  0.00  0.00    +0.117 C 
ATOM     32  H   UNL     1      24.871 -21.177 -16.852  0.00  0.00    +0.144 HD
ATOM     33  H   UNL     1      26.348 -21.245 -17.702  0.00  0.00    +0.144 HD
ATOM     34  H   UNL     1      24.751 -22.003 -14.691  0.00  0.00    +0.188 HD
ENDBRANCH  28  31
ENDBRANCH  22  23
ENDBRANCH   4  22
TORSDOF 6
ENDMDL
MODEL 6
REMARK VINA RESULT:     -11.1      5.846     11.532
REMARK  Name = 446805
REMARK  6 active torsions:
REMARK  status: ('A' for Active; 'I' for Inactive)
REMARK    1  A    between atoms: C_4  and  C_22
REMARK    2  A    between atoms: C_7  and  N_11
REMARK    3  A    between atoms: N_11  and  S_13
REMARK    4  A    between atoms: S_13  and  C_16
REMARK    5  A    between atoms: C_22  and  C_23
REMARK    6  A    between atoms: C_28  and  C_31
REMARK                            x       y       z     vdW  Elec       q    Type
REMARK                         _______ _______ _______ _____ _____    ______ ____
ROOT
ATOM      1  N   UNL     1      34.992 -19.777 -20.959  0.00  0.00    -0.262 N 
ATOM      2  N   UNL     1      36.982 -19.232 -20.133  0.00  0.00    -0.394 NA
ATOM      3  C   UNL     1      35.169 -20.587 -19.867  0.00  0.00    +0.079 C 
ATOM      4  C   UNL     1      36.101 -18.987 -21.076  0.00  0.00    +0.168 C 
ATOM      5  C   UNL     1      36.418 -20.227 -19.368  0.00  0.00    +0.129 C 
ATOM      6  C   UNL     1      36.914 -20.879 -18.226  0.00  0.00    +0.103 C 
ATOM      7  C   UNL     1      36.127 -21.872 -17.630  0.00  0.00    +0.050 C 
ATOM      8  C   UNL     1      34.368 -21.572 -19.288  0.00  0.00    +0.018 C 
ATOM      9  C   UNL     1      33.837 -19.766 -21.828  0.00  0.00    +0.119 C 
ATOM     10  C   UNL     1      34.877 -22.211 -18.153  0.00  0.00    +0.013 C 
ENDROOT
BRANCH   7  11
ATOM     11  N   UNL     1      36.612 -22.549 -16.469  0.00  0.00    -0.219 N 
ATOM     12  H   UNL     1      37.572 -22.575 -16.249  0.00  0.00    +0.173 HD
BRANCH  11  13
ATOM     13  S   UNL     1      35.426 -23.322 -15.463  0.00  0.00    +0.073 S 
ATOM     14  O   UNL     1      34.628 -24.225 -16.270  0.00  0.00    -0.150 OA
ATOM     15  O   UNL     1      34.788 -22.324 -14.625  0.00  0.00    -0.150 OA
BRANCH  13  16
ATOM     16  C   UNL     1      36.442 -24.307 -14.401  0.00  0.00    +0.125 C 
ATOM     17  C   UNL     1      37.208 -23.683 -13.433  0.00  0.00    +0.020 C 
ATOM     18  C   UNL     1      36.450 -25.681 -14.560  0.00  0.00    +0.020 C 
ATOM     19  C   UNL     1      38.009 -24.460 -12.595  0.00  0.00    +0.001 C 
ATOM     20  C   UNL     1      37.251 -26.458 -13.723  0.00  0.00    +0.001 C 
ATOM     21  C   UNL     1      38.030 -25.848 -12.740  0.00  0.00    +0.000 C 
ENDBRANCH  13  16
ENDBRANCH  11  13
ENDBRANCH   7  11
BRANCH   4  22
ATOM     22  C   UNL     1      36.243 -17.988 -22.157  0.00  0.00    +0.101 C 
BRANCH  22  23
ATOM     23  C   UNL     1      35.412 -16.729 -21.946  0.00  0.00    -0.014 C 
ATOM     24  C   UNL     1      35.113 -16.335 -20.659  0.00  0.00    -0.004 C 
ATOM     25  C   UNL     1      34.983 -16.022 -23.051  0.00  0.00    -0.004 C 
ATOM     26  C   UNL     1      34.352 -15.181 -20.466  0.00  0.00    +0.002 C 
ATOM     27  C   UNL     1      34.222 -14.870 -22.859  0.00  0.00    +0.002 C 
ATOM     28  C   UNL     1      33.907 -14.449 -21.567  0.00  0.00    +0.031 C 
BRANCH  28  31
ATOM     29  N   UNL     1      32.956 -12.305 -22.381  0.00  0.00    -0.343 N 
ATOM     30  N   UNL     1      32.525 -13.033 -20.202  0.00  0.00    -0.285 NA
ATOM     31  C   UNL     1      33.112 -13.247 -21.367  0.00  0.00    +0.117 C 
ATOM     32  H   UNL     1      32.413 -11.498 -22.223  0.00  0.00    +0.144 HD
ATOM     33  H   UNL     1      33.387 -12.445 -23.255  0.00  0.00    +0.144 HD
ATOM     34  H   UNL     1      31.987 -12.220 -20.064  0.00  0.00    +0.188 HD
ENDBRANCH  28  31
ENDBRANCH  22  23
ENDBRANCH   4  22
TORSDOF 6
ENDMDL
MODEL 7
REMARK VINA RESULT:     -10.7      4.126      7.569
REMARK  Name = 446805
REMARK  6 active torsions:
REMARK  status: ('A' for Active; 'I' for Inactive)
REMARK    1  A    between atoms: C_4  and  C_22
REMARK    2  A    between atoms: C_7  and  N_11
REMARK    3  A    between atoms: N_11  and  S_13
REMARK    4  A    between atoms: S_13  and  C_16
REMARK    5  A    between atoms: C_22  and  C_23
REMARK    6  A    between atoms: C_28  and  C_31
REMARK                            x       y       z     vdW  Elec       q    Type
REMARK                         _______ _______ _______ _____ _____    ______ ____
ROOT
ATOM      1  N   UNL     1      31.809  -9.587 -20.067  0.00  0.00    -0.262 N 
ATOM      2  N   UNL     1      31.268  -9.794 -22.213  0.00  0.00    -0.394 NA
ATOM      3  C   UNL     1      32.119  -8.381 -20.640  0.00  0.00    +0.079 C 
ATOM      4  C   UNL     1      31.305 -10.397 -21.045  0.00  0.00    +0.168 C 
ATOM      5  C   UNL     1      31.771  -8.535 -21.979  0.00  0.00    +0.129 C 
ATOM      6  C   UNL     1      31.964  -7.462 -22.866  0.00  0.00    +0.103 C 
ATOM      7  C   UNL     1      32.503  -6.270 -22.364  0.00  0.00    +0.050 C 
ATOM      8  C   UNL     1      32.655  -7.203 -20.119  0.00  0.00    +0.018 C 
ATOM      9  C   UNL     1      31.988  -9.936 -18.675  0.00  0.00    +0.119 C 
ATOM     10  C   UNL     1      32.841  -6.144 -21.015  0.00  0.00    +0.013 C 
ENDROOT
BRANCH   7  11
ATOM     11  N   UNL     1      32.708  -5.166 -23.248  0.00  0.00    -0.219 N 
ATOM     12  H   UNL     1      33.501  -5.111 -23.830  0.00  0.00    +0.173 HD
BRANCH  11  13
ATOM     13  S   UNL     1      31.491  -3.927 -23.246  0.00  0.00    +0.073 S 
ATOM     14  O   UNL     1      31.991  -2.764 -22.539  0.00  0.00    -0.150 OA
ATOM     15  O   UNL     1      30.213  -4.514 -22.887  0.00  0.00    -0.150 OA
BRANCH  13  16
ATOM     16  C   UNL     1      31.399  -3.512 -24.963  0.00  0.00    +0.125 C 
ATOM     17  C   UNL     1      30.580  -2.469 -25.361  0.00  0.00    +0.020 C 
ATOM     18  C   UNL     1      32.147  -4.236 -25.873  0.00  0.00    +0.020 C 
ATOM     19  C   UNL     1      30.508  -2.141 -26.715  0.00  0.00    +0.001 C 
ATOM     20  C   UNL     1      32.075  -3.908 -27.227  0.00  0.00    +0.001 C 
ATOM     21  C   UNL     1      31.256  -2.860 -27.648  0.00  0.00    +0.000 C 
ENDBRANCH  13  16
ENDBRANCH  11  13
ENDBRANCH   7  11
BRANCH   4  22
ATOM     22  C   UNL     1      30.867 -11.781 -20.771  0.00  0.00    +0.101 C 
BRANCH  22  23
ATOM     23  C   UNL     1      31.943 -12.830 -21.022  0.00  0.00    -0.014 C 
ATOM     24  C   UNL     1      32.403 -13.018 -22.309  0.00  0.00    -0.004 C 
ATOM     25  C   UNL     1      32.423 -13.560 -19.954  0.00  0.00    -0.004 C 
ATOM     26  C   UNL     1      33.389 -13.978 -22.539  0.00  0.00    +0.002 C 
ATOM     27  C   UNL     1      33.408 -14.520 -20.184  0.00  0.00    +0.002 C 
ATOM     28  C   UNL     1      33.891 -14.729 -21.476  0.00  0.00    +0.031 C 
BRANCH  28  31
ATOM     29  N   UNL     1      35.243 -16.681 -20.749  0.00  0.00    -0.343 N 
ATOM     30  N   UNL     1      35.564 -15.748 -22.867  0.00  0.00    -0.285 NA
ATOM     31  C   UNL     1      34.918 -15.731 -21.715  0.00  0.00    +0.117 C 
ATOM     32  H   UNL     1      35.942 -17.350 -20.932  0.00  0.00    +0.144 HD
ATOM     33  H   UNL     1      34.774 -16.683 -19.883  0.00  0.00    +0.144 HD
ATOM     34  H   UNL     1      36.260 -16.425 -23.032  0.00  0.00    +0.188 HD
ENDBRANCH  28  31
ENDBRANCH  22  23
ENDBRANCH   4  22
TORSDOF 6
ENDMDL
MODEL 8
REMARK VINA RESULT:     -10.6      3.948      7.415
REMARK  Name = 446805
REMARK  6 active torsions:
REMARK  status: ('A' for Active; 'I' for Inactive)
REMARK    1  A    between atoms: C_4  and  C_22
REMARK    2  A    between atoms: C_7  and  N_11
REMARK    3  A    between atoms: N_11  and  S_13
REMARK    4  A    between atoms: S_13  and  C_16
REMARK    5  A    between atoms: C_22  and  C_23
REMARK    6  A    between atoms: C_28  and  C_31
REMARK                            x       y       z     vdW  Elec       q    Type
REMARK                         _______ _______ _______ _____ _____    ______ ____
ROOT
ATOM      1  N   UNL     1      31.662  -9.494 -20.137  0.00  0.00    -0.262 N 
ATOM      2  N   UNL     1      31.861 -10.094 -22.268  0.00  0.00    -0.394 NA
ATOM      3  C   UNL     1      32.079  -8.367 -20.797  0.00  0.00    +0.079 C 
ATOM      4  C   UNL     1      31.547 -10.498 -21.057  0.00  0.00    +0.168 C 
ATOM      5  C   UNL     1      32.194  -8.766 -22.125  0.00  0.00    +0.129 C 
ATOM      6  C   UNL     1      32.609  -7.831 -23.089  0.00  0.00    +0.103 C 
ATOM      7  C   UNL     1      32.892  -6.525 -22.673  0.00  0.00    +0.050 C 
ATOM      8  C   UNL     1      32.354  -7.070 -20.360  0.00  0.00    +0.018 C 
ATOM      9  C   UNL     1      31.396  -9.598 -18.720  0.00  0.00    +0.119 C 
ATOM     10  C   UNL     1      32.766  -6.152 -21.332  0.00  0.00    +0.013 C 
ENDROOT
BRANCH   7  11
ATOM     11  N   UNL     1      33.316  -5.558 -23.635  0.00  0.00    -0.219 N 
ATOM     12  H   UNL     1      34.262  -5.468 -23.895  0.00  0.00    +0.173 HD
BRANCH  11  13
ATOM     13  S   UNL     1      32.082  -4.550 -24.327  0.00  0.00    +0.073 S 
ATOM     14  O   UNL     1      32.318  -3.172 -23.944  0.00  0.00    -0.150 OA
ATOM     15  O   UNL     1      30.786  -5.164 -24.106  0.00  0.00    -0.150 OA
BRANCH  13  16
ATOM     16  C   UNL     1      32.428  -4.693 -26.056  0.00  0.00    +0.125 C 
ATOM     17  C   UNL     1      31.880  -3.772 -26.931  0.00  0.00    +0.020 C 
ATOM     18  C   UNL     1      33.240  -5.722 -26.498  0.00  0.00    +0.020 C 
ATOM     19  C   UNL     1      32.153  -3.884 -28.294  0.00  0.00    +0.001 C 
ATOM     20  C   UNL     1      33.513  -5.834 -27.862  0.00  0.00    +0.001 C 
ATOM     21  C   UNL     1      32.970  -4.915 -28.760  0.00  0.00    +0.000 C 
ENDBRANCH  13  16
ENDBRANCH  11  13
ENDBRANCH   7  11
BRANCH   4  22
ATOM     22  C   UNL     1      31.116 -11.861 -20.683  0.00  0.00    +0.101 C 
BRANCH  22  23
ATOM     23  C   UNL     1      32.151 -12.938 -20.980  0.00  0.00    -0.014 C 
ATOM     24  C   UNL     1      32.512 -13.173 -22.291  0.00  0.00    -0.004 C 
ATOM     25  C   UNL     1      32.697 -13.645 -19.928  0.00  0.00    -0.004 C 
ATOM     26  C   UNL     1      33.460 -14.160 -22.562  0.00  0.00    +0.002 C 
ATOM     27  C   UNL     1      33.644 -14.632 -20.199  0.00  0.00    +0.002 C 
ATOM     28  C   UNL     1      34.026 -14.889 -21.516  0.00  0.00    +0.031 C 
BRANCH  28  31
ATOM     29  N   UNL     1      35.316 -16.909 -20.866  0.00  0.00    -0.343 N 
ATOM     30  N   UNL     1      35.647 -15.922 -22.959  0.00  0.00    -0.285 NA
ATOM     31  C   UNL     1      35.014 -15.918 -21.799  0.00  0.00    +0.117 C 
ATOM     32  H   UNL     1      35.989 -17.596 -21.079  0.00  0.00    +0.144 HD
ATOM     33  H   UNL     1      34.858 -16.922 -19.996  0.00  0.00    +0.144 HD
ATOM     34  H   UNL     1      36.316 -16.617 -23.153  0.00  0.00    +0.188 HD
ENDBRANCH  28  31
ENDBRANCH  22  23
ENDBRANCH   4  22
TORSDOF 6
ENDMDL
MODEL 9
REMARK VINA RESULT:     -10.4      3.452     10.611
REMARK  Name = 446805
REMARK  6 active torsions:
REMARK  status: ('A' for Active; 'I' for Inactive)
REMARK    1  A    between atoms: C_4  and  C_22
REMARK    2  A    between atoms: C_7  and  N_11
REMARK    3  A    between atoms: N_11  and  S_13
REMARK    4  A    between atoms: S_13  and  C_16
REMARK    5  A    between atoms: C_22  and  C_23
REMARK    6  A    between atoms: C_28  and  C_31
REMARK                            x       y       z     vdW  Elec       q    Type
REMARK                         _______ _______ _______ _____ _____    ______ ____
ROOT
ATOM      1  N   UNL     1      32.796 -12.538 -22.826  0.00  0.00    -0.262 N 
ATOM      2  N   UNL     1      32.270 -12.988 -20.714  0.00  0.00    -0.394 NA
ATOM      3  C   UNL     1      33.535 -13.644 -22.493  0.00  0.00    +0.079 C 
ATOM      4  C   UNL     1      32.058 -12.185 -21.732  0.00  0.00    +0.168 C 
ATOM      5  C   UNL     1      33.188 -13.906 -21.171  0.00  0.00    +0.129 C 
ATOM      6  C   UNL     1      33.778 -14.998 -20.511  0.00  0.00    +0.103 C 
ATOM      7  C   UNL     1      34.697 -15.786 -21.214  0.00  0.00    +0.050 C 
ATOM      8  C   UNL     1      34.447 -14.417 -23.213  0.00  0.00    +0.018 C 
ATOM      9  C   UNL     1      32.802 -11.869 -24.107  0.00  0.00    +0.119 C 
ATOM     10  C   UNL     1      35.024 -15.499 -22.542  0.00  0.00    +0.013 C 
ENDROOT
BRANCH   7  11
ATOM     11  N   UNL     1      35.310 -16.900 -20.563  0.00  0.00    -0.219 N 
ATOM     12  H   UNL     1      35.494 -16.896 -19.595  0.00  0.00    +0.173 HD
BRANCH  11  13
ATOM     13  S   UNL     1      35.712 -18.264 -21.560  0.00  0.00    +0.073 S 
ATOM     14  O   UNL     1      37.153 -18.352 -21.694  0.00  0.00    -0.150 OA
ATOM     15  O   UNL     1      34.863 -18.262 -22.737  0.00  0.00    -0.150 OA
BRANCH  13  16
ATOM     16  C   UNL     1      35.184 -19.617 -20.550  0.00  0.00    +0.125 C 
ATOM     17  C   UNL     1      33.829 -19.869 -20.416  0.00  0.00    +0.020 C 
ATOM     18  C   UNL     1      36.134 -20.396 -19.916  0.00  0.00    +0.020 C 
ATOM     19  C   UNL     1      33.413 -20.936 -19.620  0.00  0.00    +0.001 C 
ATOM     20  C   UNL     1      35.717 -21.464 -19.120  0.00  0.00    +0.001 C 
ATOM     21  C   UNL     1      34.357 -21.734 -18.972  0.00  0.00    +0.000 C 
ENDBRANCH  13  16
ENDBRANCH  11  13
ENDBRANCH   7  11
BRANCH   4  22
ATOM     22  C   UNL     1      31.143 -11.024 -21.743  0.00  0.00    +0.101 C 
BRANCH  22  23
ATOM     23  C   UNL     1      31.774  -9.746 -22.281  0.00  0.00    -0.014 C 
ATOM     24  C   UNL     1      32.998  -9.348 -21.786  0.00  0.00    -0.004 C 
ATOM     25  C   UNL     1      31.101  -9.026 -23.246  0.00  0.00    -0.004 C 
ATOM     26  C   UNL     1      33.576  -8.177 -22.278  0.00  0.00    +0.002 C 
ATOM     27  C   UNL     1      31.678  -7.856 -23.738  0.00  0.00    +0.002 C 
ATOM     28  C   UNL     1      32.915  -7.432 -23.254  0.00  0.00    +0.031 C 
BRANCH  28  31
ATOM     29  N   UNL     1      32.737  -5.110 -24.116  0.00  0.00    -0.343 N 
ATOM     30  N   UNL     1      34.828  -6.134 -23.913  0.00  0.00    -0.285 NA
ATOM     31  C   UNL     1      33.517  -6.211 -23.767  0.00  0.00    +0.117 C 
ATOM     32  H   UNL     1      33.166  -4.293 -24.462  0.00  0.00    +0.144 HD
ATOM     33  H   UNL     1      31.759  -5.147 -24.017  0.00  0.00    +0.144 HD
ATOM     34  H   UNL     1      35.238  -5.309 -24.260  0.00  0.00    +0.188 HD
ENDBRANCH  28  31
ENDBRANCH  22  23
ENDBRANCH   4  22
TORSDOF 6
ENDMDL
