MODEL 1
REMARK VINA RESULT:     -11.9      0.000      0.000
REMARK  Name = 46937134
REMARK  9 active torsions:
REMARK  status: ('A' for Active; 'I' for Inactive)
REMARK    1  A    between atoms: N_2  and  C_15
REMARK    2  A    between atoms: N_6  and  C_29
REMARK    3  A    between atoms: C_16  and  O_19
REMARK    4  A    between atoms: C_18  and  C_21
REMARK    5  A    between atoms: C_21  and  O_22
REMARK    6  A    between atoms: O_22  and  P_23
REMARK    7  A    between atoms: P_23  and  O_25
REMARK    8  A    between atoms: P_23  and  O_27
REMARK    9  A    between atoms: C_29  and  C_30
REMARK                            x       y       z     vdW  Elec       q    Type
REMARK                         _______ _______ _______ _____ _____    ______ ____
ROOT
ATOM      1  O   UNL     1      37.558 -22.812 -13.913  0.00  0.00    -0.208 OA
ATOM      2  N   UNL     1      33.395 -24.541 -13.580  0.00  0.00    -0.209 NA
ATOM      3  N   UNL     1      33.977 -23.495 -15.698  0.00  0.00    -0.279 N 
ATOM      4  N   UNL     1      35.350 -24.196 -12.534  0.00  0.00    -0.241 NA
ATOM      5  N   UNL     1      36.204 -22.604 -15.783  0.00  0.00    -0.301 NA
ATOM      6  N   UNL     1      34.738 -22.465 -17.595  0.00  0.00    -0.292 N 
ATOM      7  C   UNL     1      34.210 -23.893 -14.444  0.00  0.00    +0.191 C 
ATOM      8  C   UNL     1      34.134 -24.703 -12.430  0.00  0.00    +0.205 C 
ATOM      9  C   UNL     1      35.395 -23.687 -13.801  0.00  0.00    +0.183 C 
ATOM     10  C   UNL     1      35.029 -22.842 -16.335  0.00  0.00    +0.248 C 
ATOM     11  C   UNL     1      36.485 -23.007 -14.471  0.00  0.00    +0.224 C 
ATOM     12  H   UNL     1      33.113 -23.654 -16.144  0.00  0.00    +0.152 HD
ATOM     13  H   UNL     1      33.844 -22.670 -17.951  0.00  0.00    +0.151 HD
ENDROOT
BRANCH   2  15
ATOM     14  O   UNL     1      31.476 -24.600 -15.095  0.00  0.00    -0.338 OA
ATOM     15  C   UNL     1      31.976 -24.999 -13.804  0.00  0.00    +0.182 C 
ATOM     16  C   UNL     1      29.690 -24.481 -13.529  0.00  0.00    +0.144 C 
ATOM     17  C   UNL     1      30.998 -24.441 -12.774  0.00  0.00    +0.079 C 
ATOM     18  C   UNL     1      30.109 -24.162 -14.959  0.00  0.00    +0.174 C 
BRANCH  16  19
ATOM     19  O   UNL     1      29.173 -25.808 -13.468  0.00  0.00    -0.382 OA
ATOM     20  H   UNL     1      29.606 -26.355 -14.142  0.00  0.00    +0.210 HD
ENDBRANCH  16  19
BRANCH  18  21
ATOM     21  C   UNL     1      30.062 -22.671 -15.267  0.00  0.00    +0.186 C 
BRANCH  21  22
ATOM     22  O   UNL     1      29.263 -22.472 -16.421  0.00  0.00    -0.271 OA
BRANCH  22  23
ATOM     23  P   UNL     1      27.667 -22.717 -16.308  0.00  0.00    +0.473 P 
ATOM     24  O   UNL     1      27.133 -22.775 -14.906  0.00  0.00    -0.227 OA
BRANCH  23  25
ATOM     25  O   UNL     1      27.054 -21.534 -17.223  0.00  0.00    -0.303 OA
ATOM     26  H   UNL     1      26.285 -21.868 -17.711  0.00  0.00    +0.222 HD
ENDBRANCH  23  25
BRANCH  23  27
ATOM     27  O   UNL     1      27.419 -24.044 -17.198  0.00  0.00    -0.303 OA
ATOM     28  H   UNL     1      27.677 -23.870 -18.116  0.00  0.00    +0.222 HD
ENDBRANCH  23  27
ENDBRANCH  22  23
ENDBRANCH  21  22
ENDBRANCH  18  21
ENDBRANCH   2  15
BRANCH   6  29
ATOM     29  C   UNL     1      35.678 -21.773 -18.446  0.00  0.00    +0.117 C 
BRANCH  29  30
ATOM     30  C   UNL     1      34.961 -20.961 -19.479  0.00  0.00    -0.003 C 
ATOM     31  C   UNL     1      35.636 -20.062 -20.320  0.00  0.00    -0.002 C 
ATOM     32  C   UNL     1      34.900 -19.323 -21.277  0.00  0.00    -0.000 C 
ATOM     33  C   UNL     1      33.580 -21.131 -19.581  0.00  0.00    -0.003 C 
ATOM     34  C   UNL     1      37.025 -19.878 -20.232  0.00  0.00    -0.000 C 
ATOM     35  C   UNL     1      33.510 -19.506 -21.365  0.00  0.00    -0.000 C 
ATOM     36  C   UNL     1      32.856 -20.405 -20.522  0.00  0.00    -0.000 C 
ATOM     37  C   UNL     1      35.575 -18.422 -22.118  0.00  0.00    -0.000 C 
ATOM     38  C   UNL     1      37.680 -18.979 -21.075  0.00  0.00    -0.000 C 
ATOM     39  C   UNL     1      36.956 -18.254 -22.016  0.00  0.00    -0.000 C 
ENDBRANCH  29  30
ENDBRANCH   6  29
TORSDOF 9
ENDMDL
MODEL 2
REMARK VINA RESULT:     -10.6      3.901      6.701
REMARK  Name = 46937134
REMARK  9 active torsions:
REMARK  status: ('A' for Active; 'I' for Inactive)
REMARK    1  A    between atoms: N_2  and  C_15
REMARK    2  A    between atoms: N_6  and  C_29
REMARK    3  A    between atoms: C_16  and  O_19
REMARK    4  A    between atoms: C_18  and  C_21
REMARK    5  A    between atoms: C_21  and  O_22
REMARK    6  A    between atoms: O_22  and  P_23
REMARK    7  A    between atoms: P_23  and  O_25
REMARK    8  A    between atoms: P_23  and  O_27
REMARK    9  A    between atoms: C_29  and  C_30
REMARK                            x       y       z     vdW  Elec       q    Type
REMARK                         _______ _______ _______ _____ _____    ______ ____
ROOT
ATOM      1  O   UNL     1      31.808 -20.535 -20.715  0.00  0.00    -0.208 OA
ATOM      2  N   UNL     1      34.855 -22.217 -17.832  0.00  0.00    -0.209 NA
ATOM      3  N   UNL     1      35.684 -20.669 -19.516  0.00  0.00    -0.279 N 
ATOM      4  N   UNL     1      32.696 -22.189 -18.443  0.00  0.00    -0.241 NA
ATOM      5  N   UNL     1      33.996 -19.829 -21.003  0.00  0.00    -0.301 NA
ATOM      6  N   UNL     1      36.237 -19.198 -21.179  0.00  0.00    -0.292 N 
ATOM      7  C   UNL     1      34.743 -21.381 -18.890  0.00  0.00    +0.191 C 
ATOM      8  C   UNL     1      33.582 -22.685 -17.596  0.00  0.00    +0.205 C 
ATOM      9  C   UNL     1      33.428 -21.370 -19.255  0.00  0.00    +0.183 C 
ATOM     10  C   UNL     1      35.248 -19.893 -20.588  0.00  0.00    +0.248 C 
ATOM     11  C   UNL     1      32.983 -20.560 -20.371  0.00  0.00    +0.224 C 
ATOM     12  H   UNL     1      36.628 -20.691 -19.236  0.00  0.00    +0.152 HD
ATOM     13  H   UNL     1      37.152 -19.288 -20.825  0.00  0.00    +0.151 HD
ENDROOT
BRANCH   2  15
ATOM     14  O   UNL     1      35.872 -23.670 -16.149  0.00  0.00    -0.338 OA
ATOM     15  C   UNL     1      36.099 -22.577 -17.059  0.00  0.00    +0.182 C 
ATOM     16  C   UNL     1      37.392 -22.150 -15.131  0.00  0.00    +0.144 C 
ATOM     17  C   UNL     1      36.635 -21.422 -16.218  0.00  0.00    +0.079 C 
ATOM     18  C   UNL     1      36.551 -23.400 -14.905  0.00  0.00    +0.174 C 
BRANCH  16  19
ATOM     19  O   UNL     1      38.671 -22.520 -15.642  0.00  0.00    -0.382 OA
ATOM     20  H   UNL     1      39.133 -23.069 -14.988  0.00  0.00    +0.210 HD
ENDBRANCH  16  19
BRANCH  18  21
ATOM     21  C   UNL     1      35.494 -23.211 -13.825  0.00  0.00    +0.186 C 
BRANCH  21  22
ATOM     22  O   UNL     1      36.113 -23.347 -12.557  0.00  0.00    -0.271 OA
BRANCH  22  23
ATOM     23  P   UNL     1      35.702 -24.608 -11.629  0.00  0.00    +0.473 P 
ATOM     24  O   UNL     1      36.058 -24.468 -10.178  0.00  0.00    -0.227 OA
BRANCH  23  25
ATOM     25  O   UNL     1      34.124 -24.781 -11.932  0.00  0.00    -0.303 OA
ATOM     26  H   UNL     1      33.629 -24.752 -11.097  0.00  0.00    +0.222 HD
ENDBRANCH  23  25
BRANCH  23  27
ATOM     27  O   UNL     1      36.368 -25.873 -12.386  0.00  0.00    -0.303 OA
ATOM     28  H   UNL     1      36.206 -26.679 -11.871  0.00  0.00    +0.222 HD
ENDBRANCH  23  27
ENDBRANCH  22  23
ENDBRANCH  21  22
ENDBRANCH  18  21
ENDBRANCH   2  15
BRANCH   6  29
ATOM     29  C   UNL     1      36.019 -18.326 -22.311  0.00  0.00    +0.117 C 
BRANCH  29  30
ATOM     30  C   UNL     1      35.375 -17.045 -21.877  0.00  0.00    -0.003 C 
ATOM     31  C   UNL     1      34.729 -16.192 -22.786  0.00  0.00    -0.002 C 
ATOM     32  C   UNL     1      34.141 -14.994 -22.314  0.00  0.00    -0.000 C 
ATOM     33  C   UNL     1      35.439 -16.724 -20.522  0.00  0.00    -0.003 C 
ATOM     34  C   UNL     1      34.655 -16.499 -24.155  0.00  0.00    -0.000 C 
ATOM     35  C   UNL     1      34.216 -14.686 -20.946  0.00  0.00    -0.000 C 
ATOM     36  C   UNL     1      34.861 -15.547 -20.057  0.00  0.00    -0.000 C 
ATOM     37  C   UNL     1      33.496 -14.140 -23.223  0.00  0.00    -0.000 C 
ATOM     38  C   UNL     1      34.011 -15.639 -25.044  0.00  0.00    -0.000 C 
ATOM     39  C   UNL     1      33.432 -14.462 -24.578  0.00  0.00    -0.000 C 
ENDBRANCH  29  30
ENDBRANCH   6  29
TORSDOF 9
ENDMDL
MODEL 3
REMARK VINA RESULT:     -10.5      3.141      6.499
REMARK  Name = 46937134
REMARK  9 active torsions:
REMARK  status: ('A' for Active; 'I' for Inactive)
REMARK    1  A    between atoms: N_2  and  C_15
REMARK    2  A    between atoms: N_6  and  C_29
REMARK    3  A    between atoms: C_16  and  O_19
REMARK    4  A    between atoms: C_18  and  C_21
REMARK    5  A    between atoms: C_21  and  O_22
REMARK    6  A    between atoms: O_22  and  P_23
REMARK    7  A    between atoms: P_23  and  O_25
REMARK    8  A    between atoms: P_23  and  O_27
REMARK    9  A    between atoms: C_29  and  C_30
REMARK                            x       y       z     vdW  Elec       q    Type
REMARK                         _______ _______ _______ _____ _____    ______ ____
ROOT
ATOM      1  O   UNL     1      30.652 -23.493 -16.312  0.00  0.00    -0.208 OA
ATOM      2  N   UNL     1      34.140 -23.945 -13.473  0.00  0.00    -0.209 NA
ATOM      3  N   UNL     1      34.632 -23.024 -15.670  0.00  0.00    -0.279 N 
ATOM      4  N   UNL     1      31.933 -24.231 -13.761  0.00  0.00    -0.241 NA
ATOM      5  N   UNL     1      32.722 -22.821 -17.109  0.00  0.00    -0.301 NA
ATOM      6  N   UNL     1      34.863 -22.181 -17.785  0.00  0.00    -0.292 N 
ATOM      7  C   UNL     1      33.835 -23.525 -14.723  0.00  0.00    +0.191 C 
ATOM      8  C   UNL     1      32.948 -24.366 -12.926  0.00  0.00    +0.205 C 
ATOM      9  C   UNL     1      32.493 -23.702 -14.890  0.00  0.00    +0.183 C 
ATOM     10  C   UNL     1      34.012 -22.681 -16.869  0.00  0.00    +0.248 C 
ATOM     11  C   UNL     1      31.855 -23.343 -16.140  0.00  0.00    +0.224 C 
ATOM     12  H   UNL     1      35.600 -22.904 -15.529  0.00  0.00    +0.152 HD
ATOM     13  H   UNL     1      35.815 -22.101 -17.548  0.00  0.00    +0.151 HD
ENDROOT
BRANCH   2  15
ATOM     14  O   UNL     1      36.567 -24.061 -13.748  0.00  0.00    -0.338 OA
ATOM     15  C   UNL     1      35.488 -23.960 -12.799  0.00  0.00    +0.182 C 
ATOM     16  C   UNL     1      37.161 -25.295 -11.804  0.00  0.00    +0.144 C 
ATOM     17  C   UNL     1      35.660 -25.125 -11.829  0.00  0.00    +0.079 C 
ATOM     18  C   UNL     1      37.567 -24.964 -13.235  0.00  0.00    +0.174 C 
BRANCH  16  19
ATOM     19  O   UNL     1      37.711 -24.327 -10.914  0.00  0.00    -0.382 OA
ATOM     20  H   UNL     1      38.644 -24.176 -11.138  0.00  0.00    +0.210 HD
ENDBRANCH  16  19
BRANCH  18  21
ATOM     21  C   UNL     1      37.599 -26.191 -14.137  0.00  0.00    +0.186 C 
BRANCH  21  22
ATOM     22  O   UNL     1      38.827 -26.870 -13.935  0.00  0.00    -0.271 OA
BRANCH  22  23
ATOM     23  P   UNL     1      40.207 -26.059 -14.179  0.00  0.00    +0.473 P 
ATOM     24  O   UNL     1      40.320 -24.762 -13.433  0.00  0.00    -0.227 OA
BRANCH  23  25
ATOM     25  O   UNL     1      41.339 -27.156 -13.819  0.00  0.00    -0.303 OA
ATOM     26  H   UNL     1      42.002 -26.756 -13.233  0.00  0.00    +0.222 HD
ENDBRANCH  23  25
BRANCH  23  27
ATOM     27  O   UNL     1      40.302 -25.941 -15.789  0.00  0.00    -0.303 OA
ATOM     28  H   UNL     1      41.095 -26.403 -16.101  0.00  0.00    +0.222 HD
ENDBRANCH  23  27
ENDBRANCH  22  23
ENDBRANCH  21  22
ENDBRANCH  18  21
ENDBRANCH   2  15
BRANCH   6  29
ATOM     29  C   UNL     1      34.442 -21.758 -19.101  0.00  0.00    +0.117 C 
BRANCH  29  30
ATOM     30  C   UNL     1      35.414 -20.777 -19.679  0.00  0.00    -0.003 C 
ATOM     31  C   UNL     1      35.135 -20.053 -20.850  0.00  0.00    -0.002 C 
ATOM     32  C   UNL     1      36.096 -19.141 -21.346  0.00  0.00    -0.000 C 
ATOM     33  C   UNL     1      36.623 -20.602 -19.006  0.00  0.00    -0.003 C 
ATOM     34  C   UNL     1      33.923 -20.216 -21.540  0.00  0.00    -0.000 C 
ATOM     35  C   UNL     1      37.309 -18.979 -20.657  0.00  0.00    -0.000 C 
ATOM     36  C   UNL     1      37.569 -19.705 -19.494  0.00  0.00    -0.000 C 
ATOM     37  C   UNL     1      35.818 -18.418 -22.518  0.00  0.00    -0.000 C 
ATOM     38  C   UNL     1      33.662 -19.490 -22.703  0.00  0.00    -0.000 C 
ATOM     39  C   UNL     1      34.608 -18.593 -23.190  0.00  0.00    -0.000 C 
ENDBRANCH  29  30
ENDBRANCH   6  29
TORSDOF 9
ENDMDL
MODEL 4
REMARK VINA RESULT:     -10.4      2.428      5.477
REMARK  Name = 46937134
REMARK  9 active torsions:
REMARK  status: ('A' for Active; 'I' for Inactive)
REMARK    1  A    between atoms: N_2  and  C_15
REMARK    2  A    between atoms: N_6  and  C_29
REMARK    3  A    between atoms: C_16  and  O_19
REMARK    4  A    between atoms: C_18  and  C_21
REMARK    5  A    between atoms: C_21  and  O_22
REMARK    6  A    between atoms: O_22  and  P_23
REMARK    7  A    between atoms: P_23  and  O_25
REMARK    8  A    between atoms: P_23  and  O_27
REMARK    9  A    between atoms: C_29  and  C_30
REMARK                            x       y       z     vdW  Elec       q    Type
REMARK                         _______ _______ _______ _____ _____    ______ ____
ROOT
ATOM      1  O   UNL     1      29.565 -22.541 -16.513  0.00  0.00    -0.208 OA
ATOM      2  N   UNL     1      32.622 -24.366 -13.730  0.00  0.00    -0.209 NA
ATOM      3  N   UNL     1      33.464 -23.423 -15.808  0.00  0.00    -0.279 N 
ATOM      4  N   UNL     1      30.450 -23.909 -14.056  0.00  0.00    -0.241 NA
ATOM      5  N   UNL     1      31.770 -22.478 -17.223  0.00  0.00    -0.301 NA
ATOM      6  N   UNL     1      34.028 -22.479 -17.815  0.00  0.00    -0.292 N 
ATOM      7  C   UNL     1      32.513 -23.744 -14.926  0.00  0.00    +0.191 C 
ATOM      8  C   UNL     1      31.339 -24.445 -13.238  0.00  0.00    +0.205 C 
ATOM      9  C   UNL     1      31.191 -23.469 -15.116  0.00  0.00    +0.183 C 
ATOM     10  C   UNL     1      33.029 -22.778 -16.963  0.00  0.00    +0.248 C 
ATOM     11  C   UNL     1      30.747 -22.798 -16.322  0.00  0.00    +0.224 C 
ATOM     12  H   UNL     1      34.414 -23.630 -15.651  0.00  0.00    +0.152 HD
ATOM     13  H   UNL     1      34.947 -22.729 -17.567  0.00  0.00    +0.151 HD
ENDROOT
BRANCH   2  15
ATOM     14  O   UNL     1      34.484 -23.876 -12.223  0.00  0.00    -0.338 OA
ATOM     15  C   UNL     1      33.871 -24.877 -13.057  0.00  0.00    +0.182 C 
ATOM     16  C   UNL     1      36.207 -25.167 -13.233  0.00  0.00    +0.144 C 
ATOM     17  C   UNL     1      34.942 -25.327 -14.045  0.00  0.00    +0.079 C 
ATOM     18  C   UNL     1      35.916 -23.935 -12.385  0.00  0.00    +0.174 C 
BRANCH  16  19
ATOM     19  O   UNL     1      36.348 -26.307 -12.388  0.00  0.00    -0.382 OA
ATOM     20  H   UNL     1      37.067 -26.869 -12.721  0.00  0.00    +0.210 HD
ENDBRANCH  16  19
BRANCH  18  21
ATOM     21  C   UNL     1      36.367 -22.643 -13.052  0.00  0.00    +0.186 C 
BRANCH  21  22
ATOM     22  O   UNL     1      37.593 -22.882 -13.722  0.00  0.00    -0.271 OA
BRANCH  22  23
ATOM     23  P   UNL     1      37.625 -22.774 -15.337  0.00  0.00    +0.473 P 
ATOM     24  O   UNL     1      36.388 -23.266 -16.029  0.00  0.00    -0.227 OA
BRANCH  23  25
ATOM     25  O   UNL     1      37.975 -21.216 -15.589  0.00  0.00    -0.303 OA
ATOM     26  H   UNL     1      37.690 -20.961 -16.481  0.00  0.00    +0.222 HD
ENDBRANCH  23  25
BRANCH  23  27
ATOM     27  O   UNL     1      38.994 -23.534 -15.744  0.00  0.00    -0.303 OA
ATOM     28  H   UNL     1      39.747 -22.938 -15.610  0.00  0.00    +0.222 HD
ENDBRANCH  23  27
ENDBRANCH  22  23
ENDBRANCH  21  22
ENDBRANCH  18  21
ENDBRANCH   2  15
BRANCH   6  29
ATOM     29  C   UNL     1      33.813 -21.809 -19.077  0.00  0.00    +0.117 C 
BRANCH  29  30
ATOM     30  C   UNL     1      35.010 -20.995 -19.457  0.00  0.00    -0.003 C 
ATOM     31  C   UNL     1      35.015 -20.159 -20.585  0.00  0.00    -0.002 C 
ATOM     32  C   UNL     1      36.180 -19.415 -20.892  0.00  0.00    -0.000 C 
ATOM     33  C   UNL     1      36.137 -21.094 -18.641  0.00  0.00    -0.003 C 
ATOM     34  C   UNL     1      33.890 -20.046 -21.418  0.00  0.00    -0.000 C 
ATOM     35  C   UNL     1      37.305 -19.529 -20.060  0.00  0.00    -0.000 C 
ATOM     36  C   UNL     1      37.282 -20.364 -18.941  0.00  0.00    -0.000 C 
ATOM     37  C   UNL     1      36.185 -18.580 -22.021  0.00  0.00    -0.000 C 
ATOM     38  C   UNL     1      33.912 -19.211 -22.536  0.00  0.00    -0.000 C 
ATOM     39  C   UNL     1      35.057 -18.480 -22.836  0.00  0.00    -0.000 C 
ENDBRANCH  29  30
ENDBRANCH   6  29
TORSDOF 9
ENDMDL
MODEL 5
REMARK VINA RESULT:     -10.1      2.935      5.921
REMARK  Name = 46937134
REMARK  9 active torsions:
REMARK  status: ('A' for Active; 'I' for Inactive)
REMARK    1  A    between atoms: N_2  and  C_15
REMARK    2  A    between atoms: N_6  and  C_29
REMARK    3  A    between atoms: C_16  and  O_19
REMARK    4  A    between atoms: C_18  and  C_21
REMARK    5  A    between atoms: C_21  and  O_22
REMARK    6  A    between atoms: O_22  and  P_23
REMARK    7  A    between atoms: P_23  and  O_25
REMARK    8  A    between atoms: P_23  and  O_27
REMARK    9  A    between atoms: C_29  and  C_30
REMARK                            x       y       z     vdW  Elec       q    Type
REMARK                         _______ _______ _______ _____ _____    ______ ____
ROOT
ATOM      1  O   UNL     1      31.318 -22.603 -15.799  0.00  0.00    -0.208 OA
ATOM      2  N   UNL     1      35.145 -24.767 -14.753  0.00  0.00    -0.209 NA
ATOM      3  N   UNL     1      35.154 -23.465 -16.808  0.00  0.00    -0.279 N 
ATOM      4  N   UNL     1      33.032 -24.331 -14.136  0.00  0.00    -0.241 NA
ATOM      5  N   UNL     1      33.081 -22.353 -17.283  0.00  0.00    -0.301 NA
ATOM      6  N   UNL     1      34.935 -22.184 -18.691  0.00  0.00    -0.292 N 
ATOM      7  C   UNL     1      34.606 -23.958 -15.693  0.00  0.00    +0.191 C 
ATOM      8  C   UNL     1      34.149 -24.967 -13.824  0.00  0.00    +0.205 C 
ATOM      9  C   UNL     1      33.323 -23.698 -15.312  0.00  0.00    +0.183 C 
ATOM     10  C   UNL     1      34.331 -22.652 -17.583  0.00  0.00    +0.248 C 
ATOM     11  C   UNL     1      32.473 -22.850 -16.124  0.00  0.00    +0.224 C 
ATOM     12  H   UNL     1      36.084 -23.666 -17.065  0.00  0.00    +0.152 HD
ATOM     13  H   UNL     1      35.870 -22.443 -18.861  0.00  0.00    +0.151 HD
ENDROOT
BRANCH   2  15
ATOM     14  O   UNL     1      36.762 -26.127 -13.520  0.00  0.00    -0.338 OA
ATOM     15  C   UNL     1      36.538 -25.342 -14.707  0.00  0.00    +0.182 C 
ATOM     16  C   UNL     1      38.779 -24.987 -14.056  0.00  0.00    +0.144 C 
ATOM     17  C   UNL     1      37.628 -24.275 -14.727  0.00  0.00    +0.079 C 
ATOM     18  C   UNL     1      38.084 -25.855 -13.014  0.00  0.00    +0.174 C 
BRANCH  16  19
ATOM     19  O   UNL     1      39.420 -25.819 -15.020  0.00  0.00    -0.382 OA
ATOM     20  H   UNL     1      40.239 -26.178 -14.643  0.00  0.00    +0.210 HD
ENDBRANCH  16  19
BRANCH  18  21
ATOM     21  C   UNL     1      37.937 -25.155 -11.669  0.00  0.00    +0.186 C 
BRANCH  21  22
ATOM     22  O   UNL     1      36.632 -25.396 -11.173  0.00  0.00    -0.271 OA
BRANCH  22  23
ATOM     23  P   UNL     1      35.907 -24.236 -10.308  0.00  0.00    +0.473 P 
ATOM     24  O   UNL     1      35.306 -24.694  -9.012  0.00  0.00    -0.227 OA
BRANCH  23  25
ATOM     25  O   UNL     1      37.063 -23.115 -10.166  0.00  0.00    -0.303 OA
ATOM     26  H   UNL     1      36.731 -22.373  -9.636  0.00  0.00    +0.222 HD
ENDBRANCH  23  25
BRANCH  23  27
ATOM     27  O   UNL     1      34.869 -23.570 -11.355  0.00  0.00    -0.303 OA
ATOM     28  H   UNL     1      35.109 -22.642 -11.502  0.00  0.00    +0.222 HD
ENDBRANCH  23  27
ENDBRANCH  22  23
ENDBRANCH  21  22
ENDBRANCH  18  21
ENDBRANCH   2  15
BRANCH   6  29
ATOM     29  C   UNL     1      34.274 -21.321 -19.643  0.00  0.00    +0.117 C 
BRANCH  29  30
ATOM     30  C   UNL     1      35.246 -20.360 -20.252  0.00  0.00    -0.003 C 
ATOM     31  C   UNL     1      34.977 -19.692 -21.458  0.00  0.00    -0.002 C 
ATOM     32  C   UNL     1      35.939 -18.796 -21.984  0.00  0.00    -0.000 C 
ATOM     33  C   UNL     1      36.445 -20.144 -19.573  0.00  0.00    -0.003 C 
ATOM     34  C   UNL     1      33.776 -19.896 -22.156  0.00  0.00    -0.000 C 
ATOM     35  C   UNL     1      37.140 -18.593 -21.286  0.00  0.00    -0.000 C 
ATOM     36  C   UNL     1      37.391 -19.263 -20.088  0.00  0.00    -0.000 C 
ATOM     37  C   UNL     1      35.670 -18.129 -23.190  0.00  0.00    -0.000 C 
ATOM     38  C   UNL     1      33.525 -19.226 -23.354  0.00  0.00    -0.000 C 
ATOM     39  C   UNL     1      34.470 -18.344 -23.869  0.00  0.00    -0.000 C 
ENDBRANCH  29  30
ENDBRANCH   6  29
TORSDOF 9
ENDMDL
MODEL 6
REMARK VINA RESULT:     -10.0      3.143      6.536
REMARK  Name = 46937134
REMARK  9 active torsions:
REMARK  status: ('A' for Active; 'I' for Inactive)
REMARK    1  A    between atoms: N_2  and  C_15
REMARK    2  A    between atoms: N_6  and  C_29
REMARK    3  A    between atoms: C_16  and  O_19
REMARK    4  A    between atoms: C_18  and  C_21
REMARK    5  A    between atoms: C_21  and  O_22
REMARK    6  A    between atoms: O_22  and  P_23
REMARK    7  A    between atoms: P_23  and  O_25
REMARK    8  A    between atoms: P_23  and  O_27
REMARK    9  A    between atoms: C_29  and  C_30
REMARK                            x       y       z     vdW  Elec       q    Type
REMARK                         _______ _______ _______ _____ _____    ______ ____
ROOT
ATOM      1  O   UNL     1      30.574 -24.187 -15.280  0.00  0.00    -0.208 OA
ATOM      2  N   UNL     1      34.408 -23.559 -12.972  0.00  0.00    -0.209 NA
ATOM      3  N   UNL     1      34.529 -23.282 -15.385  0.00  0.00    -0.279 N 
ATOM      4  N   UNL     1      32.226 -24.066 -12.842  0.00  0.00    -0.241 NA
ATOM      5  N   UNL     1      32.447 -23.636 -16.527  0.00  0.00    -0.301 NA
ATOM      6  N   UNL     1      34.410 -23.074 -17.661  0.00  0.00    -0.292 N 
ATOM      7  C   UNL     1      33.911 -23.541 -14.230  0.00  0.00    +0.191 C 
ATOM      8  C   UNL     1      33.344 -23.884 -12.161  0.00  0.00    +0.205 C 
ATOM      9  C   UNL     1      32.585 -23.849 -14.142  0.00  0.00    +0.183 C 
ATOM     10  C   UNL     1      33.735 -23.344 -16.528  0.00  0.00    +0.248 C 
ATOM     11  C   UNL     1      31.766 -23.912 -15.336  0.00  0.00    +0.224 C 
ATOM     12  H   UNL     1      35.489 -23.061 -15.427  0.00  0.00    +0.152 HD
ATOM     13  H   UNL     1      35.369 -22.864 -17.598  0.00  0.00    +0.151 HD
ENDROOT
BRANCH   2  15
ATOM     14  O   UNL     1      36.751 -23.307 -13.627  0.00  0.00    -0.338 OA
ATOM     15  C   UNL     1      35.823 -23.286 -12.526  0.00  0.00    +0.182 C 
ATOM     16  C   UNL     1      37.832 -24.224 -11.717  0.00  0.00    +0.144 C 
ATOM     17  C   UNL     1      36.337 -24.303 -11.511  0.00  0.00    +0.079 C 
ATOM     18  C   UNL     1      37.959 -23.979 -13.215  0.00  0.00    +0.174 C 
BRANCH  16  19
ATOM     19  O   UNL     1      38.327 -23.094 -11.003  0.00  0.00    -0.382 OA
ATOM     20  H   UNL     1      37.814 -22.976 -10.188  0.00  0.00    +0.210 HD
ENDBRANCH  16  19
BRANCH  18  21
ATOM     21  C   UNL     1      38.074 -25.270 -14.015  0.00  0.00    +0.186 C 
BRANCH  21  22
ATOM     22  O   UNL     1      39.102 -26.064 -13.448  0.00  0.00    -0.271 OA
BRANCH  22  23
ATOM     23  P   UNL     1      40.566 -26.040 -14.139  0.00  0.00    +0.473 P 
ATOM     24  O   UNL     1      41.474 -27.166 -13.738  0.00  0.00    -0.227 OA
BRANCH  23  25
ATOM     25  O   UNL     1      40.221 -25.970 -15.717  0.00  0.00    -0.303 OA
ATOM     26  H   UNL     1      40.300 -25.052 -16.024  0.00  0.00    +0.222 HD
ENDBRANCH  23  25
BRANCH  23  27
ATOM     27  O   UNL     1      41.119 -24.556 -13.812  0.00  0.00    -0.303 OA
ATOM     28  H   UNL     1      40.651 -24.199 -13.041  0.00  0.00    +0.222 HD
ENDBRANCH  23  27
ENDBRANCH  22  23
ENDBRANCH  21  22
ENDBRANCH  18  21
ENDBRANCH   2  15
BRANCH   6  29
ATOM     29  C   UNL     1      33.789 -23.079 -18.966  0.00  0.00    +0.117 C 
BRANCH  29  30
ATOM     30  C   UNL     1      33.767 -21.700 -19.549  0.00  0.00    -0.003 C 
ATOM     31  C   UNL     1      34.945 -20.985 -19.816  0.00  0.00    -0.002 C 
ATOM     32  C   UNL     1      34.856 -19.684 -20.367  0.00  0.00    -0.000 C 
ATOM     33  C   UNL     1      32.518 -21.142 -19.823  0.00  0.00    -0.003 C 
ATOM     34  C   UNL     1      36.211 -21.531 -19.547  0.00  0.00    -0.000 C 
ATOM     35  C   UNL     1      33.591 -19.138 -20.635  0.00  0.00    -0.000 C 
ATOM     36  C   UNL     1      32.430 -19.863 -20.364  0.00  0.00    -0.000 C 
ATOM     37  C   UNL     1      36.035 -18.968 -20.633  0.00  0.00    -0.000 C 
ATOM     38  C   UNL     1      37.372 -20.806 -19.818  0.00  0.00    -0.000 C 
ATOM     39  C   UNL     1      37.283 -19.528 -20.360  0.00  0.00    -0.000 C 
ENDBRANCH  29  30
ENDBRANCH   6  29
TORSDOF 9
ENDMDL
MODEL 7
REMARK VINA RESULT:      -9.6     11.422     14.549
REMARK  Name = 46937134
REMARK  9 active torsions:
REMARK  status: ('A' for Active; 'I' for Inactive)
REMARK    1  A    between atoms: N_2  and  C_15
REMARK    2  A    between atoms: N_6  and  C_29
REMARK    3  A    between atoms: C_16  and  O_19
REMARK    4  A    between atoms: C_18  and  C_21
REMARK    5  A    between atoms: C_21  and  O_22
REMARK    6  A    between atoms: O_22  and  P_23
REMARK    7  A    between atoms: P_23  and  O_25
REMARK    8  A    between atoms: P_23  and  O_27
REMARK    9  A    between atoms: C_29  and  C_30
REMARK                            x       y       z     vdW  Elec       q    Type
REMARK                         _______ _______ _______ _____ _____    ______ ____
ROOT
ATOM      1  O   UNL     1      31.821  -9.022 -18.327  0.00  0.00    -0.208 OA
ATOM      2  N   UNL     1      32.256 -12.276 -21.434  0.00  0.00    -0.209 NA
ATOM      3  N   UNL     1      31.792 -10.035 -22.258  0.00  0.00    -0.279 N 
ATOM      4  N   UNL     1      32.285 -11.785 -19.244  0.00  0.00    -0.241 NA
ATOM      5  N   UNL     1      31.576  -8.373 -20.539  0.00  0.00    -0.301 NA
ATOM      6  N   UNL     1      31.355  -7.856 -22.805  0.00  0.00    -0.292 N 
ATOM      7  C   UNL     1      32.015 -10.950 -21.311  0.00  0.00    +0.191 C 
ATOM      8  C   UNL     1      32.413 -12.741 -20.148  0.00  0.00    +0.205 C 
ATOM      9  C   UNL     1      32.035 -10.660 -19.979  0.00  0.00    +0.183 C 
ATOM     10  C   UNL     1      31.574  -8.735 -21.809  0.00  0.00    +0.248 C 
ATOM     11  C   UNL     1      31.807  -9.305 -19.519  0.00  0.00    +0.224 C 
ATOM     12  H   UNL     1      31.782 -10.265 -23.216  0.00  0.00    +0.152 HD
ATOM     13  H   UNL     1      31.365  -8.185 -23.732  0.00  0.00    +0.151 HD
ENDROOT
BRANCH   2  15
ATOM     14  O   UNL     1      32.708 -14.461 -22.435  0.00  0.00    -0.338 OA
ATOM     15  C   UNL     1      32.338 -13.094 -22.698  0.00  0.00    +0.182 C 
ATOM     16  C   UNL     1      33.709 -13.795 -24.487  0.00  0.00    +0.144 C 
ATOM     17  C   UNL     1      33.361 -12.556 -23.694  0.00  0.00    +0.079 C 
ATOM     18  C   UNL     1      33.642 -14.901 -23.441  0.00  0.00    +0.174 C 
BRANCH  16  19
ATOM     19  O   UNL     1      32.696 -14.003 -25.468  0.00  0.00    -0.382 OA
ATOM     20  H   UNL     1      32.180 -13.188 -25.578  0.00  0.00    +0.210 HD
ENDBRANCH  16  19
BRANCH  18  21
ATOM     21  C   UNL     1      34.982 -15.149 -22.761  0.00  0.00    +0.186 C 
BRANCH  21  22
ATOM     22  O   UNL     1      35.441 -16.440 -23.123  0.00  0.00    -0.271 OA
BRANCH  22  23
ATOM     23  P   UNL     1      35.514 -17.583 -21.979  0.00  0.00    +0.473 P 
ATOM     24  O   UNL     1      35.142 -17.123 -20.599  0.00  0.00    -0.227 OA
BRANCH  23  25
ATOM     25  O   UNL     1      34.581 -18.758 -22.581  0.00  0.00    -0.303 OA
ATOM     26  H   UNL     1      33.942 -18.376 -23.204  0.00  0.00    +0.222 HD
ENDBRANCH  23  25
BRANCH  23  27
ATOM     27  O   UNL     1      37.010 -18.181 -22.129  0.00  0.00    -0.303 OA
ATOM     28  H   UNL     1      37.388 -17.896 -22.975  0.00  0.00    +0.222 HD
ENDBRANCH  23  27
ENDBRANCH  22  23
ENDBRANCH  21  22
ENDBRANCH  18  21
ENDBRANCH   2  15
BRANCH   6  29
ATOM     29  C   UNL     1      31.106  -6.452 -22.574  0.00  0.00    +0.117 C 
BRANCH  29  30
ATOM     30  C   UNL     1      31.618  -5.627 -23.714  0.00  0.00    -0.003 C 
ATOM     31  C   UNL     1      32.957  -5.687 -24.135  0.00  0.00    -0.002 C 
ATOM     32  C   UNL     1      33.379  -4.882 -25.219  0.00  0.00    -0.000 C 
ATOM     33  C   UNL     1      30.709  -4.786 -24.356  0.00  0.00    -0.003 C 
ATOM     34  C   UNL     1      33.887  -6.528 -23.502  0.00  0.00    -0.000 C 
ATOM     35  C   UNL     1      32.450  -4.040 -25.851  0.00  0.00    -0.000 C 
ATOM     36  C   UNL     1      31.123  -3.994 -25.422  0.00  0.00    -0.000 C 
ATOM     37  C   UNL     1      34.718  -4.941 -25.639  0.00  0.00    -0.000 C 
ATOM     38  C   UNL     1      35.213  -6.575 -23.931  0.00  0.00    -0.000 C 
ATOM     39  C   UNL     1      35.627  -5.783 -24.998  0.00  0.00    -0.000 C 
ENDBRANCH  29  30
ENDBRANCH   6  29
TORSDOF 9
ENDMDL
MODEL 8
REMARK VINA RESULT:      -9.4     13.042     16.521
REMARK  Name = 46937134
REMARK  9 active torsions:
REMARK  status: ('A' for Active; 'I' for Inactive)
REMARK    1  A    between atoms: N_2  and  C_15
REMARK    2  A    between atoms: N_6  and  C_29
REMARK    3  A    between atoms: C_16  and  O_19
REMARK    4  A    between atoms: C_18  and  C_21
REMARK    5  A    between atoms: C_21  and  O_22
REMARK    6  A    between atoms: O_22  and  P_23
REMARK    7  A    between atoms: P_23  and  O_25
REMARK    8  A    between atoms: P_23  and  O_27
REMARK    9  A    between atoms: C_29  and  C_30
REMARK                            x       y       z     vdW  Elec       q    Type
REMARK                         _______ _______ _______ _____ _____    ______ ____
ROOT
ATOM      1  O   UNL     1      31.596  -9.091 -18.764  0.00  0.00    -0.208 OA
ATOM      2  N   UNL     1      32.895  -6.622 -22.320  0.00  0.00    -0.209 NA
ATOM      3  N   UNL     1      32.664  -9.016 -22.680  0.00  0.00    -0.279 N 
ATOM      4  N   UNL     1      32.314  -6.591 -20.153  0.00  0.00    -0.241 NA
ATOM      5  N   UNL     1      31.972 -10.246 -20.738  0.00  0.00    -0.301 NA
ATOM      6  N   UNL     1      32.383 -11.284 -22.788  0.00  0.00    -0.292 N 
ATOM      7  C   UNL     1      32.622  -7.895 -21.955  0.00  0.00    +0.191 C 
ATOM      8  C   UNL     1      32.694  -5.863 -21.189  0.00  0.00    +0.205 C 
ATOM      9  C   UNL     1      32.269  -7.868 -20.637  0.00  0.00    +0.183 C 
ATOM     10  C   UNL     1      32.323 -10.188 -22.009  0.00  0.00    +0.248 C 
ATOM     11  C   UNL     1      31.916  -9.092 -19.946  0.00  0.00    +0.224 C 
ATOM     12  H   UNL     1      32.921  -9.014 -23.631  0.00  0.00    +0.152 HD
ATOM     13  H   UNL     1      32.652 -11.178 -23.729  0.00  0.00    +0.151 HD
ENDROOT
BRANCH   2  15
ATOM     14  O   UNL     1      33.079  -4.704 -23.827  0.00  0.00    -0.338 OA
ATOM     15  C   UNL     1      33.330  -6.114 -23.672  0.00  0.00    +0.182 C 
ATOM     16  C   UNL     1      32.707  -5.767 -25.922  0.00  0.00    +0.144 C 
ATOM     17  C   UNL     1      32.617  -6.807 -24.829  0.00  0.00    +0.079 C 
ATOM     18  C   UNL     1      32.582  -4.455 -25.157  0.00  0.00    +0.174 C 
BRANCH  16  19
ATOM     19  O   UNL     1      33.999  -5.850 -26.520  0.00  0.00    -0.382 OA
ATOM     20  H   UNL     1      33.951  -6.404 -27.316  0.00  0.00    +0.210 HD
ENDBRANCH  16  19
BRANCH  18  21
ATOM     21  C   UNL     1      31.140  -3.979 -25.038  0.00  0.00    +0.186 C 
BRANCH  21  22
ATOM     22  O   UNL     1      31.121  -2.776 -24.289  0.00  0.00    -0.271 OA
BRANCH  22  23
ATOM     23  P   UNL     1      30.570  -2.822 -22.767  0.00  0.00    +0.473 P 
ATOM     24  O   UNL     1      29.401  -1.922 -22.489  0.00  0.00    -0.227 OA
BRANCH  23  25
ATOM     25  O   UNL     1      30.290  -4.397 -22.532  0.00  0.00    -0.303 OA
ATOM     26  H   UNL     1      29.885  -4.776 -23.329  0.00  0.00    +0.222 HD
ENDBRANCH  23  25
BRANCH  23  27
ATOM     27  O   UNL     1      31.888  -2.540 -21.874  0.00  0.00    -0.303 OA
ATOM     28  H   UNL     1      31.628  -2.127 -21.036  0.00  0.00    +0.222 HD
ENDBRANCH  23  27
ENDBRANCH  22  23
ENDBRANCH  21  22
ENDBRANCH  18  21
ENDBRANCH   2  15
BRANCH   6  29
ATOM     29  C   UNL     1      32.071 -12.610 -22.305  0.00  0.00    +0.117 C 
BRANCH  29  30
ATOM     30  C   UNL     1      32.874 -13.643 -23.034  0.00  0.00    -0.003 C 
ATOM     31  C   UNL     1      33.691 -14.564 -22.359  0.00  0.00    -0.002 C 
ATOM     32  C   UNL     1      34.426 -15.515 -23.106  0.00  0.00    -0.000 C 
ATOM     33  C   UNL     1      32.782 -13.661 -24.426  0.00  0.00    -0.003 C 
ATOM     34  C   UNL     1      33.797 -14.562 -20.959  0.00  0.00    -0.000 C 
ATOM     35  C   UNL     1      34.322 -15.517 -24.507  0.00  0.00    -0.000 C 
ATOM     36  C   UNL     1      33.504 -14.596 -25.161  0.00  0.00    -0.000 C 
ATOM     37  C   UNL     1      35.245 -16.436 -22.431  0.00  0.00    -0.000 C 
ATOM     38  C   UNL     1      34.614 -15.483 -20.304  0.00  0.00    -0.000 C 
ATOM     39  C   UNL     1      35.336 -16.419 -21.039  0.00  0.00    -0.000 C 
ENDBRANCH  29  30
ENDBRANCH   6  29
TORSDOF 9
ENDMDL
MODEL 9
REMARK VINA RESULT:      -9.3     11.942     15.091
REMARK  Name = 46937134
REMARK  9 active torsions:
REMARK  status: ('A' for Active; 'I' for Inactive)
REMARK    1  A    between atoms: N_2  and  C_15
REMARK    2  A    between atoms: N_6  and  C_29
REMARK    3  A    between atoms: C_16  and  O_19
REMARK    4  A    between atoms: C_18  and  C_21
REMARK    5  A    between atoms: C_21  and  O_22
REMARK    6  A    between atoms: O_22  and  P_23
REMARK    7  A    between atoms: P_23  and  O_25
REMARK    8  A    between atoms: P_23  and  O_27
REMARK    9  A    between atoms: C_29  and  C_30
REMARK                            x       y       z     vdW  Elec       q    Type
REMARK                         _______ _______ _______ _____ _____    ______ ____
ROOT
ATOM      1  O   UNL     1      31.846  -8.312 -18.751  0.00  0.00    -0.208 OA
ATOM      2  N   UNL     1      32.199 -11.976 -21.373  0.00  0.00    -0.209 NA
ATOM      3  N   UNL     1      32.151  -9.824 -22.506  0.00  0.00    -0.279 N 
ATOM      4  N   UNL     1      32.032 -11.208 -19.271  0.00  0.00    -0.241 NA
ATOM      5  N   UNL     1      31.961  -7.937 -21.035  0.00  0.00    -0.301 NA
ATOM      6  N   UNL     1      32.087  -7.700 -23.354  0.00  0.00    -0.292 N 
ATOM      7  C   UNL     1      32.130 -10.627 -21.438  0.00  0.00    +0.191 C 
ATOM      8  C   UNL     1      32.135 -12.284 -20.033  0.00  0.00    +0.205 C 
ATOM      9  C   UNL     1      32.030 -10.168 -20.158  0.00  0.00    +0.183 C 
ATOM     10  C   UNL     1      32.061  -8.459 -22.243  0.00  0.00    +0.248 C 
ATOM     11  C   UNL     1      31.937  -8.746 -19.893  0.00  0.00    +0.224 C 
ATOM     12  H   UNL     1      32.224 -10.177 -23.423  0.00  0.00    +0.152 HD
ATOM     13  H   UNL     1      32.163  -8.148 -24.228  0.00  0.00    +0.151 HD
ENDROOT
BRANCH   2  15
ATOM     14  O   UNL     1      32.669 -14.278 -22.053  0.00  0.00    -0.338 OA
ATOM     15  C   UNL     1      32.318 -12.958 -22.511  0.00  0.00    +0.182 C 
ATOM     16  C   UNL     1      33.746 -13.898 -24.139  0.00  0.00    +0.144 C 
ATOM     17  C   UNL     1      33.380 -12.563 -23.533  0.00  0.00    +0.079 C 
ATOM     18  C   UNL     1      33.634 -14.853 -22.957  0.00  0.00    +0.174 C 
BRANCH  16  19
ATOM     19  O   UNL     1      32.766 -14.234 -25.119  0.00  0.00    -0.382 OA
ATOM     20  H   UNL     1      32.486 -15.155 -24.993  0.00  0.00    +0.210 HD
ENDBRANCH  16  19
BRANCH  18  21
ATOM     21  C   UNL     1      34.947 -15.011 -22.202  0.00  0.00    +0.186 C 
BRANCH  21  22
ATOM     22  O   UNL     1      35.688 -16.062 -22.798  0.00  0.00    -0.271 OA
BRANCH  22  23
ATOM     23  P   UNL     1      35.479 -17.568 -22.239  0.00  0.00    +0.473 P 
ATOM     24  O   UNL     1      34.532 -18.414 -23.038  0.00  0.00    -0.227 OA
BRANCH  23  25
ATOM     25  O   UNL     1      36.991 -18.133 -22.150  0.00  0.00    -0.303 OA
ATOM     26  H   UNL     1      37.396 -18.114 -23.031  0.00  0.00    +0.222 HD
ENDBRANCH  23  25
BRANCH  23  27
ATOM     27  O   UNL     1      35.071 -17.348 -20.690  0.00  0.00    -0.303 OA
ATOM     28  H   UNL     1      35.735 -17.764 -20.118  0.00  0.00    +0.222 HD
ENDBRANCH  23  27
ENDBRANCH  22  23
ENDBRANCH  21  22
ENDBRANCH  18  21
ENDBRANCH   2  15
BRANCH   6  29
ATOM     29  C   UNL     1      32.007  -6.258 -23.323  0.00  0.00    +0.117 C 
BRANCH  29  30
ATOM     30  C   UNL     1      32.997  -5.651 -24.269  0.00  0.00    -0.003 C 
ATOM     31  C   UNL     1      32.665  -4.571 -25.104  0.00  0.00    -0.002 C 
ATOM     32  C   UNL     1      33.646  -4.043 -25.977  0.00  0.00    -0.000 C 
ATOM     33  C   UNL     1      34.279  -6.200 -24.293  0.00  0.00    -0.003 C 
ATOM     34  C   UNL     1      31.380  -4.005 -25.093  0.00  0.00    -0.000 C 
ATOM     35  C   UNL     1      34.930  -4.610 -25.989  0.00  0.00    -0.000 C 
ATOM     36  C   UNL     1      35.244  -5.682 -25.151  0.00  0.00    -0.000 C 
ATOM     37  C   UNL     1      33.313  -2.964 -26.812  0.00  0.00    -0.000 C 
ATOM     38  C   UNL     1      31.066  -2.934 -25.929  0.00  0.00    -0.000 C 
ATOM     39  C   UNL     1      32.032  -2.414 -26.787  0.00  0.00    -0.000 C 
ENDBRANCH  29  30
ENDBRANCH   6  29
TORSDOF 9
ENDMDL
