MODEL 1
REMARK VINA RESULT:     -11.6      0.000      0.000
REMARK  Name = 444698
REMARK  5 active torsions:
REMARK  status: ('A' for Active; 'I' for Inactive)
REMARK    1  A    between atoms: S_1  and  N_4
REMARK    2  A    between atoms: S_1  and  C_18
REMARK    3  A    between atoms: C_5  and  C_15
REMARK    4  A    between atoms: C_15  and  O_16
REMARK    5  A    between atoms: C_21  and  C_24
REMARK                            x       y       z     vdW  Elec       q    Type
REMARK                         _______ _______ _______ _____ _____    ______ ____
ROOT
ATOM      1  S   UNL     1      35.052 -23.618 -15.225  0.00  0.00    +0.064 S 
ATOM      2  O   UNL     1      35.496 -24.940 -15.618  0.00  0.00    -0.153 OA
ATOM      3  O   UNL     1      35.719 -22.864 -14.184  0.00  0.00    -0.153 OA
ENDROOT
BRANCH   1   4
ATOM      4  N   UNL     1      33.377 -23.684 -14.887  0.00  0.00    -0.141 NA
ATOM      5  C   UNL     1      32.947 -24.598 -13.790  0.00  0.00    +0.182 C 
ATOM      6  C   UNL     1      31.600 -25.287 -14.021  0.00  0.00    +0.055 C 
ATOM      7  C   UNL     1      32.466 -23.552 -16.059  0.00  0.00    +0.122 C 
ATOM      8  C   UNL     1      30.582 -24.381 -14.658  0.00  0.00    -0.023 C 
ATOM      9  C   UNL     1      31.014 -23.515 -15.672  0.00  0.00    -0.008 C 
ATOM     10  C   UNL     1      29.229 -24.420 -14.304  0.00  0.00    -0.004 C 
ATOM     11  C   UNL     1      30.093 -22.694 -16.327  0.00  0.00    -0.003 C 
ATOM     12  C   UNL     1      28.317 -23.587 -14.951  0.00  0.00    -0.000 C 
ATOM     13  C   UNL     1      28.747 -22.726 -15.961  0.00  0.00    -0.000 C 
BRANCH   5  15
ATOM     14  O   UNL     1      31.928 -23.058 -12.230  0.00  0.00    -0.249 OA
ATOM     15  C   UNL     1      32.899 -23.711 -12.584  0.00  0.00    +0.330 C 
BRANCH  15  16
ATOM     16  O   UNL     1      34.087 -23.724 -11.932  0.00  0.00    -0.479 OA
ATOM     17  H   UNL     1      34.161 -24.156 -11.103  0.00  0.00    +0.295 HD
ENDBRANCH  15  16
ENDBRANCH   5  15
ENDBRANCH   1   4
BRANCH   1  18
ATOM     18  C   UNL     1      35.267 -22.610 -16.689  0.00  0.00    +0.122 C 
ATOM     19  C   UNL     1      34.240 -22.550 -17.598  0.00  0.00    +0.020 C 
ATOM     20  C   UNL     1      36.452 -21.935 -16.849  0.00  0.00    +0.020 C 
ATOM     21  C   UNL     1      35.597 -21.065 -18.934  0.00  0.00    +0.000 C 
ATOM     22  C   UNL     1      34.407 -21.765 -18.739  0.00  0.00    +0.001 C 
ATOM     23  C   UNL     1      36.620 -21.150 -17.990  0.00  0.00    +0.001 C 
BRANCH  21  24
ATOM     24  C   UNL     1      35.771 -20.251 -20.118  0.00  0.00    +0.000 C 
ATOM     25  C   UNL     1      34.787 -20.234 -21.105  0.00  0.00    +0.000 C 
ATOM     26  C   UNL     1      36.925 -19.482 -20.271  0.00  0.00    +0.000 C 
ATOM     27  C   UNL     1      34.956 -19.450 -22.246  0.00  0.00    +0.000 C 
ATOM     28  C   UNL     1      37.094 -18.696 -21.411  0.00  0.00    +0.000 C 
ATOM     29  C   UNL     1      36.109 -18.680 -22.399  0.00  0.00    +0.000 C 
ENDBRANCH  21  24
ENDBRANCH   1  18
TORSDOF 5
ENDMDL
MODEL 2
REMARK VINA RESULT:     -11.2      5.532      9.515
REMARK  Name = 444698
REMARK  5 active torsions:
REMARK  status: ('A' for Active; 'I' for Inactive)
REMARK    1  A    between atoms: S_1  and  N_4
REMARK    2  A    between atoms: S_1  and  C_18
REMARK    3  A    between atoms: C_5  and  C_15
REMARK    4  A    between atoms: C_15  and  O_16
REMARK    5  A    between atoms: C_21  and  C_24
REMARK                            x       y       z     vdW  Elec       q    Type
REMARK                         _______ _______ _______ _____ _____    ______ ____
ROOT
ATOM      1  S   UNL     1      36.128 -18.844 -22.180  0.00  0.00    +0.064 S 
ATOM      2  O   UNL     1      37.465 -18.498 -21.743  0.00  0.00    -0.153 OA
ATOM      3  O   UNL     1      35.893 -19.641 -23.366  0.00  0.00    -0.153 OA
ENDROOT
BRANCH   1   4
ATOM      4  N   UNL     1      35.196 -17.413 -22.271  0.00  0.00    -0.141 NA
ATOM      5  C   UNL     1      35.236 -16.665 -23.560  0.00  0.00    +0.182 C 
ATOM      6  C   UNL     1      35.174 -15.142 -23.420  0.00  0.00    +0.055 C 
ATOM      7  C   UNL     1      35.107 -16.609 -21.020  0.00  0.00    +0.122 C 
ATOM      8  C   UNL     1      34.226 -14.692 -22.343  0.00  0.00    -0.023 C 
ATOM      9  C   UNL     1      34.191 -15.424 -21.148  0.00  0.00    -0.008 C 
ATOM     10  C   UNL     1      33.430 -13.550 -22.484  0.00  0.00    -0.004 C 
ATOM     11  C   UNL     1      33.363 -15.012 -20.101  0.00  0.00    -0.003 C 
ATOM     12  C   UNL     1      32.594 -13.152 -21.442  0.00  0.00    -0.000 C 
ATOM     13  C   UNL     1      32.560 -13.880 -20.252  0.00  0.00    -0.000 C 
BRANCH   5  15
ATOM     14  O   UNL     1      33.505 -18.260 -24.106  0.00  0.00    -0.249 OA
ATOM     15  C   UNL     1      34.049 -17.185 -24.311  0.00  0.00    +0.330 C 
BRANCH  15  16
ATOM     16  O   UNL     1      33.656 -16.300 -25.260  0.00  0.00    -0.479 OA
ATOM     17  H   UNL     1      34.133 -16.234 -26.064  0.00  0.00    +0.295 HD
ENDBRANCH  15  16
ENDBRANCH   5  15
ENDBRANCH   1   4
BRANCH   1  18
ATOM     18  C   UNL     1      35.457 -19.841 -20.853  0.00  0.00    +0.122 C 
ATOM     19  C   UNL     1      34.094 -19.981 -20.765  0.00  0.00    +0.020 C 
ATOM     20  C   UNL     1      36.330 -20.429 -19.971  0.00  0.00    +0.020 C 
ATOM     21  C   UNL     1      34.428 -21.369 -18.818  0.00  0.00    +0.000 C 
ATOM     22  C   UNL     1      33.571 -20.757 -19.731  0.00  0.00    +0.001 C 
ATOM     23  C   UNL     1      35.808 -21.205 -18.937  0.00  0.00    +0.001 C 
BRANCH  21  24
ATOM     24  C   UNL     1      33.885 -22.175 -17.745  0.00  0.00    +0.000 C 
ATOM     25  C   UNL     1      32.504 -22.309 -17.602  0.00  0.00    +0.000 C 
ATOM     26  C   UNL     1      34.744 -22.817 -16.853  0.00  0.00    +0.000 C 
ATOM     27  C   UNL     1      31.982 -23.085 -16.567  0.00  0.00    +0.000 C 
ATOM     28  C   UNL     1      34.223 -23.594 -15.819  0.00  0.00    +0.000 C 
ATOM     29  C   UNL     1      32.841 -23.728 -15.675  0.00  0.00    +0.000 C 
ENDBRANCH  21  24
ENDBRANCH   1  18
TORSDOF 5
ENDMDL
MODEL 3
REMARK VINA RESULT:     -10.6     10.244     13.907
REMARK  Name = 444698
REMARK  5 active torsions:
REMARK  status: ('A' for Active; 'I' for Inactive)
REMARK    1  A    between atoms: S_1  and  N_4
REMARK    2  A    between atoms: S_1  and  C_18
REMARK    3  A    between atoms: C_5  and  C_15
REMARK    4  A    between atoms: C_15  and  O_16
REMARK    5  A    between atoms: C_21  and  C_24
REMARK                            x       y       z     vdW  Elec       q    Type
REMARK                         _______ _______ _______ _____ _____    ______ ____
ROOT
ATOM      1  S   UNL     1      31.363 -10.957 -20.472  0.00  0.00    +0.064 S 
ATOM      2  O   UNL     1      30.104 -11.094 -21.176  0.00  0.00    -0.153 OA
ATOM      3  O   UNL     1      31.431 -10.913 -19.026  0.00  0.00    -0.153 OA
ENDROOT
BRANCH   1   4
ATOM      4  N   UNL     1      32.203  -9.613 -21.115  0.00  0.00    -0.141 NA
ATOM      5  C   UNL     1      31.648  -8.263 -20.810  0.00  0.00    +0.182 C 
ATOM      6  C   UNL     1      31.794  -7.239 -21.939  0.00  0.00    +0.055 C 
ATOM      7  C   UNL     1      32.820  -9.806 -22.457  0.00  0.00    +0.122 C 
ATOM      8  C   UNL     1      33.113  -7.341 -22.653  0.00  0.00    -0.023 C 
ATOM      9  C   UNL     1      33.625  -8.621 -22.910  0.00  0.00    -0.008 C 
ATOM     10  C   UNL     1      33.802  -6.211 -23.105  0.00  0.00    -0.004 C 
ATOM     11  C   UNL     1      34.822  -8.764 -23.617  0.00  0.00    -0.003 C 
ATOM     12  C   UNL     1      35.004  -6.359 -23.797  0.00  0.00    -0.000 C 
ATOM     13  C   UNL     1      35.512  -7.633 -24.053  0.00  0.00    -0.000 C 
BRANCH   5  15
ATOM     14  O   UNL     1      33.426  -7.161 -19.599  0.00  0.00    -0.249 OA
ATOM     15  C   UNL     1      32.404  -7.833 -19.591  0.00  0.00    +0.330 C 
BRANCH  15  16
ATOM     16  O   UNL     1      31.803  -8.293 -18.467  0.00  0.00    -0.479 OA
ATOM     17  H   UNL     1      32.059  -9.118 -18.104  0.00  0.00    +0.295 HD
ENDBRANCH  15  16
ENDBRANCH   5  15
ENDBRANCH   1   4
BRANCH   1  18
ATOM     18  C   UNL     1      32.290 -12.427 -20.901  0.00  0.00    +0.122 C 
ATOM     19  C   UNL     1      32.505 -12.700 -22.230  0.00  0.00    +0.020 C 
ATOM     20  C   UNL     1      32.753 -13.227 -19.886  0.00  0.00    +0.020 C 
ATOM     21  C   UNL     1      33.712 -14.682 -21.559  0.00  0.00    +0.000 C 
ATOM     22  C   UNL     1      33.227 -13.846 -22.564  0.00  0.00    +0.001 C 
ATOM     23  C   UNL     1      33.474 -14.373 -20.219  0.00  0.00    +0.001 C 
BRANCH  21  24
ATOM     24  C   UNL     1      34.460 -15.870 -21.906  0.00  0.00    +0.000 C 
ATOM     25  C   UNL     1      34.571 -16.262 -23.240  0.00  0.00    +0.000 C 
ATOM     26  C   UNL     1      35.072 -16.625 -20.904  0.00  0.00    +0.000 C 
ATOM     27  C   UNL     1      35.292 -17.408 -23.573  0.00  0.00    +0.000 C 
ATOM     28  C   UNL     1      35.795 -17.771 -21.237  0.00  0.00    +0.000 C 
ATOM     29  C   UNL     1      35.905 -18.163 -22.573  0.00  0.00    +0.000 C 
ENDBRANCH  21  24
ENDBRANCH   1  18
TORSDOF 5
ENDMDL
MODEL 4
REMARK VINA RESULT:     -10.5     11.124     14.641
REMARK  Name = 444698
REMARK  5 active torsions:
REMARK  status: ('A' for Active; 'I' for Inactive)
REMARK    1  A    between atoms: S_1  and  N_4
REMARK    2  A    between atoms: S_1  and  C_18
REMARK    3  A    between atoms: C_5  and  C_15
REMARK    4  A    between atoms: C_15  and  O_16
REMARK    5  A    between atoms: C_21  and  C_24
REMARK                            x       y       z     vdW  Elec       q    Type
REMARK                         _______ _______ _______ _____ _____    ______ ____
ROOT
ATOM      1  S   UNL     1      31.513 -10.100 -20.115  0.00  0.00    +0.064 S 
ATOM      2  O   UNL     1      30.093 -10.386 -20.090  0.00  0.00    -0.153 OA
ATOM      3  O   UNL     1      32.278  -9.913 -18.900  0.00  0.00    -0.153 OA
ENDROOT
BRANCH   1   4
ATOM      4  N   UNL     1      31.783  -8.772 -21.159  0.00  0.00    -0.141 NA
ATOM      5  C   UNL     1      31.864  -7.424 -20.527  0.00  0.00    +0.182 C 
ATOM      6  C   UNL     1      31.273  -6.287 -21.364  0.00  0.00    +0.055 C 
ATOM      7  C   UNL     1      31.146  -8.856 -22.503  0.00  0.00    +0.122 C 
ATOM      8  C   UNL     1      31.573  -6.424 -22.831  0.00  0.00    -0.023 C 
ATOM      9  C   UNL     1      31.511  -7.705 -23.398  0.00  0.00    -0.008 C 
ATOM     10  C   UNL     1      31.855  -5.317 -23.637  0.00  0.00    -0.004 C 
ATOM     11  C   UNL     1      31.731  -7.872 -24.768  0.00  0.00    -0.003 C 
ATOM     12  C   UNL     1      32.089  -5.492 -25.002  0.00  0.00    -0.000 C 
ATOM     13  C   UNL     1      32.026  -6.766 -25.566  0.00  0.00    -0.000 C 
BRANCH   5  15
ATOM     14  O   UNL     1      34.191  -7.306 -21.167  0.00  0.00    -0.249 OA
ATOM     15  C   UNL     1      33.331  -7.223 -20.302  0.00  0.00    +0.330 C 
BRANCH  15  16
ATOM     16  O   UNL     1      33.582  -6.936 -19.002  0.00  0.00    -0.479 OA
ATOM     17  H   UNL     1      33.874  -7.613 -18.422  0.00  0.00    +0.295 HD
ENDBRANCH  15  16
ENDBRANCH   5  15
ENDBRANCH   1   4
BRANCH   1  18
ATOM     18  C   UNL     1      32.256 -11.541 -20.873  0.00  0.00    +0.122 C 
ATOM     19  C   UNL     1      32.736 -11.432 -22.156  0.00  0.00    +0.020 C 
ATOM     20  C   UNL     1      32.319 -12.704 -20.144  0.00  0.00    +0.020 C 
ATOM     21  C   UNL     1      33.396 -13.752 -22.036  0.00  0.00    +0.000 C 
ATOM     22  C   UNL     1      33.314 -12.555 -22.746  0.00  0.00    +0.001 C 
ATOM     23  C   UNL     1      32.898 -13.827 -20.735  0.00  0.00    +0.001 C 
BRANCH  21  24
ATOM     24  C   UNL     1      33.996 -14.917 -22.649  0.00  0.00    +0.000 C 
ATOM     25  C   UNL     1      34.814 -15.759 -21.896  0.00  0.00    +0.000 C 
ATOM     26  C   UNL     1      33.757 -15.197 -23.994  0.00  0.00    +0.000 C 
ATOM     27  C   UNL     1      35.393 -16.882 -22.488  0.00  0.00    +0.000 C 
ATOM     28  C   UNL     1      34.335 -16.320 -24.586  0.00  0.00    +0.000 C 
ATOM     29  C   UNL     1      35.154 -17.163 -23.833  0.00  0.00    +0.000 C 
ENDBRANCH  21  24
ENDBRANCH   1  18
TORSDOF 5
ENDMDL
MODEL 5
REMARK VINA RESULT:     -10.3      1.507      2.160
REMARK  Name = 444698
REMARK  5 active torsions:
REMARK  status: ('A' for Active; 'I' for Inactive)
REMARK    1  A    between atoms: S_1  and  N_4
REMARK    2  A    between atoms: S_1  and  C_18
REMARK    3  A    between atoms: C_5  and  C_15
REMARK    4  A    between atoms: C_15  and  O_16
REMARK    5  A    between atoms: C_21  and  C_24
REMARK                            x       y       z     vdW  Elec       q    Type
REMARK                         _______ _______ _______ _____ _____    ______ ____
ROOT
ATOM      1  S   UNL     1      36.677 -23.260 -14.825  0.00  0.00    +0.064 S 
ATOM      2  O   UNL     1      37.278 -24.516 -15.227  0.00  0.00    -0.153 OA
ATOM      3  O   UNL     1      37.355 -22.338 -13.938  0.00  0.00    -0.153 OA
ENDROOT
BRANCH   1   4
ATOM      4  N   UNL     1      35.110 -23.575 -14.218  0.00  0.00    -0.141 NA
ATOM      5  C   UNL     1      34.940 -24.811 -13.401  0.00  0.00    +0.182 C 
ATOM      6  C   UNL     1      33.594 -25.518 -13.580  0.00  0.00    +0.055 C 
ATOM      7  C   UNL     1      33.975 -23.181 -15.098  0.00  0.00    +0.122 C 
ATOM      8  C   UNL     1      32.442 -24.558 -13.701  0.00  0.00    -0.023 C 
ATOM      9  C   UNL     1      32.633 -23.393 -14.457  0.00  0.00    -0.008 C 
ATOM     10  C   UNL     1      31.193 -24.824 -13.131  0.00  0.00    -0.004 C 
ATOM     11  C   UNL     1      31.574 -22.499 -14.639  0.00  0.00    -0.003 C 
ATOM     12  C   UNL     1      30.143 -23.921 -13.304  0.00  0.00    -0.000 C 
ATOM     13  C   UNL     1      30.334 -22.761 -14.057  0.00  0.00    -0.000 C 
BRANCH   5  15
ATOM     14  O   UNL     1      34.956 -25.023 -10.994  0.00  0.00    -0.249 OA
ATOM     15  C   UNL     1      35.116 -24.335 -11.992  0.00  0.00    +0.330 C 
BRANCH  15  16
ATOM     16  O   UNL     1      35.478 -23.029 -11.969  0.00  0.00    -0.479 OA
ATOM     17  H   UNL     1      34.889 -22.375 -12.290  0.00  0.00    +0.295 HD
ENDBRANCH  15  16
ENDBRANCH   5  15
ENDBRANCH   1   4
BRANCH   1  18
ATOM     18  C   UNL     1      36.490 -22.335 -16.346  0.00  0.00    +0.122 C 
ATOM     19  C   UNL     1      37.302 -21.247 -16.553  0.00  0.00    +0.020 C 
ATOM     20  C   UNL     1      35.541 -22.748 -17.250  0.00  0.00    +0.020 C 
ATOM     21  C   UNL     1      36.203 -20.916 -18.679  0.00  0.00    +0.000 C 
ATOM     22  C   UNL     1      37.155 -20.526 -17.738  0.00  0.00    +0.001 C 
ATOM     23  C   UNL     1      35.395 -22.026 -18.434  0.00  0.00    +0.001 C 
BRANCH  21  24
ATOM     24  C   UNL     1      36.051 -20.167 -19.908  0.00  0.00    +0.000 C 
ATOM     25  C   UNL     1      37.094 -19.365 -20.370  0.00  0.00    +0.000 C 
ATOM     26  C   UNL     1      34.861 -20.249 -20.631  0.00  0.00    +0.000 C 
ATOM     27  C   UNL     1      36.947 -18.643 -21.555  0.00  0.00    +0.000 C 
ATOM     28  C   UNL     1      34.713 -19.528 -21.816  0.00  0.00    +0.000 C 
ATOM     29  C   UNL     1      35.757 -18.725 -22.278  0.00  0.00    +0.000 C 
ENDBRANCH  21  24
ENDBRANCH   1  18
TORSDOF 5
ENDMDL
MODEL 6
REMARK VINA RESULT:     -10.3     12.189     16.327
REMARK  Name = 444698
REMARK  5 active torsions:
REMARK  status: ('A' for Active; 'I' for Inactive)
REMARK    1  A    between atoms: S_1  and  N_4
REMARK    2  A    between atoms: S_1  and  C_18
REMARK    3  A    between atoms: C_5  and  C_15
REMARK    4  A    between atoms: C_15  and  O_16
REMARK    5  A    between atoms: C_21  and  C_24
REMARK                            x       y       z     vdW  Elec       q    Type
REMARK                         _______ _______ _______ _____ _____    ______ ____
ROOT
ATOM      1  S   UNL     1      31.364  -8.693 -22.598  0.00  0.00    +0.064 S 
ATOM      2  O   UNL     1      30.061  -8.770 -23.226  0.00  0.00    -0.153 OA
ATOM      3  O   UNL     1      31.516  -8.450 -21.178  0.00  0.00    -0.153 OA
ENDROOT
BRANCH   1   4
ATOM      4  N   UNL     1      32.324  -7.575 -23.466  0.00  0.00    -0.141 NA
ATOM      5  C   UNL     1      32.883  -6.427 -22.696  0.00  0.00    +0.182 C 
ATOM      6  C   UNL     1      32.964  -5.112 -23.473  0.00  0.00    +0.055 C 
ATOM      7  C   UNL     1      31.912  -7.313 -24.874  0.00  0.00    +0.122 C 
ATOM      8  C   UNL     1      33.383  -5.304 -24.905  0.00  0.00    -0.023 C 
ATOM      9  C   UNL     1      32.860  -6.402 -25.602  0.00  0.00    -0.008 C 
ATOM     10  C   UNL     1      34.224  -4.399 -25.559  0.00  0.00    -0.004 C 
ATOM     11  C   UNL     1      33.181  -6.590 -26.949  0.00  0.00    -0.003 C 
ATOM     12  C   UNL     1      34.553  -4.599 -26.900  0.00  0.00    -0.000 C 
ATOM     13  C   UNL     1      34.032  -5.692 -27.594  0.00  0.00    -0.000 C 
BRANCH   5  15
ATOM     14  O   UNL     1      35.220  -6.946 -23.030  0.00  0.00    -0.249 OA
ATOM     15  C   UNL     1      34.246  -6.899 -22.292  0.00  0.00    +0.330 C 
BRANCH  15  16
ATOM     16  O   UNL     1      34.258  -7.274 -20.990  0.00  0.00    -0.479 OA
ATOM     17  H   UNL     1      34.421  -8.169 -20.762  0.00  0.00    +0.295 HD
ENDBRANCH  15  16
ENDBRANCH   5  15
ENDBRANCH   1   4
BRANCH   1  18
ATOM     18  C   UNL     1      32.082 -10.316 -22.834  0.00  0.00    +0.122 C 
ATOM     19  C   UNL     1      33.150 -10.441 -23.688  0.00  0.00    +0.020 C 
ATOM     20  C   UNL     1      31.537 -11.377 -22.152  0.00  0.00    +0.020 C 
ATOM     21  C   UNL     1      33.182 -12.806 -23.196  0.00  0.00    +0.000 C 
ATOM     22  C   UNL     1      33.708 -11.706 -23.872  0.00  0.00    +0.001 C 
ATOM     23  C   UNL     1      32.096 -12.642 -22.336  0.00  0.00    +0.001 C 
BRANCH  21  24
ATOM     24  C   UNL     1      33.761 -14.117 -23.388  0.00  0.00    +0.000 C 
ATOM     25  C   UNL     1      33.510 -14.827 -24.561  0.00  0.00    +0.000 C 
ATOM     26  C   UNL     1      34.572 -14.672 -22.397  0.00  0.00    +0.000 C 
ATOM     27  C   UNL     1      34.069 -16.093 -24.745  0.00  0.00    +0.000 C 
ATOM     28  C   UNL     1      35.131 -15.937 -22.580  0.00  0.00    +0.000 C 
ATOM     29  C   UNL     1      34.880 -16.647 -23.755  0.00  0.00    +0.000 C 
ENDBRANCH  21  24
ENDBRANCH   1  18
TORSDOF 5
ENDMDL
MODEL 7
REMARK VINA RESULT:     -10.0     10.705     14.091
REMARK  Name = 444698
REMARK  5 active torsions:
REMARK  status: ('A' for Active; 'I' for Inactive)
REMARK    1  A    between atoms: S_1  and  N_4
REMARK    2  A    between atoms: S_1  and  C_18
REMARK    3  A    between atoms: C_5  and  C_15
REMARK    4  A    between atoms: C_15  and  O_16
REMARK    5  A    between atoms: C_21  and  C_24
REMARK                            x       y       z     vdW  Elec       q    Type
REMARK                         _______ _______ _______ _____ _____    ______ ____
ROOT
ATOM      1  S   UNL     1      31.612 -10.948 -21.472  0.00  0.00    +0.064 S 
ATOM      2  O   UNL     1      32.033 -10.623 -20.124  0.00  0.00    -0.153 OA
ATOM      3  O   UNL     1      30.213 -11.039 -21.835  0.00  0.00    -0.153 OA
ENDROOT
BRANCH   1   4
ATOM      4  N   UNL     1      32.416 -12.374 -21.966  0.00  0.00    -0.141 NA
ATOM      5  C   UNL     1      33.408 -12.952 -21.015  0.00  0.00    +0.182 C 
ATOM      6  C   UNL     1      34.631 -13.593 -21.674  0.00  0.00    +0.055 C 
ATOM      7  C   UNL     1      32.725 -12.482 -23.419  0.00  0.00    +0.122 C 
ATOM      8  C   UNL     1      34.288 -14.355 -22.924  0.00  0.00    -0.023 C 
ATOM      9  C   UNL     1      33.337 -13.802 -23.793  0.00  0.00    -0.008 C 
ATOM     10  C   UNL     1      34.924 -15.555 -23.259  0.00  0.00    -0.004 C 
ATOM     11  C   UNL     1      33.026 -14.451 -24.991  0.00  0.00    -0.003 C 
ATOM     12  C   UNL     1      34.599 -16.206 -24.449  0.00  0.00    -0.000 C 
ATOM     13  C   UNL     1      33.652 -15.655 -25.314  0.00  0.00    -0.000 C 
BRANCH   5  15
ATOM     14  O   UNL     1      33.097 -14.859 -19.564  0.00  0.00    -0.249 OA
ATOM     15  C   UNL     1      32.617 -13.965 -20.246  0.00  0.00    +0.330 C 
BRANCH  15  16
ATOM     16  O   UNL     1      31.288 -13.760 -20.409  0.00  0.00    -0.479 OA
ATOM     17  H   UNL     1      30.912 -13.787 -21.267  0.00  0.00    +0.295 HD
ENDBRANCH  15  16
ENDBRANCH   5  15
ENDBRANCH   1   4
BRANCH   1  18
ATOM     18  C   UNL     1      32.230  -9.604 -22.480  0.00  0.00    +0.122 C 
ATOM     19  C   UNL     1      33.581  -9.360 -22.488  0.00  0.00    +0.020 C 
ATOM     20  C   UNL     1      31.329  -8.866 -23.209  0.00  0.00    +0.020 C 
ATOM     21  C   UNL     1      33.177  -7.542 -24.026  0.00  0.00    +0.000 C 
ATOM     22  C   UNL     1      34.062  -8.312 -23.273  0.00  0.00    +0.001 C 
ATOM     23  C   UNL     1      31.810  -7.819 -23.994  0.00  0.00    +0.001 C 
BRANCH  21  24
ATOM     24  C   UNL     1      33.677  -6.456 -24.841  0.00  0.00    +0.000 C 
ATOM     25  C   UNL     1      35.050  -6.276 -24.999  0.00  0.00    +0.000 C 
ATOM     26  C   UNL     1      32.783  -5.587 -25.468  0.00  0.00    +0.000 C 
ATOM     27  C   UNL     1      35.531  -5.228 -25.784  0.00  0.00    +0.000 C 
ATOM     28  C   UNL     1      33.263  -4.539 -26.253  0.00  0.00    +0.000 C 
ATOM     29  C   UNL     1      34.638  -4.359 -26.412  0.00  0.00    +0.000 C 
ENDBRANCH  21  24
ENDBRANCH   1  18
TORSDOF 5
ENDMDL
MODEL 8
REMARK VINA RESULT:      -9.9     11.281     15.136
REMARK  Name = 444698
REMARK  5 active torsions:
REMARK  status: ('A' for Active; 'I' for Inactive)
REMARK    1  A    between atoms: S_1  and  N_4
REMARK    2  A    between atoms: S_1  and  C_18
REMARK    3  A    between atoms: C_5  and  C_15
REMARK    4  A    between atoms: C_15  and  O_16
REMARK    5  A    between atoms: C_21  and  C_24
REMARK                            x       y       z     vdW  Elec       q    Type
REMARK                         _______ _______ _______ _____ _____    ______ ____
ROOT
ATOM      1  S   UNL     1      31.556  -9.816 -21.010  0.00  0.00    +0.064 S 
ATOM      2  O   UNL     1      30.143 -10.000 -21.268  0.00  0.00    -0.153 OA
ATOM      3  O   UNL     1      32.069  -9.603 -19.673  0.00  0.00    -0.153 OA
ENDROOT
BRANCH   1   4
ATOM      4  N   UNL     1      32.142  -8.582 -22.040  0.00  0.00    -0.141 NA
ATOM      5  C   UNL     1      31.130  -7.845 -22.850  0.00  0.00    +0.182 C 
ATOM      6  C   UNL     1      31.605  -7.431 -24.245  0.00  0.00    +0.055 C 
ATOM      7  C   UNL     1      33.469  -8.829 -22.669  0.00  0.00    +0.122 C 
ATOM      8  C   UNL     1      33.034  -6.965 -24.262  0.00  0.00    -0.023 C 
ATOM      9  C   UNL     1      33.963  -7.660 -23.475  0.00  0.00    -0.008 C 
ATOM     10  C   UNL     1      33.460  -5.906 -25.071  0.00  0.00    -0.004 C 
ATOM     11  C   UNL     1      35.311  -7.294 -23.501  0.00  0.00    -0.003 C 
ATOM     12  C   UNL     1      34.804  -5.535 -25.080  0.00  0.00    -0.000 C 
ATOM     13  C   UNL     1      35.728  -6.228 -24.298  0.00  0.00    -0.000 C 
BRANCH   5  15
ATOM     14  O   UNL     1      30.030  -5.756 -22.332  0.00  0.00    -0.249 OA
ATOM     15  C   UNL     1      30.807  -6.646 -22.013  0.00  0.00    +0.330 C 
BRANCH  15  16
ATOM     16  O   UNL     1      31.496  -6.675 -20.847  0.00  0.00    -0.479 OA
ATOM     17  H   UNL     1      32.086  -7.381 -20.670  0.00  0.00    +0.295 HD
ENDBRANCH  15  16
ENDBRANCH   5  15
ENDBRANCH   1   4
BRANCH   1  18
ATOM     18  C   UNL     1      32.319 -11.352 -21.523  0.00  0.00    +0.122 C 
ATOM     19  C   UNL     1      32.770 -11.459 -22.816  0.00  0.00    +0.020 C 
ATOM     20  C   UNL     1      32.424 -12.368 -20.605  0.00  0.00    +0.020 C 
ATOM     21  C   UNL     1      33.488 -13.709 -22.309  0.00  0.00    +0.000 C 
ATOM     22  C   UNL     1      33.364 -12.656 -23.215  0.00  0.00    +0.001 C 
ATOM     23  C   UNL     1      33.017 -13.565 -21.004  0.00  0.00    +0.001 C 
BRANCH  21  24
ATOM     24  C   UNL     1      34.103 -14.950 -22.724  0.00  0.00    +0.000 C 
ATOM     25  C   UNL     1      33.990 -15.379 -24.047  0.00  0.00    +0.000 C 
ATOM     26  C   UNL     1      34.811 -15.719 -21.800  0.00  0.00    +0.000 C 
ATOM     27  C   UNL     1      34.583 -16.577 -24.445  0.00  0.00    +0.000 C 
ATOM     28  C   UNL     1      35.406 -16.917 -22.199  0.00  0.00    +0.000 C 
ATOM     29  C   UNL     1      35.292 -17.346 -23.522  0.00  0.00    +0.000 C 
ENDBRANCH  21  24
ENDBRANCH   1  18
TORSDOF 5
ENDMDL
MODEL 9
REMARK VINA RESULT:      -9.7     12.825     16.948
REMARK  Name = 444698
REMARK  5 active torsions:
REMARK  status: ('A' for Active; 'I' for Inactive)
REMARK    1  A    between atoms: S_1  and  N_4
REMARK    2  A    between atoms: S_1  and  C_18
REMARK    3  A    between atoms: C_5  and  C_15
REMARK    4  A    between atoms: C_15  and  O_16
REMARK    5  A    between atoms: C_21  and  C_24
REMARK                            x       y       z     vdW  Elec       q    Type
REMARK                         _______ _______ _______ _____ _____    ______ ____
ROOT
ATOM      1  S   UNL     1      32.505  -7.866 -21.889  0.00  0.00    +0.064 S 
ATOM      2  O   UNL     1      31.077  -7.848 -21.646  0.00  0.00    -0.153 OA
ATOM      3  O   UNL     1      33.464  -7.619 -20.832  0.00  0.00    -0.153 OA
ENDROOT
BRANCH   1   4
ATOM      4  N   UNL     1      32.847  -6.834 -23.210  0.00  0.00    -0.141 NA
ATOM      5  C   UNL     1      31.681  -6.340 -23.996  0.00  0.00    +0.182 C 
ATOM      6  C   UNL     1      31.937  -6.191 -25.498  0.00  0.00    +0.055 C 
ATOM      7  C   UNL     1      34.100  -7.124 -23.961  0.00  0.00    +0.122 C 
ATOM      8  C   UNL     1      33.307  -5.653 -25.806  0.00  0.00    -0.023 C 
ATOM      9  C   UNL     1      34.385  -6.117 -25.039  0.00  0.00    -0.008 C 
ATOM     10  C   UNL     1      33.533  -4.757 -26.856  0.00  0.00    -0.004 C 
ATOM     11  C   UNL     1      35.681  -5.683 -25.325  0.00  0.00    -0.003 C 
ATOM     12  C   UNL     1      34.828  -4.316 -27.128  0.00  0.00    -0.000 C 
ATOM     13  C   UNL     1      35.900  -4.778 -26.364  0.00  0.00    -0.000 C 
BRANCH   5  15
ATOM     14  O   UNL     1      32.012  -4.487 -22.480  0.00  0.00    -0.249 OA
ATOM     15  C   UNL     1      31.363  -5.017 -23.370  0.00  0.00    +0.330 C 
BRANCH  15  16
ATOM     16  O   UNL     1      30.248  -4.480 -23.923  0.00  0.00    -0.479 OA
ATOM     17  H   UNL     1      29.403  -4.710 -23.591  0.00  0.00    +0.295 HD
ENDBRANCH  15  16
ENDBRANCH   5  15
ENDBRANCH   1   4
BRANCH   1  18
ATOM     18  C   UNL     1      32.860  -9.541 -22.408  0.00  0.00    +0.122 C 
ATOM     19  C   UNL     1      32.119 -10.564 -21.870  0.00  0.00    +0.020 C 
ATOM     20  C   UNL     1      33.862  -9.743 -23.327  0.00  0.00    +0.020 C 
ATOM     21  C   UNL     1      33.405 -12.112 -23.206  0.00  0.00    +0.000 C 
ATOM     22  C   UNL     1      32.396 -11.870 -22.275  0.00  0.00    +0.001 C 
ATOM     23  C   UNL     1      34.139 -11.048 -23.731  0.00  0.00    +0.001 C 
BRANCH  21  24
ATOM     24  C   UNL     1      33.692 -13.466 -23.625  0.00  0.00    +0.000 C 
ATOM     25  C   UNL     1      33.140 -13.964 -24.805  0.00  0.00    +0.000 C 
ATOM     26  C   UNL     1      34.523 -14.275 -22.848  0.00  0.00    +0.000 C 
ATOM     27  C   UNL     1      33.417 -15.270 -25.208  0.00  0.00    +0.000 C 
ATOM     28  C   UNL     1      34.800 -15.581 -23.252  0.00  0.00    +0.000 C 
ATOM     29  C   UNL     1      34.247 -16.079 -24.432  0.00  0.00    +0.000 C 
ENDBRANCH  21  24
ENDBRANCH   1  18
TORSDOF 5
ENDMDL
