MODEL 1
REMARK VINA RESULT:     -12.4      0.000      0.000
REMARK  Name = 66555680
REMARK  4 active torsions:
REMARK  status: ('A' for Active; 'I' for Inactive)
REMARK    1  A    between atoms: N_1  and  C_8
REMARK    2  A    between atoms: C_3  and  C_22
REMARK    3  A    between atoms: C_4  and  N_18
REMARK    4  A    between atoms: C_22  and  C_24
REMARK                            x       y       z     vdW  Elec       q    Type
REMARK                         _______ _______ _______ _____ _____    ______ ____
ROOT
ATOM      1  N   UNL     1      34.310 -15.348 -22.601  0.00  0.00    -0.177 N 
ATOM      2  N   UNL     1      34.395 -15.873 -23.836  0.00  0.00    -0.171 NA
ATOM      3  C   UNL     1      35.431 -17.196 -22.289  0.00  0.00    +0.090 C 
ATOM      4  C   UNL     1      34.915 -16.102 -21.639  0.00  0.00    +0.122 C 
ATOM      5  C   UNL     1      35.081 -17.002 -23.638  0.00  0.00    +0.124 C 
ENDROOT
BRANCH   1   8
ATOM      6  N   UNL     1      33.206 -10.674 -23.698  0.00  0.00    -0.318 N 
ATOM      7  N   UNL     1      31.763 -10.456 -22.022  0.00  0.00    -0.318 N 
ATOM      8  C   UNL     1      33.644 -14.135 -22.416  0.00  0.00    +0.077 C 
ATOM      9  C   UNL     1      33.204 -11.886 -23.056  0.00  0.00    +0.060 C 
ATOM     10  C   UNL     1      33.898 -13.074 -23.291  0.00  0.00    +0.032 C 
ATOM     11  C   UNL     1      32.296 -11.724 -22.014  0.00  0.00    +0.059 C 
ATOM     12  C   UNL     1      32.739 -14.002 -21.361  0.00  0.00    +0.018 C 
ATOM     13  C   UNL     1      32.054 -12.801 -21.144  0.00  0.00    +0.017 C 
ATOM     14  C   UNL     1      32.329  -9.854 -23.043  0.00  0.00    +0.144 C 
ATOM     15  C   UNL     1      32.099  -8.468 -23.490  0.00  0.00    +0.044 C 
ATOM     16  H   UNL     1      33.742 -10.438 -24.490  0.00  0.00    +0.148 HD
ATOM     17  H   UNL     1      31.101 -10.080 -21.397  0.00  0.00    +0.148 HD
ENDBRANCH   1   8
BRANCH   4  18
ATOM     18  N   UNL     1      34.930 -15.731 -20.340  0.00  0.00    -0.344 N 
ATOM     19  H   UNL     1      35.461 -16.242 -19.687  0.00  0.00    +0.144 HD
ATOM     20  H   UNL     1      34.410 -14.948 -20.046  0.00  0.00    +0.144 HD
ENDBRANCH   4  18
BRANCH   3  22
ATOM     21  O   UNL     1      37.422 -18.368 -21.923  0.00  0.00    -0.285 OA
ATOM     22  C   UNL     1      36.197 -18.333 -21.661  0.00  0.00    +0.213 C 
BRANCH  22  24
ATOM     23  N   UNL     1      36.288 -20.107 -19.948  0.00  0.00    -0.310 N 
ATOM     24  C   UNL     1      35.590 -19.317 -20.821  0.00  0.00    +0.088 C 
ATOM     25  C   UNL     1      35.429 -20.954 -19.284  0.00  0.00    +0.048 C 
ATOM     26  C   UNL     1      34.142 -20.688 -19.756  0.00  0.00    +0.015 C 
ATOM     27  C   UNL     1      34.259 -19.653 -20.726  0.00  0.00    +0.019 C 
ATOM     28  C   UNL     1      35.690 -21.926 -18.311  0.00  0.00    +0.015 C 
ATOM     29  C   UNL     1      33.062 -21.425 -19.233  0.00  0.00    +0.001 C 
ATOM     30  C   UNL     1      34.604 -22.644 -17.807  0.00  0.00    +0.001 C 
ATOM     31  C   UNL     1      33.308 -22.400 -18.259  0.00  0.00    +0.000 C 
ATOM     32  H   UNL     1      37.263 -20.075 -19.814  0.00  0.00    +0.152 HD
ENDBRANCH  22  24
ENDBRANCH   3  22
TORSDOF 4
ENDMDL
MODEL 2
REMARK VINA RESULT:     -12.0      1.063      1.725
REMARK  Name = 66555680
REMARK  4 active torsions:
REMARK  status: ('A' for Active; 'I' for Inactive)
REMARK    1  A    between atoms: N_1  and  C_8
REMARK    2  A    between atoms: C_3  and  C_22
REMARK    3  A    between atoms: C_4  and  N_18
REMARK    4  A    between atoms: C_22  and  C_24
REMARK                            x       y       z     vdW  Elec       q    Type
REMARK                         _______ _______ _______ _____ _____    ______ ____
ROOT
ATOM      1  N   UNL     1      34.328 -15.333 -22.461  0.00  0.00    -0.177 N 
ATOM      2  N   UNL     1      34.396 -15.779 -23.727  0.00  0.00    -0.171 NA
ATOM      3  C   UNL     1      35.425 -17.213 -22.277  0.00  0.00    +0.090 C 
ATOM      4  C   UNL     1      34.930 -16.155 -21.554  0.00  0.00    +0.122 C 
ATOM      5  C   UNL     1      35.067 -16.928 -23.608  0.00  0.00    +0.124 C 
ENDROOT
BRANCH   1   8
ATOM      6  N   UNL     1      31.971 -12.101 -19.586  0.00  0.00    -0.318 N 
ATOM      7  N   UNL     1      31.729 -10.598 -21.206  0.00  0.00    -0.318 N 
ATOM      8  C   UNL     1      33.681 -14.125 -22.192  0.00  0.00    +0.077 C 
ATOM      9  C   UNL     1      32.555 -12.659 -20.694  0.00  0.00    +0.060 C 
ATOM     10  C   UNL     1      33.194 -13.881 -20.904  0.00  0.00    +0.032 C 
ATOM     11  C   UNL     1      32.391 -11.702 -21.691  0.00  0.00    +0.059 C 
ATOM     12  C   UNL     1      33.531 -13.184 -23.213  0.00  0.00    +0.018 C 
ATOM     13  C   UNL     1      32.886 -11.963 -22.980  0.00  0.00    +0.017 C 
ATOM     14  C   UNL     1      31.493 -10.870 -19.942  0.00  0.00    +0.144 C 
ATOM     15  C   UNL     1      30.803 -10.006 -18.967  0.00  0.00    +0.044 C 
ATOM     16  H   UNL     1      31.909 -12.512 -18.694  0.00  0.00    +0.148 HD
ATOM     17  H   UNL     1      31.485  -9.780 -21.698  0.00  0.00    +0.148 HD
ENDBRANCH   1   8
BRANCH   4  18
ATOM     18  N   UNL     1      34.960 -15.868 -20.234  0.00  0.00    -0.344 N 
ATOM     19  H   UNL     1      34.893 -14.934 -19.931  0.00  0.00    +0.144 HD
ATOM     20  H   UNL     1      35.049 -16.594 -19.575  0.00  0.00    +0.144 HD
ENDBRANCH   4  18
BRANCH   3  22
ATOM     21  O   UNL     1      37.377 -18.489 -22.090  0.00  0.00    -0.285 OA
ATOM     22  C   UNL     1      36.180 -18.398 -21.729  0.00  0.00    +0.213 C 
BRANCH  22  24
ATOM     23  N   UNL     1      36.305 -20.117 -19.963  0.00  0.00    -0.310 N 
ATOM     24  C   UNL     1      35.592 -19.367 -20.859  0.00  0.00    +0.088 C 
ATOM     25  C   UNL     1      35.463 -20.958 -19.271  0.00  0.00    +0.048 C 
ATOM     26  C   UNL     1      34.170 -20.730 -19.749  0.00  0.00    +0.015 C 
ATOM     27  C   UNL     1      34.267 -19.723 -20.751  0.00  0.00    +0.019 C 
ATOM     28  C   UNL     1      35.743 -21.894 -18.270  0.00  0.00    +0.015 C 
ATOM     29  C   UNL     1      33.105 -21.470 -19.201  0.00  0.00    +0.001 C 
ATOM     30  C   UNL     1      34.670 -22.616 -17.742  0.00  0.00    +0.001 C 
ATOM     31  C   UNL     1      33.370 -22.409 -18.199  0.00  0.00    +0.000 C 
ATOM     32  H   UNL     1      37.279 -20.063 -19.833  0.00  0.00    +0.152 HD
ENDBRANCH  22  24
ENDBRANCH   3  22
TORSDOF 4
ENDMDL
MODEL 3
REMARK VINA RESULT:     -11.7      2.712      5.277
REMARK  Name = 66555680
REMARK  4 active torsions:
REMARK  status: ('A' for Active; 'I' for Inactive)
REMARK    1  A    between atoms: N_1  and  C_8
REMARK    2  A    between atoms: C_3  and  C_22
REMARK    3  A    between atoms: C_4  and  N_18
REMARK    4  A    between atoms: C_22  and  C_24
REMARK                            x       y       z     vdW  Elec       q    Type
REMARK                         _______ _______ _______ _____ _____    ______ ____
ROOT
ATOM      1  N   UNL     1      35.383 -19.501 -20.556  0.00  0.00    -0.177 N 
ATOM      2  N   UNL     1      36.622 -19.750 -20.098  0.00  0.00    -0.171 NA
ATOM      3  C   UNL     1      35.105 -21.239 -19.263  0.00  0.00    +0.090 C 
ATOM      4  C   UNL     1      34.437 -20.365 -20.086  0.00  0.00    +0.122 C 
ATOM      5  C   UNL     1      36.445 -20.813 -19.309  0.00  0.00    +0.124 C 
ENDROOT
BRANCH   1   8
ATOM      6  N   UNL     1      34.595 -14.771 -21.682  0.00  0.00    -0.318 N 
ATOM      7  N   UNL     1      34.549 -15.137 -23.874  0.00  0.00    -0.318 N 
ATOM      8  C   UNL     1      35.177 -18.433 -21.431  0.00  0.00    +0.077 C 
ATOM      9  C   UNL     1      34.797 -16.119 -21.833  0.00  0.00    +0.060 C 
ATOM     10  C   UNL     1      35.001 -17.146 -20.912  0.00  0.00    +0.032 C 
ATOM     11  C   UNL     1      34.765 -16.322 -23.209  0.00  0.00    +0.059 C 
ATOM     12  C   UNL     1      35.149 -18.668 -22.808  0.00  0.00    +0.018 C 
ATOM     13  C   UNL     1      34.943 -17.621 -23.714  0.00  0.00    +0.017 C 
ATOM     14  C   UNL     1      34.452 -14.229 -22.929  0.00  0.00    +0.144 C 
ATOM     15  C   UNL     1      34.219 -12.784 -23.113  0.00  0.00    +0.044 C 
ATOM     16  H   UNL     1      34.559 -14.282 -20.828  0.00  0.00    +0.148 HD
ATOM     17  H   UNL     1      34.482 -14.998 -24.847  0.00  0.00    +0.148 HD
ENDBRANCH   1   8
BRANCH   4  18
ATOM     18  N   UNL     1      33.137 -20.268 -20.439  0.00  0.00    -0.344 N 
ATOM     19  H   UNL     1      32.604 -21.083 -20.585  0.00  0.00    +0.144 HD
ATOM     20  H   UNL     1      32.723 -19.382 -20.551  0.00  0.00    +0.144 HD
ENDBRANCH   4  18
BRANCH   3  22
ATOM     21  O   UNL     1      33.658 -23.073 -19.128  0.00  0.00    -0.285 OA
ATOM     22  C   UNL     1      34.499 -22.389 -18.498  0.00  0.00    +0.213 C 
BRANCH  22  24
ATOM     23  N   UNL     1      36.092 -22.514 -16.618  0.00  0.00    -0.310 N 
ATOM     24  C   UNL     1      34.842 -22.697 -17.145  0.00  0.00    +0.088 C 
ATOM     25  C   UNL     1      36.111 -22.903 -15.296  0.00  0.00    +0.048 C 
ATOM     26  C   UNL     1      34.825 -23.347 -14.980  0.00  0.00    +0.015 C 
ATOM     27  C   UNL     1      34.035 -23.212 -16.157  0.00  0.00    +0.019 C 
ATOM     28  C   UNL     1      37.157 -22.895 -14.367  0.00  0.00    +0.015 C 
ATOM     29  C   UNL     1      34.569 -23.805 -13.673  0.00  0.00    +0.001 C 
ATOM     30  C   UNL     1      36.879 -23.354 -13.077  0.00  0.00    +0.001 C 
ATOM     31  C   UNL     1      35.605 -23.803 -12.733  0.00  0.00    +0.000 C 
ATOM     32  H   UNL     1      36.865 -22.157 -17.111  0.00  0.00    +0.152 HD
ENDBRANCH  22  24
ENDBRANCH   3  22
TORSDOF 4
ENDMDL
MODEL 4
REMARK VINA RESULT:     -11.6      3.073     10.413
REMARK  Name = 66555680
REMARK  4 active torsions:
REMARK  status: ('A' for Active; 'I' for Inactive)
REMARK    1  A    between atoms: N_1  and  C_8
REMARK    2  A    between atoms: C_3  and  C_22
REMARK    3  A    between atoms: C_4  and  N_18
REMARK    4  A    between atoms: C_22  and  C_24
REMARK                            x       y       z     vdW  Elec       q    Type
REMARK                         _______ _______ _______ _____ _____    ______ ____
ROOT
ATOM      1  N   UNL     1      33.550 -13.159 -22.817  0.00  0.00    -0.177 N 
ATOM      2  N   UNL     1      34.037 -12.223 -23.650  0.00  0.00    -0.171 NA
ATOM      3  C   UNL     1      32.338 -11.399 -22.366  0.00  0.00    +0.090 C 
ATOM      4  C   UNL     1      32.530 -12.716 -22.027  0.00  0.00    +0.122 C 
ATOM      5  C   UNL     1      33.293 -11.150 -23.369  0.00  0.00    +0.124 C 
ENDROOT
BRANCH   1   8
ATOM      6  N   UNL     1      35.623 -17.124 -20.757  0.00  0.00    -0.318 N 
ATOM      7  N   UNL     1      35.761 -18.243 -22.673  0.00  0.00    -0.318 N 
ATOM      8  C   UNL     1      34.099 -14.443 -22.831  0.00  0.00    +0.077 C 
ATOM      9  C   UNL     1      35.094 -16.289 -21.707  0.00  0.00    +0.060 C 
ATOM     10  C   UNL     1      34.554 -15.005 -21.633  0.00  0.00    +0.032 C 
ATOM     11  C   UNL     1      35.191 -17.010 -22.894  0.00  0.00    +0.059 C 
ATOM     12  C   UNL     1      34.183 -15.142 -24.037  0.00  0.00    +0.018 C 
ATOM     13  C   UNL     1      34.729 -16.430 -24.087  0.00  0.00    +0.017 C 
ATOM     14  C   UNL     1      36.007 -18.278 -21.382  0.00  0.00    +0.144 C 
ATOM     15  C   UNL     1      36.619 -19.388 -20.630  0.00  0.00    +0.044 C 
ATOM     16  H   UNL     1      35.710 -16.928 -19.796  0.00  0.00    +0.148 HD
ATOM     17  H   UNL     1      35.945 -18.946 -23.336  0.00  0.00    +0.148 HD
ENDBRANCH   1   8
BRANCH   4  18
ATOM     18  N   UNL     1      31.917 -13.518 -21.129  0.00  0.00    -0.344 N 
ATOM     19  H   UNL     1      31.716 -13.183 -20.226  0.00  0.00    +0.144 HD
ATOM     20  H   UNL     1      31.673 -14.439 -21.378  0.00  0.00    +0.144 HD
ENDBRANCH   4  18
BRANCH   3  22
ATOM     21  O   UNL     1      30.364 -11.009 -21.173  0.00  0.00    -0.285 OA
ATOM     22  C   UNL     1      31.319 -10.460 -21.771  0.00  0.00    +0.213 C 
BRANCH  22  24
ATOM     23  N   UNL     1      30.993  -8.322 -22.959  0.00  0.00    -0.310 N 
ATOM     24  C   UNL     1      31.413  -9.038 -21.869  0.00  0.00    +0.088 C 
ATOM     25  C   UNL     1      31.215  -6.978 -22.757  0.00  0.00    +0.048 C 
ATOM     26  C   UNL     1      31.796  -6.841 -21.495  0.00  0.00    +0.015 C 
ATOM     27  C   UNL     1      31.915  -8.150 -20.946  0.00  0.00    +0.019 C 
ATOM     28  C   UNL     1      30.950  -5.884 -23.588  0.00  0.00    +0.015 C 
ATOM     29  C   UNL     1      32.128  -5.552 -21.036  0.00  0.00    +0.001 C 
ATOM     30  C   UNL     1      31.287  -4.614 -23.112  0.00  0.00    +0.001 C 
ATOM     31  C   UNL     1      31.867  -4.448 -21.856  0.00  0.00    +0.000 C 
ATOM     32  H   UNL     1      30.591  -8.711 -23.768  0.00  0.00    +0.152 HD
ENDBRANCH  22  24
ENDBRANCH   3  22
TORSDOF 4
ENDMDL
MODEL 5
REMARK VINA RESULT:     -11.5      2.770      5.469
REMARK  Name = 66555680
REMARK  4 active torsions:
REMARK  status: ('A' for Active; 'I' for Inactive)
REMARK    1  A    between atoms: N_1  and  C_8
REMARK    2  A    between atoms: C_3  and  C_22
REMARK    3  A    between atoms: C_4  and  N_18
REMARK    4  A    between atoms: C_22  and  C_24
REMARK                            x       y       z     vdW  Elec       q    Type
REMARK                         _______ _______ _______ _____ _____    ______ ____
ROOT
ATOM      1  N   UNL     1      35.275 -19.790 -20.438  0.00  0.00    -0.177 N 
ATOM      2  N   UNL     1      36.448 -20.058 -19.839  0.00  0.00    -0.171 NA
ATOM      3  C   UNL     1      34.887 -21.662 -19.381  0.00  0.00    +0.090 C 
ATOM      4  C   UNL     1      34.306 -20.720 -20.195  0.00  0.00    +0.122 C 
ATOM      5  C   UNL     1      36.204 -21.204 -19.195  0.00  0.00    +0.124 C 
ENDROOT
BRANCH   1   8
ATOM      6  N   UNL     1      34.568 -14.969 -21.162  0.00  0.00    -0.318 N 
ATOM      7  N   UNL     1      34.750 -15.114 -23.373  0.00  0.00    -0.318 N 
ATOM      8  C   UNL     1      35.150 -18.639 -21.219  0.00  0.00    +0.077 C 
ATOM      9  C   UNL     1      34.796 -16.296 -21.424  0.00  0.00    +0.060 C 
ATOM     10  C   UNL     1      34.912 -17.411 -20.594  0.00  0.00    +0.032 C 
ATOM     11  C   UNL     1      34.906 -16.360 -22.810  0.00  0.00    +0.059 C 
ATOM     12  C   UNL     1      35.265 -18.735 -22.607  0.00  0.00    +0.018 C 
ATOM     13  C   UNL     1      35.145 -17.603 -23.421  0.00  0.00    +0.017 C 
ATOM     14  C   UNL     1      34.550 -14.305 -22.357  0.00  0.00    +0.144 C 
ATOM     15  C   UNL     1      34.325 -12.849 -22.419  0.00  0.00    +0.044 C 
ATOM     16  H   UNL     1      34.442 -14.567 -20.272  0.00  0.00    +0.148 HD
ATOM     17  H   UNL     1      34.781 -14.879 -24.328  0.00  0.00    +0.148 HD
ENDBRANCH   1   8
BRANCH   4  18
ATOM     18  N   UNL     1      33.064 -20.615 -20.715  0.00  0.00    -0.344 N 
ATOM     19  H   UNL     1      32.277 -20.791 -20.151  0.00  0.00    +0.144 HD
ATOM     20  H   UNL     1      32.946 -20.363 -21.660  0.00  0.00    +0.144 HD
ENDBRANCH   4  18
BRANCH   3  22
ATOM     21  O   UNL     1      34.328 -23.928 -19.542  0.00  0.00    -0.285 OA
ATOM     22  C   UNL     1      34.225 -22.901 -18.831  0.00  0.00    +0.213 C 
BRANCH  22  24
ATOM     23  N   UNL     1      32.169 -22.752 -17.475  0.00  0.00    -0.310 N 
ATOM     24  C   UNL     1      33.522 -22.926 -17.587  0.00  0.00    +0.088 C 
ATOM     25  C   UNL     1      31.788 -22.828 -16.154  0.00  0.00    +0.048 C 
ATOM     26  C   UNL     1      32.945 -23.058 -15.405  0.00  0.00    +0.015 C 
ATOM     27  C   UNL     1      34.031 -23.117 -16.323  0.00  0.00    +0.019 C 
ATOM     28  C   UNL     1      30.523 -22.711 -15.570  0.00  0.00    +0.015 C 
ATOM     29  C   UNL     1      32.834 -23.179 -14.007  0.00  0.00    +0.001 C 
ATOM     30  C   UNL     1      30.437 -22.835 -14.181  0.00  0.00    +0.001 C 
ATOM     31  C   UNL     1      31.575 -23.065 -13.409  0.00  0.00    +0.000 C 
ATOM     32  H   UNL     1      31.557 -22.595 -18.230  0.00  0.00    +0.152 HD
ENDBRANCH  22  24
ENDBRANCH   3  22
TORSDOF 4
ENDMDL
MODEL 6
REMARK VINA RESULT:     -11.5      1.992      8.738
REMARK  Name = 66555680
REMARK  4 active torsions:
REMARK  status: ('A' for Active; 'I' for Inactive)
REMARK    1  A    between atoms: N_1  and  C_8
REMARK    2  A    between atoms: C_3  and  C_22
REMARK    3  A    between atoms: C_4  and  N_18
REMARK    4  A    between atoms: C_22  and  C_24
REMARK                            x       y       z     vdW  Elec       q    Type
REMARK                         _______ _______ _______ _____ _____    ______ ____
ROOT
ATOM      1  N   UNL     1      34.753 -19.063 -21.910  0.00  0.00    -0.177 N 
ATOM      2  N   UNL     1      34.457 -19.543 -23.130  0.00  0.00    -0.171 NA
ATOM      3  C   UNL     1      34.749 -17.278 -23.168  0.00  0.00    +0.090 C 
ATOM      4  C   UNL     1      34.938 -17.712 -21.879  0.00  0.00    +0.122 C 
ATOM      5  C   UNL     1      34.456 -18.448 -23.894  0.00  0.00    +0.124 C 
ENDROOT
BRANCH   1   8
ATOM      6  N   UNL     1      32.914 -22.029 -18.433  0.00  0.00    -0.318 N 
ATOM      7  N   UNL     1      34.910 -22.570 -17.616  0.00  0.00    -0.318 N 
ATOM      8  C   UNL     1      34.843 -19.943 -20.829  0.00  0.00    +0.077 C 
ATOM      9  C   UNL     1      33.822 -21.344 -19.199  0.00  0.00    +0.060 C 
ATOM     10  C   UNL     1      33.671 -20.471 -20.277  0.00  0.00    +0.032 C 
ATOM     11  C   UNL     1      35.059 -21.698 -18.670  0.00  0.00    +0.059 C 
ATOM     12  C   UNL     1      36.099 -20.280 -20.319  0.00  0.00    +0.018 C 
ATOM     13  C   UNL     1      36.226 -21.158 -19.237  0.00  0.00    +0.017 C 
ATOM     14  C   UNL     1      33.612 -22.747 -17.502  0.00  0.00    +0.144 C 
ATOM     15  C   UNL     1      32.921 -23.599 -16.517  0.00  0.00    +0.044 C 
ATOM     16  H   UNL     1      31.935 -22.009 -18.536  0.00  0.00    +0.148 HD
ATOM     17  H   UNL     1      35.620 -22.974 -17.067  0.00  0.00    +0.148 HD
ENDBRANCH   1   8
BRANCH   4  18
ATOM     18  N   UNL     1      35.243 -17.055 -20.738  0.00  0.00    -0.344 N 
ATOM     19  H   UNL     1      36.145 -17.131 -20.352  0.00  0.00    +0.144 HD
ATOM     20  H   UNL     1      34.562 -16.501 -20.293  0.00  0.00    +0.144 HD
ENDBRANCH   4  18
BRANCH   3  22
ATOM     21  O   UNL     1      35.606 -15.671 -24.636  0.00  0.00    -0.285 OA
ATOM     22  C   UNL     1      34.844 -15.855 -23.658  0.00  0.00    +0.213 C 
BRANCH  22  24
ATOM     23  N   UNL     1      33.762 -14.736 -21.743  0.00  0.00    -0.310 N 
ATOM     24  C   UNL     1      34.127 -14.772 -23.062  0.00  0.00    +0.088 C 
ATOM     25  C   UNL     1      33.084 -13.569 -21.470  0.00  0.00    +0.048 C 
ATOM     26  C   UNL     1      33.019 -12.843 -22.661  0.00  0.00    +0.015 C 
ATOM     27  C   UNL     1      33.681 -13.615 -23.658  0.00  0.00    +0.019 C 
ATOM     28  C   UNL     1      32.529 -13.106 -20.272  0.00  0.00    +0.015 C 
ATOM     29  C   UNL     1      32.370 -11.593 -22.659  0.00  0.00    +0.001 C 
ATOM     30  C   UNL     1      31.890 -11.863 -20.294  0.00  0.00    +0.001 C 
ATOM     31  C   UNL     1      31.810 -11.117 -21.468  0.00  0.00    +0.000 C 
ATOM     32  H   UNL     1      33.957 -15.442 -21.085  0.00  0.00    +0.152 HD
ENDBRANCH  22  24
ENDBRANCH   3  22
TORSDOF 4
ENDMDL
MODEL 7
REMARK VINA RESULT:     -11.4      3.572     10.968
REMARK  Name = 66555680
REMARK  4 active torsions:
REMARK  status: ('A' for Active; 'I' for Inactive)
REMARK    1  A    between atoms: N_1  and  C_8
REMARK    2  A    between atoms: C_3  and  C_22
REMARK    3  A    between atoms: C_4  and  N_18
REMARK    4  A    between atoms: C_22  and  C_24
REMARK                            x       y       z     vdW  Elec       q    Type
REMARK                         _______ _______ _______ _____ _____    ______ ____
ROOT
ATOM      1  N   UNL     1      33.405 -12.042 -23.212  0.00  0.00    -0.177 N 
ATOM      2  N   UNL     1      34.126 -11.070 -23.799  0.00  0.00    -0.171 NA
ATOM      3  C   UNL     1      32.535 -10.208 -22.405  0.00  0.00    +0.090 C 
ATOM      4  C   UNL     1      32.439 -11.578 -22.368  0.00  0.00    +0.122 C 
ATOM      5  C   UNL     1      33.590  -9.952 -23.301  0.00  0.00    +0.124 C 
ENDROOT
BRANCH   1   8
ATOM      6  N   UNL     1      35.354 -16.469 -22.281  0.00  0.00    -0.318 N 
ATOM      7  N   UNL     1      34.636 -17.360 -24.186  0.00  0.00    -0.318 N 
ATOM      8  C   UNL     1      33.690 -13.377 -23.501  0.00  0.00    +0.077 C 
ATOM      9  C   UNL     1      34.681 -15.463 -22.925  0.00  0.00    +0.060 C 
ATOM     10  C   UNL     1      34.426 -14.134 -22.583  0.00  0.00    +0.032 C 
ATOM     11  C   UNL     1      34.243 -16.044 -24.111  0.00  0.00    +0.059 C 
ATOM     12  C   UNL     1      33.237 -13.933 -24.699  0.00  0.00    +0.018 C 
ATOM     13  C   UNL     1      33.505 -15.269 -25.022  0.00  0.00    +0.017 C 
ATOM     14  C   UNL     1      35.299 -17.582 -23.073  0.00  0.00    +0.144 C 
ATOM     15  C   UNL     1      35.934 -18.847 -22.661  0.00  0.00    +0.044 C 
ATOM     16  H   UNL     1      35.797 -16.401 -21.404  0.00  0.00    +0.148 HD
ATOM     17  H   UNL     1      34.459 -17.999 -24.914  0.00  0.00    +0.148 HD
ENDBRANCH   1   8
BRANCH   4  18
ATOM     18  N   UNL     1      31.618 -12.409 -21.690  0.00  0.00    -0.344 N 
ATOM     19  H   UNL     1      31.934 -13.301 -21.420  0.00  0.00    +0.144 HD
ATOM     20  H   UNL     1      30.704 -12.123 -21.466  0.00  0.00    +0.144 HD
ENDBRANCH   4  18
BRANCH   3  22
ATOM     21  O   UNL     1      31.093  -9.696 -20.636  0.00  0.00    -0.285 OA
ATOM     22  C   UNL     1      31.681  -9.228 -21.639  0.00  0.00    +0.213 C 
BRANCH  22  24
ATOM     23  N   UNL     1      31.168  -7.446 -23.266  0.00  0.00    -0.310 N 
ATOM     24  C   UNL     1      31.536  -7.857 -22.013  0.00  0.00    +0.088 C 
ATOM     25  C   UNL     1      31.115  -6.070 -23.317  0.00  0.00    +0.048 C 
ATOM     26  C   UNL     1      31.462  -5.598 -22.050  0.00  0.00    +0.015 C 
ATOM     27  C   UNL     1      31.725  -6.737 -21.237  0.00  0.00    +0.019 C 
ATOM     28  C   UNL     1      30.789  -5.218 -24.378  0.00  0.00    +0.015 C 
ATOM     29  C   UNL     1      31.485  -4.207 -21.828  0.00  0.00    +0.001 C 
ATOM     30  C   UNL     1      30.819  -3.842 -24.134  0.00  0.00    +0.001 C 
ATOM     31  C   UNL     1      31.162  -3.342 -22.879  0.00  0.00    +0.000 C 
ATOM     32  H   UNL     1      30.970  -8.045 -24.021  0.00  0.00    +0.152 HD
ENDBRANCH  22  24
ENDBRANCH   3  22
TORSDOF 4
ENDMDL
MODEL 8
REMARK VINA RESULT:     -11.3      1.402      2.429
REMARK  Name = 66555680
REMARK  4 active torsions:
REMARK  status: ('A' for Active; 'I' for Inactive)
REMARK    1  A    between atoms: N_1  and  C_8
REMARK    2  A    between atoms: C_3  and  C_22
REMARK    3  A    between atoms: C_4  and  N_18
REMARK    4  A    between atoms: C_22  and  C_24
REMARK                            x       y       z     vdW  Elec       q    Type
REMARK                         _______ _______ _______ _____ _____    ______ ____
ROOT
ATOM      1  N   UNL     1      33.615 -13.622 -21.742  0.00  0.00    -0.177 N 
ATOM      2  N   UNL     1      34.106 -13.823 -20.507  0.00  0.00    -0.171 NA
ATOM      3  C   UNL     1      34.609 -15.560 -21.902  0.00  0.00    +0.090 C 
ATOM      4  C   UNL     1      33.888 -14.633 -22.616  0.00  0.00    +0.122 C 
ATOM      5  C   UNL     1      34.713 -15.009 -20.612  0.00  0.00    +0.124 C 
ENDROOT
BRANCH   1   8
ATOM      6  N   UNL     1      32.856  -9.303 -23.986  0.00  0.00    -0.318 N 
ATOM      7  N   UNL     1      30.924  -8.926 -22.952  0.00  0.00    -0.318 N 
ATOM      8  C   UNL     1      32.901 -12.453 -22.015  0.00  0.00    +0.077 C 
ATOM      9  C   UNL     1      32.660 -10.386 -23.169  0.00  0.00    +0.060 C 
ATOM     10  C   UNL     1      33.416 -11.536 -22.937  0.00  0.00    +0.032 C 
ATOM     11  C   UNL     1      31.449 -10.128 -22.535  0.00  0.00    +0.059 C 
ATOM     12  C   UNL     1      31.688 -12.221 -21.363  0.00  0.00    +0.018 C 
ATOM     13  C   UNL     1      30.946 -11.060 -21.611  0.00  0.00    +0.017 C 
ATOM     14  C   UNL     1      31.792  -8.459 -23.821  0.00  0.00    +0.144 C 
ATOM     15  C   UNL     1      31.699  -7.190 -24.567  0.00  0.00    +0.044 C 
ATOM     16  H   UNL     1      33.624  -9.159 -24.585  0.00  0.00    +0.148 HD
ATOM     17  H   UNL     1      30.081  -8.507 -22.663  0.00  0.00    +0.148 HD
ENDBRANCH   1   8
BRANCH   4  18
ATOM     18  N   UNL     1      33.474 -14.603 -23.901  0.00  0.00    -0.344 N 
ATOM     19  H   UNL     1      33.975 -14.082 -24.568  0.00  0.00    +0.144 HD
ATOM     20  H   UNL     1      32.670 -15.103 -24.170  0.00  0.00    +0.144 HD
ENDBRANCH   4  18
BRANCH   3  22
ATOM     21  O   UNL     1      35.455 -16.879 -23.639  0.00  0.00    -0.285 OA
ATOM     22  C   UNL     1      35.151 -16.867 -22.423  0.00  0.00    +0.213 C 
BRANCH  22  24
ATOM     23  N   UNL     1      34.280 -18.833 -21.213  0.00  0.00    -0.310 N 
ATOM     24  C   UNL     1      35.315 -18.028 -21.606  0.00  0.00    +0.088 C 
ATOM     25  C   UNL     1      34.752 -19.867 -20.435  0.00  0.00    +0.048 C 
ATOM     26  C   UNL     1      36.136 -19.708 -20.335  0.00  0.00    +0.015 C 
ATOM     27  C   UNL     1      36.477 -18.543 -21.079  0.00  0.00    +0.019 C 
ATOM     28  C   UNL     1      34.068 -20.920 -19.819  0.00  0.00    +0.015 C 
ATOM     29  C   UNL     1      36.874 -20.644 -19.585  0.00  0.00    +0.001 C 
ATOM     30  C   UNL     1      34.820 -21.836 -19.080  0.00  0.00    +0.001 C 
ATOM     31  C   UNL     1      36.203 -21.702 -18.963  0.00  0.00    +0.000 C 
ATOM     32  H   UNL     1      33.335 -18.693 -21.450  0.00  0.00    +0.152 HD
ENDBRANCH  22  24
ENDBRANCH   3  22
TORSDOF 4
ENDMDL
MODEL 9
REMARK VINA RESULT:     -11.2      2.496      9.730
REMARK  Name = 66555680
REMARK  4 active torsions:
REMARK  status: ('A' for Active; 'I' for Inactive)
REMARK    1  A    between atoms: N_1  and  C_8
REMARK    2  A    between atoms: C_3  and  C_22
REMARK    3  A    between atoms: C_4  and  N_18
REMARK    4  A    between atoms: C_22  and  C_24
REMARK                            x       y       z     vdW  Elec       q    Type
REMARK                         _______ _______ _______ _____ _____    ______ ____
ROOT
ATOM      1  N   UNL     1      34.717 -20.897 -19.478  0.00  0.00    -0.177 N 
ATOM      2  N   UNL     1      33.596 -20.808 -20.215  0.00  0.00    -0.171 NA
ATOM      3  C   UNL     1      35.251 -19.467 -21.042  0.00  0.00    +0.090 C 
ATOM      4  C   UNL     1      35.738 -20.113 -19.931  0.00  0.00    +0.122 C 
ATOM      5  C   UNL     1      33.929 -19.934 -21.168  0.00  0.00    +0.124 C 
ENDROOT
BRANCH   1   8
ATOM      6  N   UNL     1      36.800 -22.974 -15.527  0.00  0.00    -0.318 N 
ATOM      7  N   UNL     1      35.007 -24.190 -15.026  0.00  0.00    -0.318 N 
ATOM      8  C   UNL     1      34.743 -21.740 -18.366  0.00  0.00    +0.077 C 
ATOM      9  C   UNL     1      35.869 -22.667 -16.486  0.00  0.00    +0.060 C 
ATOM     10  C   UNL     1      35.901 -21.807 -17.583  0.00  0.00    +0.032 C 
ATOM     11  C   UNL     1      34.760 -23.438 -16.151  0.00  0.00    +0.059 C 
ATOM     12  C   UNL     1      33.615 -22.503 -18.055  0.00  0.00    +0.018 C 
ATOM     13  C   UNL     1      33.605 -23.360 -16.949  0.00  0.00    +0.017 C 
ATOM     14  C   UNL     1      36.238 -23.887 -14.678  0.00  0.00    +0.144 C 
ATOM     15  C   UNL     1      36.988 -24.425 -13.528  0.00  0.00    +0.044 C 
ATOM     16  H   UNL     1      37.709 -22.602 -15.461  0.00  0.00    +0.148 HD
ATOM     17  H   UNL     1      34.396 -24.819 -14.578  0.00  0.00    +0.148 HD
ENDBRANCH   1   8
BRANCH   4  18
ATOM     18  N   UNL     1      36.940 -20.074 -19.317  0.00  0.00    -0.344 N 
ATOM     19  H   UNL     1      37.155 -19.337 -18.701  0.00  0.00    +0.144 HD
ATOM     20  H   UNL     1      37.603 -20.783 -19.486  0.00  0.00    +0.144 HD
ENDBRANCH   4  18
BRANCH   3  22
ATOM     21  O   UNL     1      37.230 -18.691 -22.018  0.00  0.00    -0.285 OA
ATOM     22  C   UNL     1      35.998 -18.484 -21.907  0.00  0.00    +0.213 C 
BRANCH  22  24
ATOM     23  N   UNL     1      35.271 -16.129 -22.023  0.00  0.00    -0.310 N 
ATOM     24  C   UNL     1      35.369 -17.383 -22.564  0.00  0.00    +0.088 C 
ATOM     25  C   UNL     1      34.613 -15.287 -22.891  0.00  0.00    +0.048 C 
ATOM     26  C   UNL     1      34.284 -16.038 -24.022  0.00  0.00    +0.015 C 
ATOM     27  C   UNL     1      34.767 -17.359 -23.801  0.00  0.00    +0.019 C 
ATOM     28  C   UNL     1      34.288 -13.933 -22.764  0.00  0.00    +0.015 C 
ATOM     29  C   UNL     1      33.598 -15.408 -25.078  0.00  0.00    +0.001 C 
ATOM     30  C   UNL     1      33.607 -13.329 -23.824  0.00  0.00    +0.001 C 
ATOM     31  C   UNL     1      33.265 -14.053 -24.964  0.00  0.00    +0.000 C 
ATOM     32  H   UNL     1      35.621 -15.868 -21.140  0.00  0.00    +0.152 HD
ENDBRANCH  22  24
ENDBRANCH   3  22
TORSDOF 4
ENDMDL
