MODEL 1
REMARK VINA RESULT:     -10.8      0.000      0.000
REMARK  Name = 11315474
REMARK  6 active torsions:
REMARK  status: ('A' for Active; 'I' for Inactive)
REMARK    1  A    between atoms: N_2  and  C_25
REMARK    2  A    between atoms: C_3  and  C_6
REMARK    3  A    between atoms: N_11  and  C_13
REMARK    4  A    between atoms: C_13  and  C_15
REMARK    5  A    between atoms: C_20  and  C_26
REMARK    6  A    between atoms: C_26  and  C_32
REMARK                            x       y       z     vdW  Elec       q    Type
REMARK                         _______ _______ _______ _____ _____    ______ ____
ROOT
ATOM      1  O   UNL     1      34.326 -22.405 -15.687  0.00  0.00    -0.270 OA
ATOM      2  N   UNL     1      32.808 -22.489 -17.480  0.00  0.00    -0.280 N 
ATOM      3  C   UNL     1      33.283 -22.798 -16.199  0.00  0.00    +0.252 C 
ATOM      4  H   UNL     1      31.946 -22.893 -17.730  0.00  0.00    +0.155 HD
ENDROOT
BRANCH   3   6
ATOM      5  N   UNL     1      32.118 -25.142 -13.511  0.00  0.00    -0.229 NA
ATOM      6  C   UNL     1      32.427 -23.719 -15.407  0.00  0.00    +0.085 C 
ATOM      7  C   UNL     1      32.874 -24.301 -14.251  0.00  0.00    +0.133 C 
ATOM      8  C   UNL     1      31.155 -23.979 -15.863  0.00  0.00    +0.009 C 
ATOM      9  C   UNL     1      30.347 -24.841 -15.129  0.00  0.00    +0.021 C 
ATOM     10  C   UNL     1      30.870 -25.390 -13.969  0.00  0.00    +0.100 C 
ATOM     11  N   UNL     1      34.187 -24.020 -13.796  0.00  0.00    -0.314 N 
ATOM     12  H   UNL     1      34.750 -23.410 -14.323  0.00  0.00    +0.149 HD
BRANCH  11  13
ATOM     13  C   UNL     1      34.725 -24.588 -12.602  0.00  0.00    +0.115 C 
BRANCH  13  15
ATOM     14  N   UNL     1      38.543 -26.374 -13.382  0.00  0.00    -0.242 NA
ATOM     15  C   UNL     1      36.065 -25.215 -12.875  0.00  0.00    +0.000 C 
ATOM     16  C   UNL     1      36.974 -25.364 -11.843  0.00  0.00    +0.018 C 
ATOM     17  C   UNL     1      36.376 -25.635 -14.157  0.00  0.00    +0.018 C 
ATOM     18  C   UNL     1      38.194 -25.948 -12.147  0.00  0.00    +0.099 C 
ATOM     19  C   UNL     1      37.622 -26.205 -14.357  0.00  0.00    +0.099 C 
ENDBRANCH  13  15
ENDBRANCH  11  13
ENDBRANCH   3   6
BRANCH   2  25
ATOM     20  C   UNL     1      34.605 -20.061 -20.379  0.00  0.00    -0.010 C 
ATOM     21  C   UNL     1      33.224 -20.013 -20.187  0.00  0.00    -0.002 C 
ATOM     22  C   UNL     1      35.387 -20.919 -19.605  0.00  0.00    -0.002 C 
ATOM     23  C   UNL     1      32.625 -20.822 -19.221  0.00  0.00    +0.014 C 
ATOM     24  C   UNL     1      34.788 -21.728 -18.638  0.00  0.00    +0.014 C 
ATOM     25  C   UNL     1      33.407 -21.679 -18.446  0.00  0.00    +0.051 C 
BRANCH  20  26
ATOM     26  C   UNL     1      35.259 -19.176 -21.435  0.00  0.00    +0.098 C 
ATOM     27  C   UNL     1      34.657 -17.756 -21.519  0.00  0.00    +0.018 C 
ATOM     28  C   UNL     1      35.026 -19.658 -22.884  0.00  0.00    +0.018 C 
ATOM     29  C   UNL     1      35.041 -17.219 -22.897  0.00  0.00    +0.001 C 
ATOM     30  C   UNL     1      35.272 -18.444 -23.776  0.00  0.00    +0.001 C 
BRANCH  26  32
ATOM     31  N   UNL     1      37.851 -19.032 -20.936  0.00  0.00    -0.196 NA
ATOM     32  C   UNL     1      36.714 -19.095 -21.155  0.00  0.00    +0.075 C 
ENDBRANCH  26  32
ENDBRANCH  20  26
ENDBRANCH   2  25
TORSDOF 6
ENDMDL
MODEL 2
REMARK VINA RESULT:     -10.5      3.257     10.306
REMARK  Name = 11315474
REMARK  6 active torsions:
REMARK  status: ('A' for Active; 'I' for Inactive)
REMARK    1  A    between atoms: N_2  and  C_25
REMARK    2  A    between atoms: C_3  and  C_6
REMARK    3  A    between atoms: N_11  and  C_13
REMARK    4  A    between atoms: C_13  and  C_15
REMARK    5  A    between atoms: C_20  and  C_26
REMARK    6  A    between atoms: C_26  and  C_32
REMARK                            x       y       z     vdW  Elec       q    Type
REMARK                         _______ _______ _______ _____ _____    ______ ____
ROOT
ATOM      1  O   UNL     1      36.213 -18.442 -20.371  0.00  0.00    -0.270 OA
ATOM      2  N   UNL     1      34.932 -20.399 -20.603  0.00  0.00    -0.280 N 
ATOM      3  C   UNL     1      35.458 -19.166 -21.010  0.00  0.00    +0.252 C 
ATOM      4  H   UNL     1      34.338 -20.849 -21.247  0.00  0.00    +0.155 HD
ENDROOT
BRANCH   3   6
ATOM      5  N   UNL     1      34.569 -16.911 -23.875  0.00  0.00    -0.229 NA
ATOM      6  C   UNL     1      35.019 -18.697 -22.351  0.00  0.00    +0.085 C 
ATOM      7  C   UNL     1      34.964 -17.366 -22.665  0.00  0.00    +0.133 C 
ATOM      8  C   UNL     1      34.664 -19.642 -23.286  0.00  0.00    +0.009 C 
ATOM      9  C   UNL     1      34.252 -19.213 -24.544  0.00  0.00    +0.021 C 
ATOM     10  C   UNL     1      34.223 -17.848 -24.785  0.00  0.00    +0.100 C 
ATOM     11  N   UNL     1      35.334 -16.407 -21.688  0.00  0.00    -0.314 N 
ATOM     12  H   UNL     1      35.624 -16.722 -20.802  0.00  0.00    +0.149 HD
BRANCH  11  13
ATOM     13  C   UNL     1      35.303 -15.002 -21.939  0.00  0.00    +0.115 C 
BRANCH  13  15
ATOM     14  N   UNL     1      31.670 -13.291 -20.441  0.00  0.00    -0.242 NA
ATOM     15  C   UNL     1      34.028 -14.402 -21.413  0.00  0.00    +0.000 C 
ATOM     16  C   UNL     1      33.608 -14.702 -20.129  0.00  0.00    +0.018 C 
ATOM     17  C   UNL     1      33.286 -13.555 -22.219  0.00  0.00    +0.018 C 
ATOM     18  C   UNL     1      32.427 -14.124 -19.692  0.00  0.00    +0.099 C 
ATOM     19  C   UNL     1      32.120 -13.029 -21.688  0.00  0.00    +0.099 C 
ENDBRANCH  13  15
ENDBRANCH  11  13
ENDBRANCH   3   6
BRANCH   2  25
ATOM     20  C   UNL     1      35.574 -22.406 -16.986  0.00  0.00    -0.010 C 
ATOM     21  C   UNL     1      34.319 -22.449 -17.595  0.00  0.00    -0.002 C 
ATOM     22  C   UNL     1      36.615 -21.693 -17.583  0.00  0.00    -0.002 C 
ATOM     23  C   UNL     1      34.106 -21.780 -18.800  0.00  0.00    +0.014 C 
ATOM     24  C   UNL     1      36.400 -21.025 -18.789  0.00  0.00    +0.014 C 
ATOM     25  C   UNL     1      35.146 -21.069 -19.397  0.00  0.00    +0.051 C 
BRANCH  20  26
ATOM     26  C   UNL     1      35.808 -23.138 -15.668  0.00  0.00    +0.098 C 
ATOM     27  C   UNL     1      35.248 -24.578 -15.646  0.00  0.00    +0.018 C 
ATOM     28  C   UNL     1      35.042 -22.529 -14.473  0.00  0.00    +0.018 C 
ATOM     29  C   UNL     1      35.104 -24.949 -14.172  0.00  0.00    +0.001 C 
ATOM     30  C   UNL     1      34.965 -23.630 -13.418  0.00  0.00    +0.001 C 
BRANCH  26  32
ATOM     31  N   UNL     1      38.402 -23.167 -15.161  0.00  0.00    -0.196 NA
ATOM     32  C   UNL     1      37.263 -23.154 -15.383  0.00  0.00    +0.075 C 
ENDBRANCH  26  32
ENDBRANCH  20  26
ENDBRANCH   2  25
TORSDOF 6
ENDMDL
MODEL 3
REMARK VINA RESULT:     -10.1      3.100     10.316
REMARK  Name = 11315474
REMARK  6 active torsions:
REMARK  status: ('A' for Active; 'I' for Inactive)
REMARK    1  A    between atoms: N_2  and  C_25
REMARK    2  A    between atoms: C_3  and  C_6
REMARK    3  A    between atoms: N_11  and  C_13
REMARK    4  A    between atoms: C_13  and  C_15
REMARK    5  A    between atoms: C_20  and  C_26
REMARK    6  A    between atoms: C_26  and  C_32
REMARK                            x       y       z     vdW  Elec       q    Type
REMARK                         _______ _______ _______ _____ _____    ______ ____
ROOT
ATOM      1  O   UNL     1      36.128 -18.775 -20.330  0.00  0.00    -0.270 OA
ATOM      2  N   UNL     1      34.539 -20.493 -20.561  0.00  0.00    -0.280 N 
ATOM      3  C   UNL     1      35.268 -19.369 -20.972  0.00  0.00    +0.252 C 
ATOM      4  H   UNL     1      33.885 -20.843 -21.207  0.00  0.00    +0.155 HD
ENDROOT
BRANCH   3   6
ATOM      5  N   UNL     1      34.643 -17.004 -23.818  0.00  0.00    -0.229 NA
ATOM      6  C   UNL     1      34.927 -18.847 -22.322  0.00  0.00    +0.085 C 
ATOM      7  C   UNL     1      34.948 -17.507 -22.601  0.00  0.00    +0.133 C 
ATOM      8  C   UNL     1      34.583 -19.750 -23.301  0.00  0.00    +0.009 C 
ATOM      9  C   UNL     1      34.262 -19.271 -24.567  0.00  0.00    +0.021 C 
ATOM     10  C   UNL     1      34.307 -17.901 -24.772  0.00  0.00    +0.100 C 
ATOM     11  N   UNL     1      35.305 -16.591 -21.579  0.00  0.00    -0.314 N 
ATOM     12  H   UNL     1      35.531 -16.941 -20.688  0.00  0.00    +0.149 HD
BRANCH  11  13
ATOM     13  C   UNL     1      35.350 -15.181 -21.792  0.00  0.00    +0.115 C 
BRANCH  13  15
ATOM     14  N   UNL     1      31.717 -13.343 -20.453  0.00  0.00    -0.242 NA
ATOM     15  C   UNL     1      34.076 -14.536 -21.322  0.00  0.00    +0.000 C 
ATOM     16  C   UNL     1      33.587 -14.825 -20.060  0.00  0.00    +0.018 C 
ATOM     17  C   UNL     1      33.403 -13.660 -22.157  0.00  0.00    +0.018 C 
ATOM     18  C   UNL     1      32.409 -14.205 -19.675  0.00  0.00    +0.099 C 
ATOM     19  C   UNL     1      32.234 -13.093 -21.677  0.00  0.00    +0.099 C 
ENDBRANCH  13  15
ENDBRANCH  11  13
ENDBRANCH   3   6
BRANCH   2  25
ATOM     20  C   UNL     1      34.801 -22.544 -16.921  0.00  0.00    -0.010 C 
ATOM     21  C   UNL     1      35.939 -21.955 -17.473  0.00  0.00    -0.002 C 
ATOM     22  C   UNL     1      33.575 -22.449 -17.583  0.00  0.00    -0.002 C 
ATOM     23  C   UNL     1      35.851 -21.271 -18.687  0.00  0.00    +0.014 C 
ATOM     24  C   UNL     1      33.489 -21.765 -18.795  0.00  0.00    +0.014 C 
ATOM     25  C   UNL     1      34.627 -21.176 -19.347  0.00  0.00    +0.051 C 
BRANCH  20  26
ATOM     26  C   UNL     1      34.896 -23.291 -15.594  0.00  0.00    +0.098 C 
ATOM     27  C   UNL     1      36.035 -22.791 -14.678  0.00  0.00    +0.018 C 
ATOM     28  C   UNL     1      35.296 -24.776 -15.743  0.00  0.00    +0.018 C 
ATOM     29  C   UNL     1      36.308 -23.926 -13.692  0.00  0.00    +0.001 C 
ATOM     30  C   UNL     1      35.838 -25.204 -14.381  0.00  0.00    +0.001 C 
BRANCH  26  32
ATOM     31  N   UNL     1      32.576 -23.099 -14.342  0.00  0.00    -0.196 NA
ATOM     32  C   UNL     1      33.594 -23.184 -14.892  0.00  0.00    +0.075 C 
ENDBRANCH  26  32
ENDBRANCH  20  26
ENDBRANCH   2  25
TORSDOF 6
ENDMDL
MODEL 4
REMARK VINA RESULT:     -10.0      6.844     13.153
REMARK  Name = 11315474
REMARK  6 active torsions:
REMARK  status: ('A' for Active; 'I' for Inactive)
REMARK    1  A    between atoms: N_2  and  C_25
REMARK    2  A    between atoms: C_3  and  C_6
REMARK    3  A    between atoms: N_11  and  C_13
REMARK    4  A    between atoms: C_13  and  C_15
REMARK    5  A    between atoms: C_20  and  C_26
REMARK    6  A    between atoms: C_26  and  C_32
REMARK                            x       y       z     vdW  Elec       q    Type
REMARK                         _______ _______ _______ _____ _____    ______ ____
ROOT
ATOM      1  O   UNL     1      33.511 -13.158 -24.543  0.00  0.00    -0.270 OA
ATOM      2  N   UNL     1      34.688 -13.251 -22.510  0.00  0.00    -0.280 N 
ATOM      3  C   UNL     1      34.073 -12.616 -23.597  0.00  0.00    +0.252 C 
ATOM      4  H   UNL     1      35.093 -12.658 -21.836  0.00  0.00    +0.155 HD
ENDROOT
BRANCH   3   6
ATOM      5  N   UNL     1      33.184  -9.013 -23.042  0.00  0.00    -0.229 NA
ATOM      6  C   UNL     1      34.146 -11.131 -23.592  0.00  0.00    +0.085 C 
ATOM      7  C   UNL     1      33.145 -10.364 -23.059  0.00  0.00    +0.133 C 
ATOM      8  C   UNL     1      35.256 -10.533 -24.142  0.00  0.00    +0.009 C 
ATOM      9  C   UNL     1      35.333  -9.144 -24.143  0.00  0.00    +0.021 C 
ATOM     10  C   UNL     1      34.280  -8.436 -23.584  0.00  0.00    +0.100 C 
ATOM     11  N   UNL     1      32.009 -10.998 -22.496  0.00  0.00    -0.314 N 
ATOM     12  H   UNL     1      31.966 -11.981 -22.501  0.00  0.00    +0.149 HD
BRANCH  11  13
ATOM     13  C   UNL     1      30.925 -10.268 -21.923  0.00  0.00    +0.115 C 
BRANCH  13  15
ATOM     14  N   UNL     1      31.864  -9.095 -17.909  0.00  0.00    -0.242 NA
ATOM     15  C   UNL     1      31.254  -9.857 -20.515  0.00  0.00    +0.000 C 
ATOM     16  C   UNL     1      31.249 -10.804 -19.505  0.00  0.00    +0.018 C 
ATOM     17  C   UNL     1      31.559  -8.534 -20.240  0.00  0.00    +0.018 C 
ATOM     18  C   UNL     1      31.560 -10.374 -18.225  0.00  0.00    +0.099 C 
ATOM     19  C   UNL     1      31.855  -8.207 -18.928  0.00  0.00    +0.099 C 
ENDBRANCH  13  15
ENDBRANCH  11  13
ENDBRANCH   3   6
BRANCH   2  25
ATOM     20  C   UNL     1      35.016 -17.359 -21.774  0.00  0.00    -0.010 C 
ATOM     21  C   UNL     1      34.874 -16.469 -20.709  0.00  0.00    -0.002 C 
ATOM     22  C   UNL     1      35.049 -16.880 -23.084  0.00  0.00    -0.002 C 
ATOM     23  C   UNL     1      34.765 -15.099 -20.955  0.00  0.00    +0.014 C 
ATOM     24  C   UNL     1      34.939 -15.511 -23.329  0.00  0.00    +0.014 C 
ATOM     25  C   UNL     1      34.797 -14.621 -22.264  0.00  0.00    +0.051 C 
BRANCH  20  26
ATOM     26  C   UNL     1      35.135 -18.856 -21.505  0.00  0.00    +0.098 C 
ATOM     27  C   UNL     1      34.057 -19.405 -20.545  0.00  0.00    +0.018 C 
ATOM     28  C   UNL     1      36.414 -19.251 -20.736  0.00  0.00    +0.018 C 
ATOM     29  C   UNL     1      34.611 -20.721 -20.001  0.00  0.00    +0.001 C 
ATOM     30  C   UNL     1      36.129 -20.619 -20.118  0.00  0.00    +0.001 C 
BRANCH  26  32
ATOM     31  N   UNL     1      35.033 -20.144 -23.812  0.00  0.00    -0.196 NA
ATOM     32  C   UNL     1      35.078 -19.579 -22.800  0.00  0.00    +0.075 C 
ENDBRANCH  26  32
ENDBRANCH  20  26
ENDBRANCH   2  25
TORSDOF 6
ENDMDL
MODEL 5
REMARK VINA RESULT:     -10.0      1.854      4.603
REMARK  Name = 11315474
REMARK  6 active torsions:
REMARK  status: ('A' for Active; 'I' for Inactive)
REMARK    1  A    between atoms: N_2  and  C_25
REMARK    2  A    between atoms: C_3  and  C_6
REMARK    3  A    between atoms: N_11  and  C_13
REMARK    4  A    between atoms: C_13  and  C_15
REMARK    5  A    between atoms: C_20  and  C_26
REMARK    6  A    between atoms: C_26  and  C_32
REMARK                            x       y       z     vdW  Elec       q    Type
REMARK                         _______ _______ _______ _____ _____    ______ ____
ROOT
ATOM      1  O   UNL     1      37.433 -21.442 -15.657  0.00  0.00    -0.270 OA
ATOM      2  N   UNL     1      35.853 -22.612 -16.946  0.00  0.00    -0.280 N 
ATOM      3  C   UNL     1      36.695 -22.404 -15.847  0.00  0.00    +0.252 C 
ATOM      4  H   UNL     1      35.326 -23.443 -16.936  0.00  0.00    +0.155 HD
ENDROOT
BRANCH   3   6
ATOM      5  N   UNL     1      35.532 -24.808 -13.211  0.00  0.00    -0.229 NA
ATOM      6  C   UNL     1      36.695 -23.488 -14.829  0.00  0.00    +0.085 C 
ATOM      7  C   UNL     1      35.562 -23.828 -14.141  0.00  0.00    +0.133 C 
ATOM      8  C   UNL     1      37.874 -24.154 -14.589  0.00  0.00    +0.009 C 
ATOM      9  C   UNL     1      37.884 -25.169 -13.638  0.00  0.00    +0.021 C 
ATOM     10  C   UNL     1      36.697 -25.456 -12.983  0.00  0.00    +0.100 C 
ATOM     11  N   UNL     1      34.355 -23.131 -14.403  0.00  0.00    -0.314 N 
ATOM     12  H   UNL     1      34.360 -22.415 -15.077  0.00  0.00    +0.149 HD
BRANCH  11  13
ATOM     13  C   UNL     1      33.133 -23.427 -13.726  0.00  0.00    +0.115 C 
BRANCH  13  15
ATOM     14  N   UNL     1      29.779 -22.605 -16.265  0.00  0.00    -0.242 NA
ATOM     15  C   UNL     1      31.956 -23.139 -14.616  0.00  0.00    +0.000 C 
ATOM     16  C   UNL     1      30.683 -23.094 -14.076  0.00  0.00    +0.018 C 
ATOM     17  C   UNL     1      32.157 -22.921 -15.969  0.00  0.00    +0.018 C 
ATOM     18  C   UNL     1      29.632 -22.824 -14.939  0.00  0.00    +0.099 C 
ATOM     19  C   UNL     1      31.041 -22.660 -16.746  0.00  0.00    +0.099 C 
ENDBRANCH  13  15
ENDBRANCH  11  13
ENDBRANCH   3   6
BRANCH   2  25
ATOM     20  C   UNL     1      35.297 -20.132 -20.273  0.00  0.00    -0.010 C 
ATOM     21  C   UNL     1      36.557 -20.235 -19.682  0.00  0.00    -0.002 C 
ATOM     22  C   UNL     1      34.222 -20.856 -19.754  0.00  0.00    -0.002 C 
ATOM     23  C   UNL     1      36.741 -21.061 -18.573  0.00  0.00    +0.014 C 
ATOM     24  C   UNL     1      34.408 -21.682 -18.646  0.00  0.00    +0.014 C 
ATOM     25  C   UNL     1      35.668 -21.785 -18.055  0.00  0.00    +0.051 C 
BRANCH  20  26
ATOM     26  C   UNL     1      35.095 -19.228 -21.485  0.00  0.00    +0.098 C 
ATOM     27  C   UNL     1      33.807 -19.534 -22.283  0.00  0.00    +0.018 C 
ATOM     28  C   UNL     1      36.155 -19.423 -22.591  0.00  0.00    +0.018 C 
ATOM     29  C   UNL     1      34.023 -18.935 -23.672  0.00  0.00    +0.001 C 
ATOM     30  C   UNL     1      35.534 -18.869 -23.872  0.00  0.00    +0.001 C 
BRANCH  26  32
ATOM     31  N   UNL     1      35.082 -16.712 -20.677  0.00  0.00    -0.196 NA
ATOM     32  C   UNL     1      35.087 -17.816 -21.032  0.00  0.00    +0.075 C 
ENDBRANCH  26  32
ENDBRANCH  20  26
ENDBRANCH   2  25
TORSDOF 6
ENDMDL
MODEL 6
REMARK VINA RESULT:      -9.5      5.807     10.203
REMARK  Name = 11315474
REMARK  6 active torsions:
REMARK  status: ('A' for Active; 'I' for Inactive)
REMARK    1  A    between atoms: N_2  and  C_25
REMARK    2  A    between atoms: C_3  and  C_6
REMARK    3  A    between atoms: N_11  and  C_13
REMARK    4  A    between atoms: C_13  and  C_15
REMARK    5  A    between atoms: C_20  and  C_26
REMARK    6  A    between atoms: C_26  and  C_32
REMARK                            x       y       z     vdW  Elec       q    Type
REMARK                         _______ _______ _______ _____ _____    ______ ____
ROOT
ATOM      1  O   UNL     1      35.441 -15.415 -22.155  0.00  0.00    -0.270 OA
ATOM      2  N   UNL     1      33.606 -14.922 -23.539  0.00  0.00    -0.280 N 
ATOM      3  C   UNL     1      34.581 -15.747 -22.964  0.00  0.00    +0.252 C 
ATOM      4  H   UNL     1      32.991 -15.358 -24.173  0.00  0.00    +0.155 HD
ENDROOT
BRANCH   3   6
ATOM      5  N   UNL     1      35.238 -19.438 -23.123  0.00  0.00    -0.229 NA
ATOM      6  C   UNL     1      34.566 -17.163 -23.417  0.00  0.00    +0.085 C 
ATOM      7  C   UNL     1      35.233 -18.144 -22.734  0.00  0.00    +0.133 C 
ATOM      8  C   UNL     1      33.859 -17.474 -24.556  0.00  0.00    +0.009 C 
ATOM      9  C   UNL     1      33.840 -18.796 -24.988  0.00  0.00    +0.021 C 
ATOM     10  C   UNL     1      34.539 -19.732 -24.242  0.00  0.00    +0.100 C 
ATOM     11  N   UNL     1      35.956 -17.805 -21.562  0.00  0.00    -0.314 N 
ATOM     12  H   UNL     1      35.962 -16.866 -21.266  0.00  0.00    +0.149 HD
BRANCH  11  13
ATOM     13  C   UNL     1      36.676 -18.770 -20.796  0.00  0.00    +0.115 C 
BRANCH  13  15
ATOM     14  N   UNL     1      34.000 -21.700 -19.176  0.00  0.00    -0.242 NA
ATOM     15  C   UNL     1      35.737 -19.797 -20.228  0.00  0.00    +0.000 C 
ATOM     16  C   UNL     1      34.370 -19.628 -20.367  0.00  0.00    +0.018 C 
ATOM     17  C   UNL     1      36.248 -20.903 -19.570  0.00  0.00    +0.018 C 
ATOM     18  C   UNL     1      33.548 -20.604 -19.825  0.00  0.00    +0.099 C 
ATOM     19  C   UNL     1      35.342 -21.820 -19.064  0.00  0.00    +0.099 C 
ENDBRANCH  13  15
ENDBRANCH  11  13
ENDBRANCH   3   6
BRANCH   2  25
ATOM     20  C   UNL     1      32.982 -10.833 -22.895  0.00  0.00    -0.010 C 
ATOM     21  C   UNL     1      32.238 -11.773 -22.182  0.00  0.00    -0.002 C 
ATOM     22  C   UNL     1      33.935 -11.257 -23.823  0.00  0.00    -0.002 C 
ATOM     23  C   UNL     1      32.445 -13.136 -22.397  0.00  0.00    +0.014 C 
ATOM     24  C   UNL     1      34.143 -12.619 -24.036  0.00  0.00    +0.014 C 
ATOM     25  C   UNL     1      33.398 -13.559 -23.323  0.00  0.00    +0.051 C 
BRANCH  20  26
ATOM     26  C   UNL     1      32.755  -9.343 -22.660  0.00  0.00    +0.098 C 
ATOM     27  C   UNL     1      32.344  -8.996 -21.211  0.00  0.00    +0.018 C 
ATOM     28  C   UNL     1      31.548  -8.767 -23.433  0.00  0.00    +0.018 C 
ATOM     29  C   UNL     1      31.680  -7.622 -21.283  0.00  0.00    +0.001 C 
ATOM     30  C   UNL     1      31.163  -7.478 -22.710  0.00  0.00    +0.001 C 
BRANCH  26  32
ATOM     31  N   UNL     1      34.956  -8.034 -23.313  0.00  0.00    -0.196 NA
ATOM     32  C   UNL     1      33.990  -8.609 -23.026  0.00  0.00    +0.075 C 
ENDBRANCH  26  32
ENDBRANCH  20  26
ENDBRANCH   2  25
TORSDOF 6
ENDMDL
MODEL 7
REMARK VINA RESULT:      -9.5     10.789     15.396
REMARK  Name = 11315474
REMARK  6 active torsions:
REMARK  status: ('A' for Active; 'I' for Inactive)
REMARK    1  A    between atoms: N_2  and  C_25
REMARK    2  A    between atoms: C_3  and  C_6
REMARK    3  A    between atoms: N_11  and  C_13
REMARK    4  A    between atoms: C_13  and  C_15
REMARK    5  A    between atoms: C_20  and  C_26
REMARK    6  A    between atoms: C_26  and  C_32
REMARK                            x       y       z     vdW  Elec       q    Type
REMARK                         _______ _______ _______ _____ _____    ______ ____
ROOT
ATOM      1  O   UNL     1      32.785 -10.342 -24.319  0.00  0.00    -0.270 OA
ATOM      2  N   UNL     1      33.076  -8.420 -22.996  0.00  0.00    -0.280 N 
ATOM      3  C   UNL     1      32.737  -9.757 -23.241  0.00  0.00    +0.252 C 
ATOM      4  H   UNL     1      32.977  -8.114 -22.065  0.00  0.00    +0.155 HD
ENDROOT
BRANCH   3   6
ATOM      5  N   UNL     1      32.351 -12.452 -20.658  0.00  0.00    -0.229 NA
ATOM      6  C   UNL     1      32.250 -10.519 -22.061  0.00  0.00    +0.085 C 
ATOM      7  C   UNL     1      32.775 -11.737 -21.724  0.00  0.00    +0.133 C 
ATOM      8  C   UNL     1      31.244  -9.967 -21.302  0.00  0.00    +0.009 C 
ATOM      9  C   UNL     1      30.780 -10.673 -20.196  0.00  0.00    +0.021 C 
ATOM     10  C   UNL     1      31.363 -11.899 -19.919  0.00  0.00    +0.100 C 
ATOM     11  N   UNL     1      33.812 -12.290 -22.518  0.00  0.00    -0.314 N 
ATOM     12  H   UNL     1      34.131 -11.782 -23.298  0.00  0.00    +0.149 HD
BRANCH  11  13
ATOM     13  C   UNL     1      34.409 -13.554 -22.232  0.00  0.00    +0.115 C 
BRANCH  13  15
ATOM     14  N   UNL     1      33.657 -16.325 -25.415  0.00  0.00    -0.242 NA
ATOM     15  C   UNL     1      34.145 -14.525 -23.349  0.00  0.00    +0.000 C 
ATOM     16  C   UNL     1      33.310 -14.162 -24.391  0.00  0.00    +0.018 C 
ATOM     17  C   UNL     1      34.740 -15.776 -23.324  0.00  0.00    +0.018 C 
ATOM     18  C   UNL     1      33.100 -15.093 -25.395  0.00  0.00    +0.099 C 
ATOM     19  C   UNL     1      34.464 -16.634 -24.375  0.00  0.00    +0.099 C 
ENDBRANCH  13  15
ENDBRANCH  11  13
ENDBRANCH   3   6
BRANCH   2  25
ATOM     20  C   UNL     1      34.449  -5.565 -25.731  0.00  0.00    -0.010 C 
ATOM     21  C   UNL     1      35.306  -6.056 -24.746  0.00  0.00    -0.002 C 
ATOM     22  C   UNL     1      33.133  -6.025 -25.803  0.00  0.00    -0.002 C 
ATOM     23  C   UNL     1      34.848  -7.008 -23.834  0.00  0.00    +0.014 C 
ATOM     24  C   UNL     1      32.676  -6.977 -24.892  0.00  0.00    +0.014 C 
ATOM     25  C   UNL     1      33.534  -7.469 -23.907  0.00  0.00    +0.051 C 
BRANCH  20  26
ATOM     26  C   UNL     1      34.950  -4.524 -26.728  0.00  0.00    +0.098 C 
ATOM     27  C   UNL     1      34.680  -4.894 -28.203  0.00  0.00    +0.018 C 
ATOM     28  C   UNL     1      36.487  -4.379 -26.758  0.00  0.00    +0.018 C 
ATOM     29  C   UNL     1      35.657  -4.058 -29.029  0.00  0.00    +0.001 C 
ATOM     30  C   UNL     1      36.822  -3.733 -28.100  0.00  0.00    +0.001 C 
BRANCH  26  32
ATOM     31  N   UNL     1      33.833  -2.196 -26.160  0.00  0.00    -0.196 NA
ATOM     32  C   UNL     1      34.323  -3.218 -26.409  0.00  0.00    +0.075 C 
ENDBRANCH  26  32
ENDBRANCH  20  26
ENDBRANCH   2  25
TORSDOF 6
ENDMDL
MODEL 8
REMARK VINA RESULT:      -9.5     10.907     15.353
REMARK  Name = 11315474
REMARK  6 active torsions:
REMARK  status: ('A' for Active; 'I' for Inactive)
REMARK    1  A    between atoms: N_2  and  C_25
REMARK    2  A    between atoms: C_3  and  C_6
REMARK    3  A    between atoms: N_11  and  C_13
REMARK    4  A    between atoms: C_13  and  C_15
REMARK    5  A    between atoms: C_20  and  C_26
REMARK    6  A    between atoms: C_26  and  C_32
REMARK                            x       y       z     vdW  Elec       q    Type
REMARK                         _______ _______ _______ _____ _____    ______ ____
ROOT
ATOM      1  O   UNL     1      32.502 -10.191 -23.777  0.00  0.00    -0.270 OA
ATOM      2  N   UNL     1      33.221  -8.301 -22.577  0.00  0.00    -0.280 N 
ATOM      3  C   UNL     1      32.685  -9.587 -22.725  0.00  0.00    +0.252 C 
ATOM      4  H   UNL     1      33.297  -7.969 -21.654  0.00  0.00    +0.155 HD
ENDROOT
BRANCH   3   6
ATOM      5  N   UNL     1      32.283 -12.187 -20.050  0.00  0.00    -0.229 NA
ATOM      6  C   UNL     1      32.281 -10.258 -21.462  0.00  0.00    +0.085 C 
ATOM      7  C   UNL     1      32.637 -11.551 -21.189  0.00  0.00    +0.133 C 
ATOM      8  C   UNL     1      31.529  -9.544 -20.558  0.00  0.00    +0.009 C 
ATOM      9  C   UNL     1      31.145 -10.164 -19.373  0.00  0.00    +0.021 C 
ATOM     10  C   UNL     1      31.545 -11.475 -19.169  0.00  0.00    +0.100 C 
ATOM     11  N   UNL     1      33.413 -12.272 -22.132  0.00  0.00    -0.314 N 
ATOM     12  H   UNL     1      33.678 -11.823 -22.966  0.00  0.00    +0.149 HD
BRANCH  11  13
ATOM     13  C   UNL     1      33.823 -13.622 -21.921  0.00  0.00    +0.115 C 
BRANCH  13  15
ATOM     14  N   UNL     1      33.722 -15.817 -25.601  0.00  0.00    -0.242 NA
ATOM     15  C   UNL     1      33.787 -14.392 -23.212  0.00  0.00    +0.000 C 
ATOM     16  C   UNL     1      33.068 -13.896 -24.286  0.00  0.00    +0.018 C 
ATOM     17  C   UNL     1      34.474 -15.589 -23.315  0.00  0.00    +0.018 C 
ATOM     18  C   UNL     1      33.067 -14.643 -25.453  0.00  0.00    +0.099 C 
ATOM     19  C   UNL     1      34.409 -16.260 -24.525  0.00  0.00    +0.099 C 
ENDBRANCH  13  15
ENDBRANCH  11  13
ENDBRANCH   3   6
BRANCH   2  25
ATOM     20  C   UNL     1      34.534  -5.695 -25.578  0.00  0.00    -0.010 C 
ATOM     21  C   UNL     1      35.433  -6.169 -24.623  0.00  0.00    -0.002 C 
ATOM     22  C   UNL     1      33.196  -6.089 -25.533  0.00  0.00    -0.002 C 
ATOM     23  C   UNL     1      34.995  -7.037 -23.622  0.00  0.00    +0.014 C 
ATOM     24  C   UNL     1      32.759  -6.958 -24.533  0.00  0.00    +0.014 C 
ATOM     25  C   UNL     1      33.659  -7.432 -23.577  0.00  0.00    +0.051 C 
BRANCH  20  26
ATOM     26  C   UNL     1      35.013  -4.745 -26.672  0.00  0.00    +0.098 C 
ATOM     27  C   UNL     1      36.541  -4.519 -26.677  0.00  0.00    +0.018 C 
ATOM     28  C   UNL     1      34.522  -3.291 -26.493  0.00  0.00    +0.018 C 
ATOM     29  C   UNL     1      36.770  -3.216 -27.439  0.00  0.00    +0.001 C 
ATOM     30  C   UNL     1      35.473  -2.423 -27.315  0.00  0.00    +0.001 C 
BRANCH  26  32
ATOM     31  N   UNL     1      34.229  -5.683 -29.015  0.00  0.00    -0.196 NA
ATOM     32  C   UNL     1      34.573  -5.271 -27.987  0.00  0.00    +0.075 C 
ENDBRANCH  26  32
ENDBRANCH  20  26
ENDBRANCH   2  25
TORSDOF 6
ENDMDL
MODEL 9
REMARK VINA RESULT:      -9.4     10.825     15.594
REMARK  Name = 11315474
REMARK  6 active torsions:
REMARK  status: ('A' for Active; 'I' for Inactive)
REMARK    1  A    between atoms: N_2  and  C_25
REMARK    2  A    between atoms: C_3  and  C_6
REMARK    3  A    between atoms: N_11  and  C_13
REMARK    4  A    between atoms: C_13  and  C_15
REMARK    5  A    between atoms: C_20  and  C_26
REMARK    6  A    between atoms: C_26  and  C_32
REMARK                            x       y       z     vdW  Elec       q    Type
REMARK                         _______ _______ _______ _____ _____    ______ ____
ROOT
ATOM      1  O   UNL     1      33.200  -9.507 -23.135  0.00  0.00    -0.270 OA
ATOM      2  N   UNL     1      33.137  -7.273 -22.406  0.00  0.00    -0.280 N 
ATOM      3  C   UNL     1      32.931  -8.654 -22.296  0.00  0.00    +0.252 C 
ATOM      4  H   UNL     1      32.861  -6.732 -21.631  0.00  0.00    +0.155 HD
ENDROOT
BRANCH   3   6
ATOM      5  N   UNL     1      31.272 -10.827 -19.725  0.00  0.00    -0.229 NA
ATOM      6  C   UNL     1      32.297  -9.105 -21.029  0.00  0.00    +0.085 C 
ATOM      7  C   UNL     1      31.853 -10.390 -20.865  0.00  0.00    +0.133 C 
ATOM      8  C   UNL     1      32.162  -8.193 -20.009  0.00  0.00    +0.009 C 
ATOM      9  C   UNL     1      31.568  -8.605 -18.820  0.00  0.00    +0.021 C 
ATOM     10  C   UNL     1      31.145  -9.922 -18.730  0.00  0.00    +0.100 C 
ATOM     11  N   UNL     1      32.002 -11.317 -21.927  0.00  0.00    -0.314 N 
ATOM     12  H   UNL     1      32.423 -11.014 -22.763  0.00  0.00    +0.149 HD
BRANCH  11  13
ATOM     13  C   UNL     1      31.564 -12.672 -21.833  0.00  0.00    +0.115 C 
BRANCH  13  15
ATOM     14  N   UNL     1      34.913 -15.296 -21.311  0.00  0.00    -0.242 NA
ATOM     15  C   UNL     1      32.739 -13.592 -21.649  0.00  0.00    +0.000 C 
ATOM     16  C   UNL     1      33.081 -14.022 -20.379  0.00  0.00    +0.018 C 
ATOM     17  C   UNL     1      33.468 -14.001 -22.753  0.00  0.00    +0.018 C 
ATOM     18  C   UNL     1      34.172 -14.870 -20.264  0.00  0.00    +0.099 C 
ATOM     19  C   UNL     1      34.541 -14.849 -22.531  0.00  0.00    +0.099 C 
ENDBRANCH  13  15
ENDBRANCH  11  13
ENDBRANCH   3   6
BRANCH   2  25
ATOM     20  C   UNL     1      34.778  -5.160 -25.626  0.00  0.00    -0.010 C 
ATOM     21  C   UNL     1      35.607  -5.900 -24.782  0.00  0.00    -0.002 C 
ATOM     22  C   UNL     1      33.402  -5.124 -25.396  0.00  0.00    -0.002 C 
ATOM     23  C   UNL     1      35.059  -6.604 -23.709  0.00  0.00    +0.014 C 
ATOM     24  C   UNL     1      32.855  -5.829 -24.323  0.00  0.00    +0.014 C 
ATOM     25  C   UNL     1      33.684  -6.569 -23.480  0.00  0.00    +0.051 C 
BRANCH  20  26
ATOM     26  C   UNL     1      35.376  -4.390 -26.799  0.00  0.00    +0.098 C 
ATOM     27  C   UNL     1      36.921  -4.395 -26.826  0.00  0.00    +0.018 C 
ATOM     28  C   UNL     1      35.108  -2.870 -26.748  0.00  0.00    +0.018 C 
ATOM     29  C   UNL     1      37.329  -3.211 -27.700  0.00  0.00    +0.001 C 
ATOM     30  C   UNL     1      36.165  -2.227 -27.645  0.00  0.00    +0.001 C 
BRANCH  26  32
ATOM     31  N   UNL     1      34.430  -5.401 -29.050  0.00  0.00    -0.196 NA
ATOM     32  C   UNL     1      34.845  -4.958 -28.062  0.00  0.00    +0.075 C 
ENDBRANCH  26  32
ENDBRANCH  20  26
ENDBRANCH   2  25
TORSDOF 6
ENDMDL
