MODEL 1
REMARK VINA RESULT:     -12.0      0.000      0.000
REMARK  Name = 16040294
REMARK  4 active torsions:
REMARK  status: ('A' for Active; 'I' for Inactive)
REMARK    1  A    between atoms: N_6  and  C_21
REMARK    2  A    between atoms: C_7  and  C_30
REMARK    3  A    between atoms: C_24  and  C_27
REMARK    4  A    between atoms: C_27  and  C_29
REMARK                            x       y       z     vdW  Elec       q    Type
REMARK                         _______ _______ _______ _____ _____    ______ ____
ROOT
ATOM      1  N   UNL     1      31.184 -23.369 -16.188  0.00  0.00    -0.239 N 
ATOM      2  N   UNL     1      32.500 -23.348 -15.915  0.00  0.00    -0.166 NA
ATOM      3  N   UNL     1      33.649 -23.157 -13.818  0.00  0.00    -0.271 N 
ATOM      4  N   UNL     1      35.388 -22.702 -15.337  0.00  0.00    -0.312 NA
ATOM      5  N   UNL     1      37.673 -23.240 -14.788  0.00  0.00    -0.332 NA
ATOM      6  N   UNL     1      37.124 -22.252 -16.844  0.00  0.00    -0.238 N 
ATOM      7  C   UNL     1      30.390 -23.263 -15.083  0.00  0.00    +0.045 C 
ATOM      8  C   UNL     1      31.247 -23.166 -14.014  0.00  0.00    +0.048 C 
ATOM      9  C   UNL     1      32.493 -23.226 -14.612  0.00  0.00    +0.152 C 
ATOM     10  C   UNL     1      35.031 -23.192 -14.135  0.00  0.00    +0.201 C 
ATOM     11  C   UNL     1      35.929 -23.719 -13.213  0.00  0.00    +0.072 C 
ATOM     12  C   UNL     1      37.280 -23.721 -13.596  0.00  0.00    +0.131 C 
ATOM     13  C   UNL     1      36.705 -22.756 -15.594  0.00  0.00    +0.204 C 
ATOM     14  C   UNL     1      35.531 -24.226 -11.963  0.00  0.00    +0.006 C 
ATOM     15  C   UNL     1      38.210 -24.241 -12.697  0.00  0.00    +0.086 C 
ATOM     16  C   UNL     1      36.481 -24.739 -11.085  0.00  0.00    -0.004 C 
ATOM     17  C   UNL     1      37.822 -24.747 -11.453  0.00  0.00    -0.019 C 
ATOM     18  H   UNL     1      30.826 -23.454 -17.102  0.00  0.00    +0.174 HD
ATOM     19  H   UNL     1      33.465 -23.066 -12.856  0.00  0.00    +0.156 HD
ATOM     20  H   UNL     1      38.095 -22.313 -16.990  0.00  0.00    +0.166 HD
ENDROOT
BRANCH   6  21
ATOM     21  C   UNL     1      36.424 -21.680 -17.923  0.00  0.00    +0.058 C 
ATOM     22  C   UNL     1      35.127 -22.103 -18.221  0.00  0.00    +0.015 C 
ATOM     23  C   UNL     1      37.024 -20.686 -18.699  0.00  0.00    +0.015 C 
ATOM     24  C   UNL     1      35.036 -20.543 -20.063  0.00  0.00    -0.007 C 
ATOM     25  C   UNL     1      34.434 -21.536 -19.289  0.00  0.00    -0.002 C 
ATOM     26  C   UNL     1      36.331 -20.119 -19.768  0.00  0.00    -0.002 C 
BRANCH  24  27
ATOM     27  C   UNL     1      34.295 -19.937 -21.206  0.00  0.00    +0.132 C 
BRANCH  27  29
ATOM     28  N   UNL     1      35.786 -18.310 -22.643  0.00  0.00    -0.196 NA
ATOM     29  C   UNL     1      35.133 -19.028 -22.007  0.00  0.00    +0.078 C 
ENDBRANCH  27  29
ENDBRANCH  24  27
ENDBRANCH   6  21
BRANCH   7  30
ATOM     30  C   UNL     1      28.867 -23.256 -15.054  0.00  0.00    +0.037 C 
ATOM     31  C   UNL     1      28.107 -23.913 -16.178  0.00  0.00    +0.006 C 
ATOM     32  C   UNL     1      28.116 -22.417 -16.057  0.00  0.00    +0.006 C 
ENDBRANCH   7  30
TORSDOF 4
ENDMDL
MODEL 2
REMARK VINA RESULT:     -11.5      1.567      6.751
REMARK  Name = 16040294
REMARK  4 active torsions:
REMARK  status: ('A' for Active; 'I' for Inactive)
REMARK    1  A    between atoms: N_6  and  C_21
REMARK    2  A    between atoms: C_7  and  C_30
REMARK    3  A    between atoms: C_24  and  C_27
REMARK    4  A    between atoms: C_27  and  C_29
REMARK                            x       y       z     vdW  Elec       q    Type
REMARK                         _______ _______ _______ _____ _____    ______ ____
ROOT
ATOM      1  N   UNL     1      31.790 -23.149 -14.425  0.00  0.00    -0.239 N 
ATOM      2  N   UNL     1      32.817 -22.770 -15.204  0.00  0.00    -0.166 NA
ATOM      3  N   UNL     1      32.967 -22.574 -17.590  0.00  0.00    -0.271 N 
ATOM      4  N   UNL     1      35.240 -22.511 -16.982  0.00  0.00    -0.312 NA
ATOM      5  N   UNL     1      36.839 -21.304 -18.321  0.00  0.00    -0.332 NA
ATOM      6  N   UNL     1      37.503 -22.443 -16.381  0.00  0.00    -0.238 N 
ATOM      7  C   UNL     1      30.660 -23.470 -15.119  0.00  0.00    +0.045 C 
ATOM      8  C   UNL     1      30.971 -23.289 -16.444  0.00  0.00    +0.048 C 
ATOM      9  C   UNL     1      32.288 -22.867 -16.397  0.00  0.00    +0.152 C 
ATOM     10  C   UNL     1      34.288 -22.131 -17.855  0.00  0.00    +0.201 C 
ATOM     11  C   UNL     1      34.532 -21.344 -18.976  0.00  0.00    +0.072 C 
ATOM     12  C   UNL     1      35.863 -20.943 -19.173  0.00  0.00    +0.131 C 
ATOM     13  C   UNL     1      36.474 -22.069 -17.271  0.00  0.00    +0.204 C 
ATOM     14  C   UNL     1      33.520 -20.960 -19.874  0.00  0.00    +0.006 C 
ATOM     15  C   UNL     1      36.146 -20.154 -20.286  0.00  0.00    +0.086 C 
ATOM     16  C   UNL     1      33.832 -20.172 -20.978  0.00  0.00    -0.004 C 
ATOM     17  C   UNL     1      35.146 -19.769 -21.184  0.00  0.00    -0.019 C 
ATOM     18  H   UNL     1      31.847 -23.190 -13.442  0.00  0.00    +0.174 HD
ATOM     19  H   UNL     1      32.422 -22.700 -18.400  0.00  0.00    +0.156 HD
ATOM     20  H   UNL     1      38.389 -22.096 -16.632  0.00  0.00    +0.166 HD
ENDROOT
BRANCH   6  21
ATOM     21  C   UNL     1      37.509 -23.216 -15.205  0.00  0.00    +0.058 C 
ATOM     22  C   UNL     1      36.530 -23.016 -14.229  0.00  0.00    +0.015 C 
ATOM     23  C   UNL     1      38.494 -24.186 -15.009  0.00  0.00    +0.015 C 
ATOM     24  C   UNL     1      37.522 -24.751 -12.872  0.00  0.00    -0.007 C 
ATOM     25  C   UNL     1      36.537 -23.782 -13.064  0.00  0.00    -0.002 C 
ATOM     26  C   UNL     1      38.501 -24.952 -13.844  0.00  0.00    -0.002 C 
BRANCH  24  27
ATOM     27  C   UNL     1      37.529 -25.569 -11.625  0.00  0.00    +0.132 C 
BRANCH  27  29
ATOM     28  N   UNL     1      35.476 -25.060 -10.056  0.00  0.00    -0.196 NA
ATOM     29  C   UNL     1      36.377 -25.282 -10.751  0.00  0.00    +0.078 C 
ENDBRANCH  27  29
ENDBRANCH  24  27
ENDBRANCH   6  21
BRANCH   7  30
ATOM     30  C   UNL     1      29.332 -23.934 -14.533  0.00  0.00    +0.037 C 
ATOM     31  C   UNL     1      29.128 -25.399 -14.244  0.00  0.00    +0.006 C 
ATOM     32  C   UNL     1      28.399 -24.755 -15.387  0.00  0.00    +0.006 C 
ENDBRANCH   7  30
TORSDOF 4
ENDMDL
MODEL 3
REMARK VINA RESULT:     -10.8      1.617      5.825
REMARK  Name = 16040294
REMARK  4 active torsions:
REMARK  status: ('A' for Active; 'I' for Inactive)
REMARK    1  A    between atoms: N_6  and  C_21
REMARK    2  A    between atoms: C_7  and  C_30
REMARK    3  A    between atoms: C_24  and  C_27
REMARK    4  A    between atoms: C_27  and  C_29
REMARK                            x       y       z     vdW  Elec       q    Type
REMARK                         _______ _______ _______ _____ _____    ______ ____
ROOT
ATOM      1  N   UNL     1      37.443 -22.879 -15.242  0.00  0.00    -0.239 N 
ATOM      2  N   UNL     1      36.122 -22.859 -15.489  0.00  0.00    -0.166 NA
ATOM      3  N   UNL     1      34.423 -24.478 -14.990  0.00  0.00    -0.271 N 
ATOM      4  N   UNL     1      33.309 -23.111 -16.549  0.00  0.00    -0.312 NA
ATOM      5  N   UNL     1      30.916 -22.841 -16.459  0.00  0.00    -0.332 NA
ATOM      6  N   UNL     1      32.194 -21.751 -18.096  0.00  0.00    -0.238 N 
ATOM      7  C   UNL     1      37.868 -24.008 -14.605  0.00  0.00    +0.045 C 
ATOM      8  C   UNL     1      36.747 -24.780 -14.423  0.00  0.00    +0.048 C 
ATOM      9  C   UNL     1      35.746 -24.008 -14.987  0.00  0.00    +0.152 C 
ATOM     10  C   UNL     1      33.213 -23.926 -15.481  0.00  0.00    +0.201 C 
ATOM     11  C   UNL     1      32.014 -24.244 -14.852  0.00  0.00    +0.072 C 
ATOM     12  C   UNL     1      30.857 -23.659 -15.394  0.00  0.00    +0.131 C 
ATOM     13  C   UNL     1      32.140 -22.611 -16.979  0.00  0.00    +0.204 C 
ATOM     14  C   UNL     1      31.939 -25.098 -13.738  0.00  0.00    +0.006 C 
ATOM     15  C   UNL     1      29.636 -23.955 -14.791  0.00  0.00    +0.086 C 
ATOM     16  C   UNL     1      30.706 -25.376 -13.156  0.00  0.00    -0.004 C 
ATOM     17  C   UNL     1      29.554 -24.804 -13.683  0.00  0.00    -0.019 C 
ATOM     18  H   UNL     1      38.048 -22.145 -15.497  0.00  0.00    +0.174 HD
ATOM     19  H   UNL     1      34.315 -25.362 -14.571  0.00  0.00    +0.156 HD
ATOM     20  H   UNL     1      31.315 -21.408 -18.375  0.00  0.00    +0.166 HD
ENDROOT
BRANCH   6  21
ATOM     21  C   UNL     1      33.261 -21.287 -18.889  0.00  0.00    +0.058 C 
ATOM     22  C   UNL     1      33.033 -20.328 -19.879  0.00  0.00    +0.015 C 
ATOM     23  C   UNL     1      34.550 -21.784 -18.689  0.00  0.00    +0.015 C 
ATOM     24  C   UNL     1      35.378 -20.366 -20.461  0.00  0.00    -0.007 C 
ATOM     25  C   UNL     1      34.090 -19.869 -20.664  0.00  0.00    -0.002 C 
ATOM     26  C   UNL     1      35.607 -21.325 -19.474  0.00  0.00    -0.002 C 
BRANCH  24  27
ATOM     27  C   UNL     1      36.508 -19.876 -21.301  0.00  0.00    +0.132 C 
BRANCH  27  29
ATOM     28  N   UNL     1      35.973 -17.570 -22.457  0.00  0.00    -0.196 NA
ATOM     29  C   UNL     1      36.213 -18.586 -21.951  0.00  0.00    +0.078 C 
ENDBRANCH  27  29
ENDBRANCH  24  27
ENDBRANCH   6  21
BRANCH   7  30
ATOM     30  C   UNL     1      39.295 -24.334 -14.185  0.00  0.00    +0.037 C 
ATOM     31  C   UNL     1      40.000 -25.503 -14.824  0.00  0.00    +0.006 C 
ATOM     32  C   UNL     1      39.560 -25.589 -13.392  0.00  0.00    +0.006 C 
ENDBRANCH   7  30
TORSDOF 4
ENDMDL
MODEL 4
REMARK VINA RESULT:     -10.1      1.694      6.346
REMARK  Name = 16040294
REMARK  4 active torsions:
REMARK  status: ('A' for Active; 'I' for Inactive)
REMARK    1  A    between atoms: N_6  and  C_21
REMARK    2  A    between atoms: C_7  and  C_30
REMARK    3  A    between atoms: C_24  and  C_27
REMARK    4  A    between atoms: C_27  and  C_29
REMARK                            x       y       z     vdW  Elec       q    Type
REMARK                         _______ _______ _______ _____ _____    ______ ____
ROOT
ATOM      1  N   UNL     1      33.558 -21.360 -18.391  0.00  0.00    -0.239 N 
ATOM      2  N   UNL     1      33.528 -21.966 -17.192  0.00  0.00    -0.166 NA
ATOM      3  N   UNL     1      35.137 -23.396 -16.132  0.00  0.00    -0.271 N 
ATOM      4  N   UNL     1      33.231 -23.791 -14.809  0.00  0.00    -0.312 NA
ATOM      5  N   UNL     1      33.449 -24.391 -12.485  0.00  0.00    -0.332 NA
ATOM      6  N   UNL     1      31.338 -24.185 -13.486  0.00  0.00    -0.238 N 
ATOM      7  C   UNL     1      34.693 -21.610 -19.107  0.00  0.00    +0.045 C 
ATOM      8  C   UNL     1      35.457 -22.437 -18.320  0.00  0.00    +0.048 C 
ATOM      9  C   UNL     1      34.676 -22.595 -17.189  0.00  0.00    +0.152 C 
ATOM     10  C   UNL     1      34.575 -23.739 -14.876  0.00  0.00    +0.201 C 
ATOM     11  C   UNL     1      35.417 -23.997 -13.799  0.00  0.00    +0.072 C 
ATOM     12  C   UNL     1      34.789 -24.330 -12.588  0.00  0.00    +0.131 C 
ATOM     13  C   UNL     1      32.743 -24.118 -13.602  0.00  0.00    +0.204 C 
ATOM     14  C   UNL     1      36.818 -23.937 -13.894  0.00  0.00    +0.006 C 
ATOM     15  C   UNL     1      35.600 -24.597 -11.487  0.00  0.00    +0.086 C 
ATOM     16  C   UNL     1      37.604 -24.208 -12.778  0.00  0.00    -0.004 C 
ATOM     17  C   UNL     1      36.994 -24.538 -11.574  0.00  0.00    -0.019 C 
ATOM     18  H   UNL     1      32.829 -20.788 -18.722  0.00  0.00    +0.174 HD
ATOM     19  H   UNL     1      36.021 -23.796 -16.293  0.00  0.00    +0.156 HD
ATOM     20  H   UNL     1      31.026 -24.427 -12.585  0.00  0.00    +0.166 HD
ENDROOT
BRANCH   6  21
ATOM     21  C   UNL     1      30.296 -23.972 -14.408  0.00  0.00    +0.058 C 
ATOM     22  C   UNL     1      29.735 -25.051 -15.094  0.00  0.00    +0.015 C 
ATOM     23  C   UNL     1      29.819 -22.680 -14.640  0.00  0.00    +0.015 C 
ATOM     24  C   UNL     1      28.228 -23.548 -16.236  0.00  0.00    -0.007 C 
ATOM     25  C   UNL     1      28.703 -24.839 -16.007  0.00  0.00    -0.002 C 
ATOM     26  C   UNL     1      28.787 -22.468 -15.552  0.00  0.00    -0.002 C 
BRANCH  24  27
ATOM     27  C   UNL     1      27.124 -23.321 -17.213  0.00  0.00    +0.132 C 
BRANCH  27  29
ATOM     28  N   UNL     1      26.295 -20.822 -17.257  0.00  0.00    -0.196 NA
ATOM     29  C   UNL     1      26.663 -21.922 -17.234  0.00  0.00    +0.078 C 
ENDBRANCH  27  29
ENDBRANCH  24  27
ENDBRANCH   6  21
BRANCH   7  30
ATOM     30  C   UNL     1      35.032 -21.076 -20.492  0.00  0.00    +0.037 C 
ATOM     31  C   UNL     1      35.855 -19.818 -20.614  0.00  0.00    +0.006 C 
ATOM     32  C   UNL     1      34.395 -19.792 -20.961  0.00  0.00    +0.006 C 
ENDBRANCH   7  30
TORSDOF 4
ENDMDL
