MODEL 1
REMARK VINA RESULT:     -12.2      0.000      0.000
REMARK  Name = 54671008
REMARK  7 active torsions:
REMARK  status: ('A' for Active; 'I' for Inactive)
REMARK    1  A    between atoms: C_4  and  C_21
REMARK    2  A    between atoms: C_6  and  C_11
REMARK    3  A    between atoms: C_8  and  O_34
REMARK    4  A    between atoms: N_10  and  C_13
REMARK    5  A    between atoms: C_13  and  C_15
REMARK    6  A    between atoms: C_21  and  N_25
REMARK    7  A    between atoms: C_26  and  C_31
REMARK                            x       y       z     vdW  Elec       q    Type
REMARK                         _______ _______ _______ _____ _____    ______ ____
ROOT
ATOM      1  O   UNL     1      36.159 -23.325 -14.218  0.00  0.00    -0.271 OA
ATOM      2  N   UNL     1      33.837 -23.620 -14.159  0.00  0.00    -0.232 N 
ATOM      3  N   UNL     1      32.583 -23.340 -16.159  0.00  0.00    -0.386 NA
ATOM      4  C   UNL     1      32.652 -23.605 -14.891  0.00  0.00    +0.182 C 
ATOM      5  C   UNL     1      35.061 -23.340 -14.772  0.00  0.00    +0.265 C 
ATOM      6  C   UNL     1      33.759 -23.062 -16.800  0.00  0.00    +0.199 C 
ATOM      7  C   UNL     1      33.799 -23.933 -12.731  0.00  0.00    +0.122 C 
ATOM      8  C   UNL     1      34.970 -23.040 -16.227  0.00  0.00    +0.245 C 
ENDROOT
BRANCH   6  11
ATOM      9  O   UNL     1      33.809 -23.654 -19.073  0.00  0.00    -0.268 OA
ATOM     10  N   UNL     1      33.379 -21.437 -18.492  0.00  0.00    -0.295 N 
ATOM     11  C   UNL     1      33.655 -22.767 -18.237  0.00  0.00    +0.275 C 
ATOM     12  H   UNL     1      33.278 -20.825 -17.728  0.00  0.00    +0.150 HD
BRANCH  10  13
ATOM     13  C   UNL     1      33.230 -20.902 -19.826  0.00  0.00    +0.117 C 
BRANCH  13  15
ATOM     14  F   UNL     1      37.955 -18.441 -21.648  0.00  0.00    -0.204 F 
ATOM     15  C   UNL     1      34.490 -20.246 -20.312  0.00  0.00    -0.002 C 
ATOM     16  C   UNL     1      35.704 -20.514 -19.680  0.00  0.00    -0.000 C 
ATOM     17  C   UNL     1      34.447 -19.368 -21.395  0.00  0.00    -0.000 C 
ATOM     18  C   UNL     1      36.874 -19.904 -20.131  0.00  0.00    +0.029 C 
ATOM     19  C   UNL     1      35.617 -18.758 -21.847  0.00  0.00    +0.029 C 
ATOM     20  C   UNL     1      36.831 -19.026 -21.214  0.00  0.00    +0.140 C 
ENDBRANCH  13  15
ENDBRANCH  10  13
ENDBRANCH   6  11
BRANCH   4  21
ATOM     21  C   UNL     1      31.364 -23.915 -14.166  0.00  0.00    +0.117 C 
ATOM     22  C   UNL     1      31.267 -25.412 -13.909  0.00  0.00    +0.028 C 
ATOM     23  C   UNL     1      31.298 -23.121 -12.869  0.00  0.00    +0.028 C 
BRANCH  21  25
ATOM     24  O   UNL     1      28.614 -24.739 -14.211  0.00  0.00    -0.265 OA
ATOM     25  N   UNL     1      30.352 -23.481 -15.094  0.00  0.00    -0.293 N 
ATOM     26  C   UNL     1      29.041 -23.937 -15.037  0.00  0.00    +0.302 C 
ATOM     27  H   UNL     1      30.599 -22.835 -15.795  0.00  0.00    +0.150 HD
BRANCH  26  31
ATOM     28  O   UNL     1      27.484 -22.225 -15.892  0.00  0.00    -0.416 OA
ATOM     29  N   UNL     1      27.839 -23.985 -17.227  0.00  0.00    -0.102 NA
ATOM     30  N   UNL     1      26.950 -23.139 -17.863  0.00  0.00    -0.111 NA
ATOM     31  C   UNL     1      28.124 -23.412 -16.082  0.00  0.00    +0.304 A 
ATOM     32  C   UNL     1      26.772 -22.127 -17.048  0.00  0.00    +0.227 A 
ATOM     33  C   UNL     1      25.932 -20.933 -17.206  0.00  0.00    +0.097 C 
ENDBRANCH  26  31
ENDBRANCH  21  25
ENDBRANCH   4  21
BRANCH   8  34
ATOM     34  O   UNL     1      36.131 -22.755 -16.909  0.00  0.00    -0.370 OA
ATOM     35  H   UNL     1      36.632 -23.448 -17.293  0.00  0.00    +0.211 HD
ENDBRANCH   8  34
TORSDOF 7
ENDMDL
MODEL 2
REMARK VINA RESULT:     -10.8      2.485      6.125
REMARK  Name = 54671008
REMARK  7 active torsions:
REMARK  status: ('A' for Active; 'I' for Inactive)
REMARK    1  A    between atoms: C_4  and  C_21
REMARK    2  A    between atoms: C_6  and  C_11
REMARK    3  A    between atoms: C_8  and  O_34
REMARK    4  A    between atoms: N_10  and  C_13
REMARK    5  A    between atoms: C_13  and  C_15
REMARK    6  A    between atoms: C_21  and  N_25
REMARK    7  A    between atoms: C_26  and  C_31
REMARK                            x       y       z     vdW  Elec       q    Type
REMARK                         _______ _______ _______ _____ _____    ______ ____
ROOT
ATOM      1  O   UNL     1      30.107 -22.310 -16.418  0.00  0.00    -0.271 OA
ATOM      2  N   UNL     1      31.724 -23.286 -15.035  0.00  0.00    -0.232 N 
ATOM      3  N   UNL     1      33.943 -23.542 -15.850  0.00  0.00    -0.386 NA
ATOM      4  C   UNL     1      33.054 -23.683 -14.915  0.00  0.00    +0.182 C 
ATOM      5  C   UNL     1      31.257 -22.692 -16.211  0.00  0.00    +0.265 C 
ATOM      6  C   UNL     1      33.529 -22.963 -17.018  0.00  0.00    +0.199 C 
ATOM      7  C   UNL     1      30.807 -23.492 -13.915  0.00  0.00    +0.122 C 
ATOM      8  C   UNL     1      32.286 -22.534 -17.275  0.00  0.00    +0.245 C 
ENDROOT
BRANCH   6  11
ATOM      9  O   UNL     1      34.534 -23.514 -19.068  0.00  0.00    -0.268 OA
ATOM     10  N   UNL     1      35.483 -21.834 -17.761  0.00  0.00    -0.295 N 
ATOM     11  C   UNL     1      34.554 -22.812 -18.061  0.00  0.00    +0.275 C 
ATOM     12  H   UNL     1      35.387 -21.340 -16.915  0.00  0.00    +0.150 HD
BRANCH  10  13
ATOM     13  C   UNL     1      36.589 -21.499 -18.630  0.00  0.00    +0.117 C 
BRANCH  13  15
ATOM     14  F   UNL     1      35.129 -17.723 -22.543  0.00  0.00    -0.204 F 
ATOM     15  C   UNL     1      36.199 -20.492 -19.674  0.00  0.00    -0.002 C 
ATOM     16  C   UNL     1      37.148 -19.596 -20.166  0.00  0.00    -0.000 C 
ATOM     17  C   UNL     1      34.889 -20.453 -20.151  0.00  0.00    -0.000 C 
ATOM     18  C   UNL     1      36.786 -18.660 -21.134  0.00  0.00    +0.029 C 
ATOM     19  C   UNL     1      34.527 -19.518 -21.120  0.00  0.00    +0.029 C 
ATOM     20  C   UNL     1      35.476 -18.621 -21.612  0.00  0.00    +0.140 C 
ENDBRANCH  13  15
ENDBRANCH  10  13
ENDBRANCH   6  11
BRANCH   4  21
ATOM     21  C   UNL     1      33.493 -24.318 -13.618  0.00  0.00    +0.117 C 
ATOM     22  C   UNL     1      33.640 -23.248 -12.545  0.00  0.00    +0.028 C 
ATOM     23  C   UNL     1      32.493 -25.388 -13.204  0.00  0.00    +0.028 C 
BRANCH  21  25
ATOM     24  O   UNL     1      35.548 -25.110 -11.776  0.00  0.00    -0.265 OA
ATOM     25  N   UNL     1      34.768 -24.898 -13.950  0.00  0.00    -0.293 N 
ATOM     26  C   UNL     1      35.703 -25.252 -12.986  0.00  0.00    +0.302 C 
ATOM     27  H   UNL     1      34.985 -25.052 -14.899  0.00  0.00    +0.150 HD
BRANCH  26  31
ATOM     28  O   UNL     1      38.100 -25.042 -13.526  0.00  0.00    -0.416 OA
ATOM     29  N   UNL     1      37.171 -27.034 -13.940  0.00  0.00    -0.102 NA
ATOM     30  N   UNL     1      38.504 -27.101 -14.300  0.00  0.00    -0.111 NA
ATOM     31  C   UNL     1      36.980 -25.815 -13.494  0.00  0.00    +0.304 A 
ATOM     32  C   UNL     1      39.007 -25.917 -14.041  0.00  0.00    +0.227 A 
ATOM     33  C   UNL     1      40.375 -25.419 -14.226  0.00  0.00    +0.097 C 
ENDBRANCH  26  31
ENDBRANCH  21  25
ENDBRANCH   4  21
BRANCH   8  34
ATOM     34  O   UNL     1      31.909 -21.956 -18.466  0.00  0.00    -0.370 OA
ATOM     35  H   UNL     1      32.468 -21.329 -18.881  0.00  0.00    +0.211 HD
ENDBRANCH   8  34
TORSDOF 7
ENDMDL
MODEL 3
REMARK VINA RESULT:      -9.8      2.074      3.071
REMARK  Name = 54671008
REMARK  7 active torsions:
REMARK  status: ('A' for Active; 'I' for Inactive)
REMARK    1  A    between atoms: C_4  and  C_21
REMARK    2  A    between atoms: C_6  and  C_11
REMARK    3  A    between atoms: C_8  and  O_34
REMARK    4  A    between atoms: N_10  and  C_13
REMARK    5  A    between atoms: C_13  and  C_15
REMARK    6  A    between atoms: C_21  and  N_25
REMARK    7  A    between atoms: C_26  and  C_31
REMARK                            x       y       z     vdW  Elec       q    Type
REMARK                         _______ _______ _______ _____ _____    ______ ____
ROOT
ATOM      1  O   UNL     1      38.141 -21.129 -16.155  0.00  0.00    -0.271 OA
ATOM      2  N   UNL     1      36.534 -22.581 -15.265  0.00  0.00    -0.232 N 
ATOM      3  N   UNL     1      34.663 -23.194 -16.598  0.00  0.00    -0.386 NA
ATOM      4  C   UNL     1      35.337 -23.257 -15.491  0.00  0.00    +0.182 C 
ATOM      5  C   UNL     1      37.094 -21.768 -16.254  0.00  0.00    +0.265 C 
ATOM      6  C   UNL     1      35.176 -22.410 -17.594  0.00  0.00    +0.199 C 
ATOM      7  C   UNL     1      37.212 -22.726 -13.978  0.00  0.00    +0.122 C 
ATOM      8  C   UNL     1      36.313 -21.704 -17.520  0.00  0.00    +0.245 C 
ENDROOT
BRANCH   6  11
ATOM      9  O   UNL     1      33.887 -23.371 -19.305  0.00  0.00    -0.268 OA
ATOM     10  N   UNL     1      34.323 -21.082 -19.370  0.00  0.00    -0.295 N 
ATOM     11  C   UNL     1      34.395 -22.356 -18.838  0.00  0.00    +0.275 C 
ATOM     12  H   UNL     1      34.778 -20.350 -18.895  0.00  0.00    +0.150 HD
BRANCH  10  13
ATOM     13  C   UNL     1      33.612 -20.773 -20.590  0.00  0.00    +0.117 C 
BRANCH  13  15
ATOM     14  F   UNL     1      35.917 -16.430 -23.332  0.00  0.00    -0.204 F 
ATOM     15  C   UNL     1      34.226 -19.614 -21.321  0.00  0.00    -0.002 C 
ATOM     16  C   UNL     1      34.126 -19.534 -22.710  0.00  0.00    -0.000 C 
ATOM     17  C   UNL     1      34.898 -18.619 -20.612  0.00  0.00    -0.000 C 
ATOM     18  C   UNL     1      34.697 -18.459 -23.389  0.00  0.00    +0.029 C 
ATOM     19  C   UNL     1      35.470 -17.543 -21.291  0.00  0.00    +0.029 C 
ATOM     20  C   UNL     1      35.369 -17.463 -22.680  0.00  0.00    +0.140 C 
ENDBRANCH  13  15
ENDBRANCH  10  13
ENDBRANCH   6  11
BRANCH   4  21
ATOM     21  C   UNL     1      34.786 -24.120 -14.381  0.00  0.00    +0.117 C 
ATOM     22  C   UNL     1      35.375 -25.520 -14.477  0.00  0.00    +0.028 C 
ATOM     23  C   UNL     1      35.089 -23.480 -13.033  0.00  0.00    +0.028 C 
BRANCH  21  25
ATOM     24  O   UNL     1      32.715 -24.960 -12.580  0.00  0.00    -0.265 OA
ATOM     25  N   UNL     1      33.371 -24.132 -14.645  0.00  0.00    -0.293 N 
ATOM     26  C   UNL     1      32.440 -24.557 -13.707  0.00  0.00    +0.302 C 
ATOM     27  H   UNL     1      33.051 -23.825 -15.524  0.00  0.00    +0.150 HD
BRANCH  26  31
ATOM     28  O   UNL     1      30.467 -23.374 -14.597  0.00  0.00    -0.416 OA
ATOM     29  N   UNL     1      30.186 -25.547 -14.141  0.00  0.00    -0.102 NA
ATOM     30  N   UNL     1      28.990 -25.054 -14.626  0.00  0.00    -0.111 NA
ATOM     31  C   UNL     1      31.019 -24.533 -14.142  0.00  0.00    +0.304 A 
ATOM     32  C   UNL     1      29.200 -23.783 -14.879  0.00  0.00    +0.227 A 
ATOM     33  C   UNL     1      28.280 -22.769 -15.409  0.00  0.00    +0.097 C 
ENDBRANCH  26  31
ENDBRANCH  21  25
ENDBRANCH   4  21
BRANCH   8  34
ATOM     34  O   UNL     1      36.796 -20.925 -18.546  0.00  0.00    -0.370 OA
ATOM     35  H   UNL     1      36.470 -21.042 -19.417  0.00  0.00    +0.211 HD
ENDBRANCH   8  34
TORSDOF 7
ENDMDL
MODEL 4
REMARK VINA RESULT:      -9.8      7.592     11.330
REMARK  Name = 54671008
REMARK  7 active torsions:
REMARK  status: ('A' for Active; 'I' for Inactive)
REMARK    1  A    between atoms: C_4  and  C_21
REMARK    2  A    between atoms: C_6  and  C_11
REMARK    3  A    between atoms: C_8  and  O_34
REMARK    4  A    between atoms: N_10  and  C_13
REMARK    5  A    between atoms: C_13  and  C_15
REMARK    6  A    between atoms: C_21  and  N_25
REMARK    7  A    between atoms: C_26  and  C_31
REMARK                            x       y       z     vdW  Elec       q    Type
REMARK                         _______ _______ _______ _____ _____    ______ ____
ROOT
ATOM      1  O   UNL     1      33.409 -15.301 -25.857  0.00  0.00    -0.271 OA
ATOM      2  N   UNL     1      33.476 -14.548 -23.642  0.00  0.00    -0.232 N 
ATOM      3  N   UNL     1      34.528 -15.897 -21.991  0.00  0.00    -0.386 NA
ATOM      4  C   UNL     1      33.890 -14.823 -22.341  0.00  0.00    +0.182 C 
ATOM      5  C   UNL     1      33.733 -15.447 -24.680  0.00  0.00    +0.265 C 
ATOM      6  C   UNL     1      34.802 -16.805 -22.977  0.00  0.00    +0.199 C 
ATOM      7  C   UNL     1      32.764 -13.302 -23.924  0.00  0.00    +0.122 C 
ATOM      8  C   UNL     1      34.465 -16.676 -24.268  0.00  0.00    +0.245 C 
ENDROOT
BRANCH   6  11
ATOM      9  O   UNL     1      35.734 -18.929 -23.349  0.00  0.00    -0.268 OA
ATOM     10  N   UNL     1      35.910 -17.973 -21.230  0.00  0.00    -0.295 N 
ATOM     11  C   UNL     1      35.526 -18.013 -22.557  0.00  0.00    +0.275 C 
ATOM     12  H   UNL     1      35.680 -17.176 -20.700  0.00  0.00    +0.150 HD
BRANCH  10  13
ATOM     13  C   UNL     1      36.635 -19.044 -20.583  0.00  0.00    +0.117 C 
BRANCH  13  15
ATOM     14  F   UNL     1      33.174 -22.880 -18.346  0.00  0.00    -0.204 F 
ATOM     15  C   UNL     1      35.712 -20.067 -19.986  0.00  0.00    -0.002 C 
ATOM     16  C   UNL     1      34.343 -20.008 -20.248  0.00  0.00    -0.000 C 
ATOM     17  C   UNL     1      36.223 -21.076 -19.170  0.00  0.00    -0.000 C 
ATOM     18  C   UNL     1      33.486 -20.958 -19.693  0.00  0.00    +0.029 C 
ATOM     19  C   UNL     1      35.366 -22.026 -18.616  0.00  0.00    +0.029 C 
ATOM     20  C   UNL     1      33.997 -21.967 -18.878  0.00  0.00    +0.140 C 
ENDBRANCH  13  15
ENDBRANCH  10  13
ENDBRANCH   6  11
BRANCH   4  21
ATOM     21  C   UNL     1      33.581 -13.808 -21.266  0.00  0.00    +0.117 C 
ATOM     22  C   UNL     1      32.318 -14.219 -20.520  0.00  0.00    +0.028 C 
ATOM     23  C   UNL     1      34.768 -13.679 -20.322  0.00  0.00    +0.028 C 
BRANCH  21  25
ATOM     24  O   UNL     1      32.092 -11.508 -20.409  0.00  0.00    -0.265 OA
ATOM     25  N   UNL     1      33.373 -12.593 -22.010  0.00  0.00    -0.293 N 
ATOM     26  C   UNL     1      32.635 -11.528 -21.510  0.00  0.00    +0.302 C 
ATOM     27  H   UNL     1      33.771 -12.514 -22.907  0.00  0.00    +0.150 HD
BRANCH  26  31
ATOM     28  O   UNL     1      31.335  -9.638 -22.416  0.00  0.00    -0.416 OA
ATOM     29  N   UNL     1      33.394  -9.903 -23.251  0.00  0.00    -0.102 NA
ATOM     30  N   UNL     1      32.821  -8.808 -23.868  0.00  0.00    -0.111 NA
ATOM     31  C   UNL     1      32.492 -10.356 -22.412  0.00  0.00    +0.304 A 
ATOM     32  C   UNL     1      31.621  -8.690 -23.351  0.00  0.00    +0.227 A 
ATOM     33  C   UNL     1      30.571  -7.703 -23.633  0.00  0.00    +0.097 C 
ENDBRANCH  26  31
ENDBRANCH  21  25
ENDBRANCH   4  21
BRANCH   8  34
ATOM     34  O   UNL     1      34.760 -17.614 -25.231  0.00  0.00    -0.370 OA
ATOM     35  H   UNL     1      35.516 -18.160 -25.138  0.00  0.00    +0.211 HD
ENDBRANCH   8  34
TORSDOF 7
ENDMDL
MODEL 5
REMARK VINA RESULT:      -9.4      8.355     12.357
REMARK  Name = 54671008
REMARK  7 active torsions:
REMARK  status: ('A' for Active; 'I' for Inactive)
REMARK    1  A    between atoms: C_4  and  C_21
REMARK    2  A    between atoms: C_6  and  C_11
REMARK    3  A    between atoms: C_8  and  O_34
REMARK    4  A    between atoms: N_10  and  C_13
REMARK    5  A    between atoms: C_13  and  C_15
REMARK    6  A    between atoms: C_21  and  N_25
REMARK    7  A    between atoms: C_26  and  C_31
REMARK                            x       y       z     vdW  Elec       q    Type
REMARK                         _______ _______ _______ _____ _____    ______ ____
ROOT
ATOM      1  O   UNL     1      33.833 -15.270 -25.759  0.00  0.00    -0.271 OA
ATOM      2  N   UNL     1      33.217 -13.919 -23.949  0.00  0.00    -0.232 N 
ATOM      3  N   UNL     1      33.914 -14.530 -21.760  0.00  0.00    -0.386 NA
ATOM      4  C   UNL     1      33.289 -13.733 -22.571  0.00  0.00    +0.182 C 
ATOM      5  C   UNL     1      33.838 -15.014 -24.556  0.00  0.00    +0.265 C 
ATOM      6  C   UNL     1      34.538 -15.614 -22.312  0.00  0.00    +0.199 C 
ATOM      7  C   UNL     1      32.485 -12.956 -24.770  0.00  0.00    +0.122 C 
ATOM      8  C   UNL     1      34.554 -15.920 -23.617  0.00  0.00    +0.245 C 
ENDROOT
BRANCH   6  11
ATOM      9  O   UNL     1      35.256 -16.256 -20.170  0.00  0.00    -0.268 OA
ATOM     10  N   UNL     1      35.843 -17.575 -22.000  0.00  0.00    -0.295 N 
ATOM     11  C   UNL     1      35.241 -16.501 -21.374  0.00  0.00    +0.275 C 
ATOM     12  H   UNL     1      35.756 -17.656 -22.978  0.00  0.00    +0.150 HD
BRANCH  10  13
ATOM     13  C   UNL     1      36.595 -18.586 -21.291  0.00  0.00    +0.117 C 
BRANCH  13  15
ATOM     14  F   UNL     1      33.231 -22.323 -18.757  0.00  0.00    -0.204 F 
ATOM     15  C   UNL     1      35.697 -19.582 -20.615  0.00  0.00    -0.002 C 
ATOM     16  C   UNL     1      36.235 -20.513 -19.726  0.00  0.00    -0.000 C 
ATOM     17  C   UNL     1      34.327 -19.578 -20.876  0.00  0.00    -0.000 C 
ATOM     18  C   UNL     1      35.401 -21.439 -19.099  0.00  0.00    +0.029 C 
ATOM     19  C   UNL     1      33.494 -20.503 -20.249  0.00  0.00    +0.029 C 
ATOM     20  C   UNL     1      34.031 -21.434 -19.360  0.00  0.00    +0.140 C 
ENDBRANCH  13  15
ENDBRANCH  10  13
ENDBRANCH   6  11
BRANCH   4  21
ATOM     21  C   UNL     1      32.596 -12.530 -21.978  0.00  0.00    +0.117 C 
ATOM     22  C   UNL     1      31.155 -12.473 -22.467  0.00  0.00    +0.028 C 
ATOM     23  C   UNL     1      32.666 -12.591 -20.459  0.00  0.00    +0.028 C 
BRANCH  21  25
ATOM     24  O   UNL     1      31.746  -9.793 -22.154  0.00  0.00    -0.265 OA
ATOM     25  N   UNL     1      33.362 -11.423 -22.491  0.00  0.00    -0.293 N 
ATOM     26  C   UNL     1      32.864 -10.128 -22.536  0.00  0.00    +0.302 C 
ATOM     27  H   UNL     1      34.274 -11.592 -22.821  0.00  0.00    +0.150 HD
BRANCH  26  31
ATOM     28  O   UNL     1      33.286  -7.873 -23.442  0.00  0.00    -0.416 OA
ATOM     29  N   UNL     1      35.050  -9.247 -23.369  0.00  0.00    -0.102 NA
ATOM     30  N   UNL     1      35.469  -8.041 -23.899  0.00  0.00    -0.111 NA
ATOM     31  C   UNL     1      33.770  -9.103 -23.117  0.00  0.00    +0.304 A 
ATOM     32  C   UNL     1      34.408  -7.270 -23.924  0.00  0.00    +0.227 A 
ATOM     33  C   UNL     1      34.267  -5.884 -24.386  0.00  0.00    +0.097 C 
ENDBRANCH  26  31
ENDBRANCH  21  25
ENDBRANCH   4  21
BRANCH   8  34
ATOM     34  O   UNL     1      35.194 -17.023 -24.134  0.00  0.00    -0.370 OA
ATOM     35  H   UNL     1      35.463 -17.031 -25.032  0.00  0.00    +0.211 HD
ENDBRANCH   8  34
TORSDOF 7
ENDMDL
MODEL 6
REMARK VINA RESULT:      -9.2     12.504     16.241
REMARK  Name = 54671008
REMARK  7 active torsions:
REMARK  status: ('A' for Active; 'I' for Inactive)
REMARK    1  A    between atoms: C_4  and  C_21
REMARK    2  A    between atoms: C_6  and  C_11
REMARK    3  A    between atoms: C_8  and  O_34
REMARK    4  A    between atoms: N_10  and  C_13
REMARK    5  A    between atoms: C_13  and  C_15
REMARK    6  A    between atoms: C_21  and  N_25
REMARK    7  A    between atoms: C_26  and  C_31
REMARK                            x       y       z     vdW  Elec       q    Type
REMARK                         _______ _______ _______ _____ _____    ______ ____
ROOT
ATOM      1  O   UNL     1      33.447  -6.837 -18.996  0.00  0.00    -0.271 OA
ATOM      2  N   UNL     1      32.384  -6.821 -21.082  0.00  0.00    -0.232 N 
ATOM      3  N   UNL     1      31.299  -8.795 -21.844  0.00  0.00    -0.386 NA
ATOM      4  C   UNL     1      31.651  -7.557 -22.010  0.00  0.00    +0.182 C 
ATOM      5  C   UNL     1      32.797  -7.397 -19.877  0.00  0.00    +0.265 C 
ATOM      6  C   UNL     1      31.681  -9.397 -20.676  0.00  0.00    +0.199 C 
ATOM      7  C   UNL     1      32.725  -5.430 -21.372  0.00  0.00    +0.122 C 
ATOM      8  C   UNL     1      32.386  -8.816 -19.696  0.00  0.00    +0.245 C 
ENDROOT
BRANCH   6  11
ATOM      9  O   UNL     1      30.094 -11.129 -20.647  0.00  0.00    -0.268 OA
ATOM     10  N   UNL     1      32.325 -11.634 -20.198  0.00  0.00    -0.295 N 
ATOM     11  C   UNL     1      31.269 -10.799 -20.510  0.00  0.00    +0.275 C 
ATOM     12  H   UNL     1      33.224 -11.241 -20.117  0.00  0.00    +0.150 HD
BRANCH  10  13
ATOM     13  C   UNL     1      32.174 -13.056 -19.985  0.00  0.00    +0.117 C 
BRANCH  13  15
ATOM     14  F   UNL     1      35.623 -16.057 -23.271  0.00  0.00    -0.204 F 
ATOM     15  C   UNL     1      33.094 -13.856 -20.862  0.00  0.00    -0.002 C 
ATOM     16  C   UNL     1      33.050 -13.698 -22.247  0.00  0.00    -0.000 C 
ATOM     17  C   UNL     1      33.992 -14.757 -20.291  0.00  0.00    -0.000 C 
ATOM     18  C   UNL     1      33.904 -14.442 -23.061  0.00  0.00    +0.029 C 
ATOM     19  C   UNL     1      34.846 -15.501 -21.105  0.00  0.00    +0.029 C 
ATOM     20  C   UNL     1      34.802 -15.343 -22.490  0.00  0.00    +0.140 C 
ENDBRANCH  13  15
ENDBRANCH  10  13
ENDBRANCH   6  11
BRANCH   4  21
ATOM     21  C   UNL     1      31.237  -6.875 -23.292  0.00  0.00    +0.117 C 
ATOM     22  C   UNL     1      30.319  -7.792 -24.089  0.00  0.00    +0.028 C 
ATOM     23  C   UNL     1      30.560  -5.549 -22.975  0.00  0.00    +0.028 C 
BRANCH  21  25
ATOM     24  O   UNL     1      31.707  -5.125 -25.518  0.00  0.00    -0.265 OA
ATOM     25  N   UNL     1      32.488  -6.671 -23.975  0.00  0.00    -0.293 N 
ATOM     26  C   UNL     1      32.620  -5.798 -25.047  0.00  0.00    +0.302 C 
ATOM     27  H   UNL     1      33.281  -7.168 -23.669  0.00  0.00    +0.150 HD
BRANCH  26  31
ATOM     28  O   UNL     1      34.120  -5.881 -27.003  0.00  0.00    -0.416 OA
ATOM     29  N   UNL     1      35.102  -5.502 -25.029  0.00  0.00    -0.102 NA
ATOM     30  N   UNL     1      36.085  -5.514 -25.999  0.00  0.00    -0.111 NA
ATOM     31  C   UNL     1      33.972  -5.719 -25.660  0.00  0.00    +0.304 A 
ATOM     32  C   UNL     1      35.468  -5.739 -27.135  0.00  0.00    +0.227 A 
ATOM     33  C   UNL     1      36.015  -5.854 -28.492  0.00  0.00    +0.097 C 
ENDBRANCH  26  31
ENDBRANCH  21  25
ENDBRANCH   4  21
BRANCH   8  34
ATOM     34  O   UNL     1      32.752  -9.458 -18.535  0.00  0.00    -0.370 OA
ATOM     35  H   UNL     1      32.942  -8.961 -17.764  0.00  0.00    +0.211 HD
ENDBRANCH   8  34
TORSDOF 7
ENDMDL
