MODEL 1
REMARK VINA RESULT:     -11.9      0.000      0.000
REMARK  Name = 448062
REMARK  5 active torsions:
REMARK  status: ('A' for Active; 'I' for Inactive)
REMARK    1  A    between atoms: N_1  and  C_25
REMARK    2  A    between atoms: C_4  and  O_14
REMARK    3  A    between atoms: O_14  and  C_17
REMARK    4  A    between atoms: C_25  and  C_26
REMARK    5  A    between atoms: C_34  and  C_38
REMARK                            x       y       z     vdW  Elec       q    Type
REMARK                         _______ _______ _______ _____ _____    ______ ____
ROOT
ATOM      1  N   UNL     1      34.764 -22.948 -17.425  0.00  0.00    -0.323 N 
ATOM      2  C   UNL     1      35.135 -21.977 -18.325  0.00  0.00    +0.063 A 
ATOM      3  C   UNL     1      36.324 -21.416 -17.861  0.00  0.00    +0.017 A 
ATOM      4  C   UNL     1      35.122 -20.534 -20.234  0.00  0.00    +0.140 C 
ATOM      5  C   UNL     1      35.672 -23.034 -16.396  0.00  0.00    +0.060 A 
ATOM      6  C   UNL     1      36.664 -22.084 -16.641  0.00  0.00    +0.017 A 
ATOM      7  C   UNL     1      34.510 -21.558 -19.506  0.00  0.00    +0.054 C 
ATOM      8  C   UNL     1      36.922 -20.383 -18.613  0.00  0.00    +0.005 C 
ATOM      9  C   UNL     1      36.310 -19.954 -19.797  0.00  0.00    +0.037 C 
ATOM     10  C   UNL     1      35.688 -23.874 -15.277  0.00  0.00    +0.017 C 
ATOM     11  C   UNL     1      37.727 -21.967 -15.721  0.00  0.00    +0.001 C 
ATOM     12  C   UNL     1      36.752 -23.738 -14.382  0.00  0.00    +0.001 C 
ATOM     13  C   UNL     1      37.758 -22.800 -14.598  0.00  0.00    +0.000 C 
ENDROOT
BRANCH   4  14
ATOM     14  O   UNL     1      34.545 -20.097 -21.390  0.00  0.00    -0.479 OA
BRANCH  14  17
ATOM     15  N   UNL     1      34.771 -16.359 -23.182  0.00  0.00    -0.297 N 
ATOM     16  N   UNL     1      33.977 -14.169 -22.894  0.00  0.00    -0.289 NA
ATOM     17  C   UNL     1      35.128 -18.957 -22.011  0.00  0.00    +0.169 C 
ATOM     18  C   UNL     1      34.883 -17.717 -21.151  0.00  0.00    +0.065 C 
ATOM     19  C   UNL     1      34.508 -18.781 -23.397  0.00  0.00    +0.065 C 
ATOM     20  C   UNL     1      35.370 -16.452 -21.852  0.00  0.00    +0.096 C 
ATOM     21  C   UNL     1      35.000 -17.500 -24.066  0.00  0.00    +0.096 C 
ATOM     22  C   UNL     1      34.127 -15.245 -23.602  0.00  0.00    +0.100 C 
ATOM     23  C   UNL     1      33.550 -15.267 -24.994  0.00  0.00    +0.068 C 
ATOM     24  H   UNL     1      34.344 -14.124 -21.981  0.00  0.00    +0.188 HD
ENDBRANCH  14  17
ENDBRANCH   4  14
BRANCH   1  25
ATOM     25  C   UNL     1      33.577 -23.772 -17.546  0.00  0.00    +0.133 C 
BRANCH  25  26
ATOM     26  C   UNL     1      32.531 -23.378 -16.540  0.00  0.00    +0.000 C 
ATOM     27  C   UNL     1      31.218 -23.196 -16.955  0.00  0.00    -0.002 C 
ATOM     28  C   UNL     1      32.890 -23.202 -15.214  0.00  0.00    -0.002 C 
ATOM     29  C   UNL     1      30.228 -22.829 -16.028  0.00  0.00    -0.000 C 
ATOM     30  C   UNL     1      30.585 -22.646 -14.671  0.00  0.00    -0.000 C 
ATOM     31  C   UNL     1      31.921 -22.836 -14.280  0.00  0.00    -0.000 C 
ATOM     32  C   UNL     1      28.893 -22.638 -16.419  0.00  0.00    +0.003 C 
ATOM     33  C   UNL     1      29.595 -22.278 -13.744  0.00  0.00    +0.000 C 
ATOM     34  C   UNL     1      27.923 -22.272 -15.485  0.00  0.00    +0.031 C 
ATOM     35  C   UNL     1      28.274 -22.093 -14.150  0.00  0.00    +0.003 C 
BRANCH  34  38
ATOM     36  N   UNL     1      26.222 -21.809 -17.233  0.00  0.00    -0.343 N 
ATOM     37  N   UNL     1      25.569 -22.157 -15.017  0.00  0.00    -0.285 NA
ATOM     38  C   UNL     1      26.545 -22.079 -15.905  0.00  0.00    +0.117 C 
ATOM     39  H   UNL     1      25.282 -21.681 -17.496  0.00  0.00    +0.144 HD
ATOM     40  H   UNL     1      26.935 -21.744 -17.909  0.00  0.00    +0.144 HD
ATOM     41  H   UNL     1      24.634 -22.028 -15.299  0.00  0.00    +0.188 HD
ENDBRANCH  34  38
ENDBRANCH  25  26
ENDBRANCH   1  25
TORSDOF 5
ENDMDL
MODEL 2
REMARK VINA RESULT:     -11.6      6.911     12.197
REMARK  Name = 448062
REMARK  5 active torsions:
REMARK  status: ('A' for Active; 'I' for Inactive)
REMARK    1  A    between atoms: N_1  and  C_25
REMARK    2  A    between atoms: C_4  and  O_14
REMARK    3  A    between atoms: O_14  and  C_17
REMARK    4  A    between atoms: C_25  and  C_26
REMARK    5  A    between atoms: C_34  and  C_38
REMARK                            x       y       z     vdW  Elec       q    Type
REMARK                         _______ _______ _______ _____ _____    ______ ____
ROOT
ATOM      1  N   UNL     1      33.355 -12.245 -23.015  0.00  0.00    -0.323 N 
ATOM      2  C   UNL     1      32.700 -11.038 -23.093  0.00  0.00    +0.063 A 
ATOM      3  C   UNL     1      31.976 -10.884 -21.912  0.00  0.00    +0.017 A 
ATOM      4  C   UNL     1      31.930  -8.928 -23.919  0.00  0.00    +0.140 C 
ATOM      5  C   UNL     1      33.077 -12.876 -21.826  0.00  0.00    +0.060 A 
ATOM      6  C   UNL     1      32.213 -12.046 -21.110  0.00  0.00    +0.017 A 
ATOM      7  C   UNL     1      32.698 -10.079 -24.114  0.00  0.00    +0.054 C 
ATOM      8  C   UNL     1      31.208  -9.714 -21.739  0.00  0.00    +0.005 C 
ATOM      9  C   UNL     1      31.195  -8.745 -22.750  0.00  0.00    +0.037 C 
ATOM     10  C   UNL     1      33.523 -14.108 -21.335  0.00  0.00    +0.017 C 
ATOM     11  C   UNL     1      31.772 -12.469 -19.839  0.00  0.00    +0.001 C 
ATOM     12  C   UNL     1      33.072 -14.503 -20.073  0.00  0.00    +0.001 C 
ATOM     13  C   UNL     1      32.209 -13.697 -19.334  0.00  0.00    +0.000 C 
ENDROOT
BRANCH   4  14
ATOM     14  O   UNL     1      31.901  -7.970 -24.889  0.00  0.00    -0.479 OA
BRANCH  14  17
ATOM     15  N   UNL     1      32.071  -3.828 -25.112  0.00  0.00    -0.297 N 
ATOM     16  N   UNL     1      30.767  -2.002 -25.803  0.00  0.00    -0.289 NA
ATOM     17  C   UNL     1      32.138  -6.629 -24.478  0.00  0.00    +0.169 C 
ATOM     18  C   UNL     1      30.827  -5.841 -24.496  0.00  0.00    +0.065 C 
ATOM     19  C   UNL     1      33.157  -5.996 -25.426  0.00  0.00    +0.065 C 
ATOM     20  C   UNL     1      31.064  -4.364 -24.198  0.00  0.00    +0.096 C 
ATOM     21  C   UNL     1      33.361  -4.516 -25.115  0.00  0.00    +0.096 C 
ATOM     22  C   UNL     1      31.856  -2.706 -25.837  0.00  0.00    +0.100 C 
ATOM     23  C   UNL     1      32.970  -2.250 -26.746  0.00  0.00    +0.068 C 
ATOM     24  H   UNL     1      30.023  -2.275 -25.219  0.00  0.00    +0.188 HD
ENDBRANCH  14  17
ENDBRANCH   4  14
BRANCH   1  25
ATOM     25  C   UNL     1      34.222 -12.779 -24.048  0.00  0.00    +0.133 C 
BRANCH  25  26
ATOM     26  C   UNL     1      34.237 -14.283 -24.027  0.00  0.00    +0.000 C 
ATOM     27  C   UNL     1      34.944 -14.946 -23.033  0.00  0.00    -0.002 C 
ATOM     28  C   UNL     1      33.546 -14.986 -25.000  0.00  0.00    -0.002 C 
ATOM     29  C   UNL     1      34.968 -16.350 -22.999  0.00  0.00    -0.000 C 
ATOM     30  C   UNL     1      34.266 -17.078 -23.989  0.00  0.00    -0.000 C 
ATOM     31  C   UNL     1      33.560 -16.381 -24.984  0.00  0.00    -0.000 C 
ATOM     32  C   UNL     1      35.675 -17.047 -22.007  0.00  0.00    +0.003 C 
ATOM     33  C   UNL     1      34.291 -18.482 -23.956  0.00  0.00    +0.000 C 
ATOM     34  C   UNL     1      35.689 -18.442 -21.989  0.00  0.00    +0.031 C 
ATOM     35  C   UNL     1      34.998 -19.157 -22.962  0.00  0.00    +0.003 C 
BRANCH  34  38
ATOM     36  N   UNL     1      35.788 -20.040 -20.091  0.00  0.00    -0.343 N 
ATOM     37  N   UNL     1      37.723 -18.948 -20.814  0.00  0.00    -0.285 NA
ATOM     38  C   UNL     1      36.425 -19.149 -20.953  0.00  0.00    +0.117 C 
ATOM     39  H   UNL     1      36.305 -20.508 -19.396  0.00  0.00    +0.144 HD
ATOM     40  H   UNL     1      34.820 -20.201 -20.177  0.00  0.00    +0.144 HD
ATOM     41  H   UNL     1      38.224 -19.427 -20.113  0.00  0.00    +0.188 HD
ENDBRANCH  34  38
ENDBRANCH  25  26
ENDBRANCH   1  25
TORSDOF 5
ENDMDL
MODEL 3
REMARK VINA RESULT:     -11.2      5.713     13.027
REMARK  Name = 448062
REMARK  5 active torsions:
REMARK  status: ('A' for Active; 'I' for Inactive)
REMARK    1  A    between atoms: N_1  and  C_25
REMARK    2  A    between atoms: C_4  and  O_14
REMARK    3  A    between atoms: O_14  and  C_17
REMARK    4  A    between atoms: C_25  and  C_26
REMARK    5  A    between atoms: C_34  and  C_38
REMARK                            x       y       z     vdW  Elec       q    Type
REMARK                         _______ _______ _______ _____ _____    ______ ____
ROOT
ATOM      1  N   UNL     1      33.093 -12.459 -22.518  0.00  0.00    -0.323 N 
ATOM      2  C   UNL     1      33.781 -13.592 -22.154  0.00  0.00    +0.063 A 
ATOM      3  C   UNL     1      33.561 -13.789 -20.791  0.00  0.00    +0.017 A 
ATOM      4  C   UNL     1      35.161 -15.543 -22.280  0.00  0.00    +0.140 C 
ATOM      5  C   UNL     1      32.437 -11.916 -21.439  0.00  0.00    +0.060 A 
ATOM      6  C   UNL     1      32.711 -12.729 -20.338  0.00  0.00    +0.017 A 
ATOM      7  C   UNL     1      34.575 -14.450 -22.924  0.00  0.00    +0.054 C 
ATOM      8  C   UNL     1      34.164 -14.899 -20.163  0.00  0.00    +0.005 C 
ATOM      9  C   UNL     1      34.960 -15.767 -20.920  0.00  0.00    +0.037 C 
ATOM     10  C   UNL     1      31.629 -10.778 -21.356  0.00  0.00    +0.017 C 
ATOM     11  C   UNL     1      32.149 -12.387 -19.091  0.00  0.00    +0.001 C 
ATOM     12  C   UNL     1      31.084 -10.460 -20.109  0.00  0.00    +0.001 C 
ATOM     13  C   UNL     1      31.339 -11.252 -18.991  0.00  0.00    +0.000 C 
ENDROOT
BRANCH   4  14
ATOM     14  O   UNL     1      35.941 -16.403 -22.995  0.00  0.00    -0.479 OA
BRANCH  14  17
ATOM     15  N   UNL     1      34.561 -19.911 -21.256  0.00  0.00    -0.297 N 
ATOM     16  N   UNL     1      32.656 -20.766 -20.183  0.00  0.00    -0.289 NA
ATOM     17  C   UNL     1      35.676 -17.793 -22.844  0.00  0.00    +0.169 C 
ATOM     18  C   UNL     1      34.167 -18.027 -22.764  0.00  0.00    +0.065 C 
ATOM     19  C   UNL     1      36.363 -18.289 -21.571  0.00  0.00    +0.065 C 
ATOM     20  C   UNL     1      33.848 -19.487 -22.460  0.00  0.00    +0.096 C 
ATOM     21  C   UNL     1      36.013 -19.746 -21.283  0.00  0.00    +0.096 C 
ATOM     22  C   UNL     1      33.927 -20.509 -20.221  0.00  0.00    +0.100 C 
ATOM     23  C   UNL     1      34.768 -20.901 -19.033  0.00  0.00    +0.068 C 
ATOM     24  H   UNL     1      32.081 -20.522 -20.944  0.00  0.00    +0.188 HD
ENDBRANCH  14  17
ENDBRANCH   4  14
BRANCH   1  25
ATOM     25  C   UNL     1      33.062 -11.911 -23.860  0.00  0.00    +0.133 C 
BRANCH  25  26
ATOM     26  C   UNL     1      33.481 -10.466 -23.873  0.00  0.00    +0.000 C 
ATOM     27  C   UNL     1      32.548  -9.487 -24.187  0.00  0.00    -0.002 C 
ATOM     28  C   UNL     1      34.791 -10.132 -23.573  0.00  0.00    -0.002 C 
ATOM     29  C   UNL     1      32.923  -8.133 -24.203  0.00  0.00    -0.000 C 
ATOM     30  C   UNL     1      34.260  -7.781 -23.898  0.00  0.00    -0.000 C 
ATOM     31  C   UNL     1      35.182  -8.794 -23.585  0.00  0.00    -0.000 C 
ATOM     32  C   UNL     1      32.002  -7.121 -24.517  0.00  0.00    +0.003 C 
ATOM     33  C   UNL     1      34.635  -6.427 -23.915  0.00  0.00    +0.000 C 
ATOM     34  C   UNL     1      32.392  -5.782 -24.529  0.00  0.00    +0.031 C 
ATOM     35  C   UNL     1      33.706  -5.436 -24.228  0.00  0.00    +0.003 C 
BRANCH  34  38
ATOM     36  N   UNL     1      30.362  -4.451 -24.002  0.00  0.00    -0.343 N 
ATOM     37  N   UNL     1      31.544  -4.064 -25.980  0.00  0.00    -0.285 NA
ATOM     38  C   UNL     1      31.425  -4.745 -24.854  0.00  0.00    +0.117 C 
ATOM     39  H   UNL     1      29.719  -3.746 -24.242  0.00  0.00    +0.144 HD
ATOM     40  H   UNL     1      30.254  -4.950 -23.160  0.00  0.00    +0.144 HD
ATOM     41  H   UNL     1      30.891  -3.361 -26.202  0.00  0.00    +0.188 HD
ENDBRANCH  34  38
ENDBRANCH  25  26
ENDBRANCH   1  25
TORSDOF 5
ENDMDL
MODEL 4
REMARK VINA RESULT:     -11.2      3.410     10.699
REMARK  Name = 448062
REMARK  5 active torsions:
REMARK  status: ('A' for Active; 'I' for Inactive)
REMARK    1  A    between atoms: N_1  and  C_25
REMARK    2  A    between atoms: C_4  and  O_14
REMARK    3  A    between atoms: O_14  and  C_17
REMARK    4  A    between atoms: C_25  and  C_26
REMARK    5  A    between atoms: C_34  and  C_38
REMARK                            x       y       z     vdW  Elec       q    Type
REMARK                         _______ _______ _______ _____ _____    ______ ____
ROOT
ATOM      1  N   UNL     1      34.814 -15.714 -21.942  0.00  0.00    -0.323 N 
ATOM      2  C   UNL     1      35.129 -17.047 -21.831  0.00  0.00    +0.063 A 
ATOM      3  C   UNL     1      34.817 -17.649 -23.050  0.00  0.00    +0.017 A 
ATOM      4  C   UNL     1      35.884 -19.128 -20.922  0.00  0.00    +0.140 C 
ATOM      5  C   UNL     1      34.310 -15.433 -23.190  0.00  0.00    +0.060 A 
ATOM      6  C   UNL     1      34.299 -16.628 -23.910  0.00  0.00    +0.017 A 
ATOM      7  C   UNL     1      35.663 -17.760 -20.750  0.00  0.00    +0.054 C 
ATOM      8  C   UNL     1      35.048 -19.032 -23.198  0.00  0.00    +0.005 C 
ATOM      9  C   UNL     1      35.583 -19.758 -22.127  0.00  0.00    +0.037 C 
ATOM     10  C   UNL     1      33.867 -14.220 -23.730  0.00  0.00    +0.017 C 
ATOM     11  C   UNL     1      33.820 -16.612 -25.237  0.00  0.00    +0.001 C 
ATOM     12  C   UNL     1      33.398 -14.231 -25.047  0.00  0.00    +0.001 C 
ATOM     13  C   UNL     1      33.375 -15.408 -25.791  0.00  0.00    +0.000 C 
ENDROOT
BRANCH   4  14
ATOM     14  O   UNL     1      36.403 -19.857 -19.893  0.00  0.00    -0.479 OA
BRANCH  14  17
ATOM     15  N   UNL     1      33.922 -22.482 -17.844  0.00  0.00    -0.297 N 
ATOM     16  N   UNL     1      31.761 -22.585 -16.935  0.00  0.00    -0.289 NA
ATOM     17  C   UNL     1      35.740 -21.073 -19.566  0.00  0.00    +0.169 C 
ATOM     18  C   UNL     1      34.226 -20.882 -19.668  0.00  0.00    +0.065 C 
ATOM     19  C   UNL     1      36.134 -21.482 -18.146  0.00  0.00    +0.065 C 
ATOM     20  C   UNL     1      33.477 -22.122 -19.189  0.00  0.00    +0.096 C 
ATOM     21  C   UNL     1      35.358 -22.714 -17.688  0.00  0.00    +0.096 C 
ATOM     22  C   UNL     1      33.049 -22.684 -16.830  0.00  0.00    +0.100 C 
ATOM     23  C   UNL     1      33.628 -23.051 -15.487  0.00  0.00    +0.068 C 
ATOM     24  H   UNL     1      31.354 -22.347 -17.799  0.00  0.00    +0.188 HD
ENDBRANCH  14  17
ENDBRANCH   4  14
BRANCH   1  25
ATOM     25  C   UNL     1      34.993 -14.735 -20.888  0.00  0.00    +0.133 C 
BRANCH  25  26
ATOM     26  C   UNL     1      33.829 -13.784 -20.819  0.00  0.00    +0.000 C 
ATOM     27  C   UNL     1      33.795 -12.684 -21.666  0.00  0.00    -0.002 C 
ATOM     28  C   UNL     1      32.809 -14.017 -19.912  0.00  0.00    -0.002 C 
ATOM     29  C   UNL     1      32.716 -11.786 -21.615  0.00  0.00    -0.000 C 
ATOM     30  C   UNL     1      31.668 -12.016 -20.692  0.00  0.00    -0.000 C 
ATOM     31  C   UNL     1      31.730 -13.136 -19.847  0.00  0.00    -0.000 C 
ATOM     32  C   UNL     1      32.654 -10.666 -22.459  0.00  0.00    +0.003 C 
ATOM     33  C   UNL     1      30.589 -11.117 -20.640  0.00  0.00    +0.000 C 
ATOM     34  C   UNL     1      31.575  -9.784 -22.394  0.00  0.00    +0.031 C 
ATOM     35  C   UNL     1      30.545 -10.010 -21.486  0.00  0.00    +0.003 C 
BRANCH  34  38
ATOM     36  N   UNL     1      30.845  -7.468 -22.913  0.00  0.00    -0.343 N 
ATOM     37  N   UNL     1      32.131  -8.670 -24.449  0.00  0.00    -0.285 NA
ATOM     38  C   UNL     1      31.525  -8.629 -23.276  0.00  0.00    +0.117 C 
ATOM     39  H   UNL     1      30.823  -6.697 -23.526  0.00  0.00    +0.144 HD
ATOM     40  H   UNL     1      30.384  -7.418 -22.044  0.00  0.00    +0.144 HD
ATOM     41  H   UNL     1      32.100  -7.889 -25.048  0.00  0.00    +0.188 HD
ENDBRANCH  34  38
ENDBRANCH  25  26
ENDBRANCH   1  25
TORSDOF 5
ENDMDL
MODEL 5
REMARK VINA RESULT:     -11.2      6.962     12.028
REMARK  Name = 448062
REMARK  5 active torsions:
REMARK  status: ('A' for Active; 'I' for Inactive)
REMARK    1  A    between atoms: N_1  and  C_25
REMARK    2  A    between atoms: C_4  and  O_14
REMARK    3  A    between atoms: O_14  and  C_17
REMARK    4  A    between atoms: C_25  and  C_26
REMARK    5  A    between atoms: C_34  and  C_38
REMARK                            x       y       z     vdW  Elec       q    Type
REMARK                         _______ _______ _______ _____ _____    ______ ____
ROOT
ATOM      1  N   UNL     1      33.329 -12.179 -23.056  0.00  0.00    -0.323 N 
ATOM      2  C   UNL     1      32.694 -10.960 -23.112  0.00  0.00    +0.063 A 
ATOM      3  C   UNL     1      31.982 -10.811 -21.922  0.00  0.00    +0.017 A 
ATOM      4  C   UNL     1      31.952  -8.827 -23.902  0.00  0.00    +0.140 C 
ATOM      5  C   UNL     1      33.051 -12.822 -21.873  0.00  0.00    +0.060 A 
ATOM      6  C   UNL     1      32.207 -11.988 -21.139  0.00  0.00    +0.017 A 
ATOM      7  C   UNL     1      32.699  -9.987 -24.119  0.00  0.00    +0.054 C 
ATOM      8  C   UNL     1      31.234  -9.631 -21.727  0.00  0.00    +0.005 C 
ATOM      9  C   UNL     1      31.230  -8.648 -22.724  0.00  0.00    +0.037 C 
ATOM     10  C   UNL     1      33.481 -14.067 -21.403  0.00  0.00    +0.017 C 
ATOM     11  C   UNL     1      31.769 -12.421 -19.870  0.00  0.00    +0.001 C 
ATOM     12  C   UNL     1      33.033 -14.473 -20.143  0.00  0.00    +0.001 C 
ATOM     13  C   UNL     1      32.190 -13.664 -19.386  0.00  0.00    +0.000 C 
ENDROOT
BRANCH   4  14
ATOM     14  O   UNL     1      31.931  -7.855 -24.858  0.00  0.00    -0.479 OA
BRANCH  14  17
ATOM     15  N   UNL     1      34.492  -4.677 -25.618  0.00  0.00    -0.297 N 
ATOM     16  N   UNL     1      34.847  -2.985 -27.205  0.00  0.00    -0.289 NA
ATOM     17  C   UNL     1      32.706  -6.688 -24.609  0.00  0.00    +0.169 C 
ATOM     18  C   UNL     1      32.207  -5.538 -25.485  0.00  0.00    +0.065 C 
ATOM     19  C   UNL     1      34.172  -6.997 -24.914  0.00  0.00    +0.065 C 
ATOM     20  C   UNL     1      33.103  -4.311 -25.350  0.00  0.00    +0.096 C 
ATOM     21  C   UNL     1      35.040  -5.748 -24.787  0.00  0.00    +0.096 C 
ATOM     22  C   UNL     1      35.253  -4.002 -26.510  0.00  0.00    +0.100 C 
ATOM     23  C   UNL     1      36.672  -4.473 -26.701  0.00  0.00    +0.068 C 
ATOM     24  H   UNL     1      33.926  -2.654 -27.102  0.00  0.00    +0.188 HD
ENDBRANCH  14  17
ENDBRANCH   4  14
BRANCH   1  25
ATOM     25  C   UNL     1      34.179 -12.713 -24.102  0.00  0.00    +0.133 C 
BRANCH  25  26
ATOM     26  C   UNL     1      34.186 -14.217 -24.090  0.00  0.00    +0.000 C 
ATOM     27  C   UNL     1      34.896 -14.889 -23.104  0.00  0.00    -0.002 C 
ATOM     28  C   UNL     1      33.484 -14.911 -25.062  0.00  0.00    -0.002 C 
ATOM     29  C   UNL     1      34.913 -16.293 -23.077  0.00  0.00    -0.000 C 
ATOM     30  C   UNL     1      34.200 -17.012 -24.066  0.00  0.00    -0.000 C 
ATOM     31  C   UNL     1      33.490 -16.306 -25.052  0.00  0.00    -0.000 C 
ATOM     32  C   UNL     1      35.622 -16.999 -22.093  0.00  0.00    +0.003 C 
ATOM     33  C   UNL     1      34.217 -18.417 -24.040  0.00  0.00    +0.000 C 
ATOM     34  C   UNL     1      35.629 -18.394 -22.083  0.00  0.00    +0.031 C 
ATOM     35  C   UNL     1      34.927 -19.101 -23.054  0.00  0.00    +0.003 C 
BRANCH  34  38
ATOM     36  N   UNL     1      37.753 -19.011 -20.955  0.00  0.00    -0.343 N 
ATOM     37  N   UNL     1      35.721 -19.879 -20.195  0.00  0.00    -0.285 NA
ATOM     38  C   UNL     1      36.367 -19.111 -21.055  0.00  0.00    +0.117 C 
ATOM     39  H   UNL     1      38.233 -19.505 -20.252  0.00  0.00    +0.144 HD
ATOM     40  H   UNL     1      38.253 -18.447 -21.589  0.00  0.00    +0.144 HD
ATOM     41  H   UNL     1      36.219 -20.364 -19.498  0.00  0.00    +0.188 HD
ENDBRANCH  34  38
ENDBRANCH  25  26
ENDBRANCH   1  25
TORSDOF 5
ENDMDL
MODEL 6
REMARK VINA RESULT:     -11.1      7.804     15.751
REMARK  Name = 448062
REMARK  5 active torsions:
REMARK  status: ('A' for Active; 'I' for Inactive)
REMARK    1  A    between atoms: N_1  and  C_25
REMARK    2  A    between atoms: C_4  and  O_14
REMARK    3  A    between atoms: O_14  and  C_17
REMARK    4  A    between atoms: C_25  and  C_26
REMARK    5  A    between atoms: C_34  and  C_38
REMARK                            x       y       z     vdW  Elec       q    Type
REMARK                         _______ _______ _______ _____ _____    ______ ____
ROOT
ATOM      1  N   UNL     1      33.561  -9.061 -22.565  0.00  0.00    -0.323 N 
ATOM      2  C   UNL     1      33.043 -10.334 -22.591  0.00  0.00    +0.063 A 
ATOM      3  C   UNL     1      32.215 -10.465 -21.477  0.00  0.00    +0.017 A 
ATOM      4  C   UNL     1      32.577 -12.577 -23.284  0.00  0.00    +0.140 C 
ATOM      5  C   UNL     1      33.098  -8.366 -21.473  0.00  0.00    +0.060 A 
ATOM      6  C   UNL     1      32.249  -9.221 -20.769  0.00  0.00    +0.017 A 
ATOM      7  C   UNL     1      33.244 -11.370 -23.512  0.00  0.00    +0.054 C 
ATOM      8  C   UNL     1      31.554 -11.694 -21.268  0.00  0.00    +0.005 C 
ATOM      9  C   UNL     1      31.744 -12.739 -22.181  0.00  0.00    +0.037 C 
ATOM     10  C   UNL     1      33.364  -7.056 -21.061  0.00  0.00    +0.017 C 
ATOM     11  C   UNL     1      31.636  -8.744 -19.593  0.00  0.00    +0.001 C 
ATOM     12  C   UNL     1      32.743  -6.606 -19.892  0.00  0.00    +0.001 C 
ATOM     13  C   UNL     1      31.891  -7.436 -19.167  0.00  0.00    +0.000 C 
ENDROOT
BRANCH   4  14
ATOM     14  O   UNL     1      32.746 -13.610 -24.158  0.00  0.00    -0.479 OA
BRANCH  14  17
ATOM     15  N   UNL     1      34.962 -16.962 -23.112  0.00  0.00    -0.297 N 
ATOM     16  N   UNL     1      34.941 -19.294 -23.376  0.00  0.00    -0.289 NA
ATOM     17  C   UNL     1      33.887 -14.438 -23.964  0.00  0.00    +0.169 C 
ATOM     18  C   UNL     1      33.769 -15.693 -24.829  0.00  0.00    +0.065 C 
ATOM     19  C   UNL     1      33.978 -14.812 -22.485  0.00  0.00    +0.065 C 
ATOM     20  C   UNL     1      34.904 -16.671 -24.543  0.00  0.00    +0.096 C 
ATOM     21  C   UNL     1      35.111 -15.803 -22.232  0.00  0.00    +0.096 C 
ATOM     22  C   UNL     1      34.975 -18.229 -22.637  0.00  0.00    +0.100 C 
ATOM     23  C   UNL     1      35.036 -18.402 -21.141  0.00  0.00    +0.068 C 
ATOM     24  H   UNL     1      34.901 -19.212 -24.356  0.00  0.00    +0.188 HD
ENDBRANCH  14  17
ENDBRANCH   4  14
BRANCH   1  25
ATOM     25  C   UNL     1      34.471  -8.523 -23.557  0.00  0.00    +0.133 C 
BRANCH  25  26
ATOM     26  C   UNL     1      33.853  -7.371 -24.302  0.00  0.00    +0.000 C 
ATOM     27  C   UNL     1      34.675  -6.431 -24.911  0.00  0.00    -0.002 C 
ATOM     28  C   UNL     1      32.474  -7.263 -24.371  0.00  0.00    -0.002 C 
ATOM     29  C   UNL     1      34.114  -5.350 -25.611  0.00  0.00    -0.000 C 
ATOM     30  C   UNL     1      32.706  -5.231 -25.686  0.00  0.00    -0.000 C 
ATOM     31  C   UNL     1      31.900  -6.195 -25.060  0.00  0.00    -0.000 C 
ATOM     32  C   UNL     1      34.920  -4.385 -26.236  0.00  0.00    +0.003 C 
ATOM     33  C   UNL     1      32.145  -4.149 -26.386  0.00  0.00    +0.000 C 
ATOM     34  C   UNL     1      34.346  -3.317 -26.926  0.00  0.00    +0.031 C 
ATOM     35  C   UNL     1      32.961  -3.200 -27.001  0.00  0.00    +0.003 C 
BRANCH  34  38
ATOM     36  N   UNL     1      36.395  -1.917 -26.995  0.00  0.00    -0.343 N 
ATOM     37  N   UNL     1      34.826  -1.794 -28.722  0.00  0.00    -0.285 NA
ATOM     38  C   UNL     1      35.194  -2.326 -27.569  0.00  0.00    +0.117 C 
ATOM     39  H   UNL     1      36.954  -1.245 -27.447  0.00  0.00    +0.144 HD
ATOM     40  H   UNL     1      36.685  -2.299 -26.135  0.00  0.00    +0.144 HD
ATOM     41  H   UNL     1      35.399  -1.123 -29.160  0.00  0.00    +0.188 HD
ENDBRANCH  34  38
ENDBRANCH  25  26
ENDBRANCH   1  25
TORSDOF 5
ENDMDL
MODEL 7
REMARK VINA RESULT:     -11.0      2.892      9.400
REMARK  Name = 448062
REMARK  5 active torsions:
REMARK  status: ('A' for Active; 'I' for Inactive)
REMARK    1  A    between atoms: N_1  and  C_25
REMARK    2  A    between atoms: C_4  and  O_14
REMARK    3  A    between atoms: O_14  and  C_17
REMARK    4  A    between atoms: C_25  and  C_26
REMARK    5  A    between atoms: C_34  and  C_38
REMARK                            x       y       z     vdW  Elec       q    Type
REMARK                         _______ _______ _______ _____ _____    ______ ____
ROOT
ATOM      1  N   UNL     1      31.953 -23.689 -15.881  0.00  0.00    -0.323 N 
ATOM      2  C   UNL     1      32.550 -23.703 -14.643  0.00  0.00    +0.063 A 
ATOM      3  C   UNL     1      31.619 -23.208 -13.730  0.00  0.00    +0.017 A 
ATOM      4  C   UNL     1      34.176 -24.016 -12.915  0.00  0.00    +0.140 C 
ATOM      5  C   UNL     1      30.670 -23.202 -15.801  0.00  0.00    +0.060 A 
ATOM      6  C   UNL     1      30.430 -22.890 -14.461  0.00  0.00    +0.017 A 
ATOM      7  C   UNL     1      33.835 -24.114 -14.266  0.00  0.00    +0.054 C 
ATOM      8  C   UNL     1      31.989 -23.117 -12.372  0.00  0.00    +0.005 C 
ATOM      9  C   UNL     1      33.269 -23.526 -11.980  0.00  0.00    +0.037 C 
ATOM     10  C   UNL     1      29.713 -23.016 -16.804  0.00  0.00    +0.017 C 
ATOM     11  C   UNL     1      29.170 -22.366 -14.107  0.00  0.00    +0.001 C 
ATOM     12  C   UNL     1      28.472 -22.495 -16.426  0.00  0.00    +0.001 C 
ATOM     13  C   UNL     1      28.202 -22.175 -15.098  0.00  0.00    +0.000 C 
ENDROOT
BRANCH   4  14
ATOM     14  O   UNL     1      35.418 -24.407 -12.508  0.00  0.00    -0.479 OA
BRANCH  14  17
ATOM     15  N   UNL     1      39.004 -25.500 -14.292  0.00  0.00    -0.297 N 
ATOM     16  N   UNL     1      40.926 -26.773 -13.850  0.00  0.00    -0.289 NA
ATOM     17  C   UNL     1      36.312 -24.864 -13.516  0.00  0.00    +0.169 C 
ATOM     18  C   UNL     1      36.998 -26.151 -13.055  0.00  0.00    +0.065 C 
ATOM     19  C   UNL     1      37.347 -23.773 -13.788  0.00  0.00    +0.065 C 
ATOM     20  C   UNL     1      38.067 -26.595 -14.047  0.00  0.00    +0.096 C 
ATOM     21  C   UNL     1      38.413 -24.251 -14.770  0.00  0.00    +0.096 C 
ATOM     22  C   UNL     1      40.342 -25.662 -14.178  0.00  0.00    +0.100 C 
ATOM     23  C   UNL     1      41.207 -24.459 -14.456  0.00  0.00    +0.068 C 
ATOM     24  H   UNL     1      40.387 -27.575 -13.663  0.00  0.00    +0.188 HD
ENDBRANCH  14  17
ENDBRANCH   4  14
BRANCH   1  25
ATOM     25  C   UNL     1      32.590 -24.130 -17.107  0.00  0.00    +0.133 C 
BRANCH  25  26
ATOM     26  C   UNL     1      33.694 -23.195 -17.520  0.00  0.00    +0.000 C 
ATOM     27  C   UNL     1      33.547 -22.431 -18.670  0.00  0.00    -0.002 C 
ATOM     28  C   UNL     1      34.840 -23.109 -16.748  0.00  0.00    -0.002 C 
ATOM     29  C   UNL     1      34.568 -21.552 -19.069  0.00  0.00    -0.000 C 
ATOM     30  C   UNL     1      35.744 -21.457 -18.288  0.00  0.00    -0.000 C 
ATOM     31  C   UNL     1      35.865 -22.243 -17.130  0.00  0.00    -0.000 C 
ATOM     32  C   UNL     1      34.448 -20.768 -20.227  0.00  0.00    +0.003 C 
ATOM     33  C   UNL     1      36.765 -20.579 -18.688  0.00  0.00    +0.000 C 
ATOM     34  C   UNL     1      35.472 -19.901 -20.610  0.00  0.00    +0.031 C 
ATOM     35  C   UNL     1      36.628 -19.807 -19.841  0.00  0.00    +0.003 C 
BRANCH  34  38
ATOM     36  N   UNL     1      36.087 -17.939 -22.001  0.00  0.00    -0.343 N 
ATOM     37  N   UNL     1      34.470 -19.452 -22.747  0.00  0.00    -0.285 NA
ATOM     38  C   UNL     1      35.332 -19.094 -21.811  0.00  0.00    +0.117 C 
ATOM     39  H   UNL     1      35.976 -17.406 -22.822  0.00  0.00    +0.144 HD
ATOM     40  H   UNL     1      36.732 -17.653 -21.314  0.00  0.00    +0.144 HD
ATOM     41  H   UNL     1      34.374 -18.907 -23.562  0.00  0.00    +0.188 HD
ENDBRANCH  34  38
ENDBRANCH  25  26
ENDBRANCH   1  25
TORSDOF 5
ENDMDL
MODEL 8
REMARK VINA RESULT:     -10.9      8.812     15.114
REMARK  Name = 448062
REMARK  5 active torsions:
REMARK  status: ('A' for Active; 'I' for Inactive)
REMARK    1  A    between atoms: N_1  and  C_25
REMARK    2  A    between atoms: C_4  and  O_14
REMARK    3  A    between atoms: O_14  and  C_17
REMARK    4  A    between atoms: C_25  and  C_26
REMARK    5  A    between atoms: C_34  and  C_38
REMARK                            x       y       z     vdW  Elec       q    Type
REMARK                         _______ _______ _______ _____ _____    ______ ____
ROOT
ATOM      1  N   UNL     1      32.432 -11.435 -22.133  0.00  0.00    -0.323 N 
ATOM      2  C   UNL     1      32.111 -10.603 -21.087  0.00  0.00    +0.063 A 
ATOM      3  C   UNL     1      32.247 -11.343 -19.913  0.00  0.00    +0.017 A 
ATOM      4  C   UNL     1      31.447  -8.658 -19.861  0.00  0.00    +0.140 C 
ATOM      5  C   UNL     1      32.771 -12.687 -21.677  0.00  0.00    +0.060 A 
ATOM      6  C   UNL     1      32.664 -12.661 -20.285  0.00  0.00    +0.017 A 
ATOM      7  C   UNL     1      31.713  -9.260 -21.094  0.00  0.00    +0.054 C 
ATOM      8  C   UNL     1      31.972 -10.713 -18.682  0.00  0.00    +0.005 C 
ATOM      9  C   UNL     1      31.574  -9.371 -18.672  0.00  0.00    +0.037 C 
ATOM     10  C   UNL     1      33.160 -13.829 -22.385  0.00  0.00    +0.017 C 
ATOM     11  C   UNL     1      32.962 -13.837 -19.565  0.00  0.00    +0.001 C 
ATOM     12  C   UNL     1      33.450 -14.980 -21.648  0.00  0.00    +0.001 C 
ATOM     13  C   UNL     1      33.353 -14.987 -20.259  0.00  0.00    +0.000 C 
ENDROOT
BRANCH   4  14
ATOM     14  O   UNL     1      31.057  -7.352 -19.825  0.00  0.00    -0.479 OA
BRANCH  14  17
ATOM     15  N   UNL     1      31.472  -3.956 -22.178  0.00  0.00    -0.297 N 
ATOM     16  N   UNL     1      32.358  -1.786 -22.075  0.00  0.00    -0.289 NA
ATOM     17  C   UNL     1      31.346  -6.560 -20.972  0.00  0.00    +0.169 C 
ATOM     18  C   UNL     1      32.478  -5.582 -20.654  0.00  0.00    +0.065 C 
ATOM     19  C   UNL     1      30.082  -5.803 -21.379  0.00  0.00    +0.065 C 
ATOM     20  C   UNL     1      32.721  -4.621 -21.813  0.00  0.00    +0.096 C 
ATOM     21  C   UNL     1      30.359  -4.838 -22.528  0.00  0.00    +0.096 C 
ATOM     22  C   UNL     1      31.379  -2.610 -22.281  0.00  0.00    +0.100 C 
ATOM     23  C   UNL     1      30.037  -2.040 -22.664  0.00  0.00    +0.068 C 
ATOM     24  H   UNL     1      33.247  -2.128 -21.823  0.00  0.00    +0.188 HD
ENDBRANCH  14  17
ENDBRANCH   4  14
BRANCH   1  25
ATOM     25  C   UNL     1      32.418 -11.045 -23.530  0.00  0.00    +0.133 C 
BRANCH  25  26
ATOM     26  C   UNL     1      33.185  -9.770 -23.751  0.00  0.00    +0.000 C 
ATOM     27  C   UNL     1      32.540  -8.671 -24.304  0.00  0.00    -0.002 C 
ATOM     28  C   UNL     1      34.524  -9.708 -23.400  0.00  0.00    -0.002 C 
ATOM     29  C   UNL     1      33.242  -7.473 -24.516  0.00  0.00    -0.000 C 
ATOM     30  C   UNL     1      34.610  -7.400 -24.162  0.00  0.00    -0.000 C 
ATOM     31  C   UNL     1      35.237  -8.527 -23.605  0.00  0.00    -0.000 C 
ATOM     32  C   UNL     1      32.616  -6.347 -25.074  0.00  0.00    +0.003 C 
ATOM     33  C   UNL     1      35.312  -6.201 -24.375  0.00  0.00    +0.000 C 
ATOM     34  C   UNL     1      33.328  -5.165 -25.279  0.00  0.00    +0.031 C 
ATOM     35  C   UNL     1      34.673  -5.093 -24.930  0.00  0.00    +0.003 C 
BRANCH  34  38
ATOM     36  N   UNL     1      31.956  -4.097 -27.052  0.00  0.00    -0.343 N 
ATOM     37  N   UNL     1      32.733  -2.837 -25.245  0.00  0.00    -0.285 NA
ATOM     38  C   UNL     1      32.665  -4.006 -25.856  0.00  0.00    +0.117 C 
ATOM     39  H   UNL     1      31.515  -3.300 -27.426  0.00  0.00    +0.144 HD
ATOM     40  H   UNL     1      31.897  -4.959 -27.525  0.00  0.00    +0.144 HD
ATOM     41  H   UNL     1      32.284  -2.051 -25.633  0.00  0.00    +0.188 HD
ENDBRANCH  34  38
ENDBRANCH  25  26
ENDBRANCH   1  25
TORSDOF 5
ENDMDL
MODEL 9
REMARK VINA RESULT:     -10.9      2.280      3.854
REMARK  Name = 448062
REMARK  5 active torsions:
REMARK  status: ('A' for Active; 'I' for Inactive)
REMARK    1  A    between atoms: N_1  and  C_25
REMARK    2  A    between atoms: C_4  and  O_14
REMARK    3  A    between atoms: O_14  and  C_17
REMARK    4  A    between atoms: C_25  and  C_26
REMARK    5  A    between atoms: C_34  and  C_38
REMARK                            x       y       z     vdW  Elec       q    Type
REMARK                         _______ _______ _______ _____ _____    ______ ____
ROOT
ATOM      1  N   UNL     1      34.202 -23.535 -13.095  0.00  0.00    -0.323 N 
ATOM      2  C   UNL     1      34.475 -23.247 -14.411  0.00  0.00    +0.063 A 
ATOM      3  C   UNL     1      35.839 -23.463 -14.607  0.00  0.00    +0.017 A 
ATOM      4  C   UNL     1      34.182 -22.599 -16.696  0.00  0.00    +0.140 C 
ATOM      5  C   UNL     1      35.342 -23.929 -12.433  0.00  0.00    +0.060 A 
ATOM      6  C   UNL     1      36.388 -23.893 -13.357  0.00  0.00    +0.017 A 
ATOM      7  C   UNL     1      33.622 -22.816 -15.434  0.00  0.00    +0.054 C 
ATOM      8  C   UNL     1      36.381 -23.236 -15.889  0.00  0.00    +0.005 C 
ATOM      9  C   UNL     1      35.541 -22.806 -16.923  0.00  0.00    +0.037 C 
ATOM     10  C   UNL     1      35.522 -24.310 -11.099  0.00  0.00    +0.017 C 
ATOM     11  C   UNL     1      37.680 -24.257 -12.925  0.00  0.00    +0.001 C 
ATOM     12  C   UNL     1      36.812 -24.666 -10.697  0.00  0.00    +0.001 C 
ATOM     13  C   UNL     1      37.877 -24.641 -11.594  0.00  0.00    +0.000 C 
ENDROOT
BRANCH   4  14
ATOM     14  O   UNL     1      33.385 -22.179 -17.719  0.00  0.00    -0.479 OA
BRANCH  14  17
ATOM     15  N   UNL     1      35.552 -20.056 -20.554  0.00  0.00    -0.297 N 
ATOM     16  N   UNL     1      37.515 -18.784 -20.744  0.00  0.00    -0.289 NA
ATOM     17  C   UNL     1      34.024 -21.891 -18.958  0.00  0.00    +0.169 C 
ATOM     18  C   UNL     1      35.522 -21.688 -18.733  0.00  0.00    +0.065 C 
ATOM     19  C   UNL     1      33.395 -20.632 -19.555  0.00  0.00    +0.065 C 
ATOM     20  C   UNL     1      36.219 -21.239 -20.014  0.00  0.00    +0.096 C 
ATOM     21  C   UNL     1      34.122 -20.197 -20.825  0.00  0.00    +0.096 C 
ATOM     22  C   UNL     1      36.234 -18.932 -20.875  0.00  0.00    +0.100 C 
ATOM     23  C   UNL     1      35.436 -17.776 -21.423  0.00  0.00    +0.068 C 
ATOM     24  H   UNL     1      38.063 -19.521 -20.389  0.00  0.00    +0.188 HD
ENDBRANCH  14  17
ENDBRANCH   4  14
BRANCH   1  25
ATOM     25  C   UNL     1      32.890 -23.439 -12.487  0.00  0.00    +0.133 C 
BRANCH  25  26
ATOM     26  C   UNL     1      31.809 -23.862 -13.444  0.00  0.00    +0.000 C 
ATOM     27  C   UNL     1      30.784 -22.978 -13.751  0.00  0.00    -0.002 C 
ATOM     28  C   UNL     1      31.851 -25.127 -14.006  0.00  0.00    -0.002 C 
ATOM     29  C   UNL     1      29.767 -23.356 -14.643  0.00  0.00    -0.000 C 
ATOM     30  C   UNL     1      29.800 -24.647 -15.223  0.00  0.00    -0.000 C 
ATOM     31  C   UNL     1      30.849 -25.521 -14.893  0.00  0.00    -0.000 C 
ATOM     32  C   UNL     1      28.718 -22.483 -14.972  0.00  0.00    +0.003 C 
ATOM     33  C   UNL     1      28.783 -25.026 -16.115  0.00  0.00    +0.000 C 
ATOM     34  C   UNL     1      27.716 -22.876 -15.860  0.00  0.00    +0.031 C 
ATOM     35  C   UNL     1      27.749 -24.145 -16.430  0.00  0.00    +0.003 C 
BRANCH  34  38
ATOM     36  N   UNL     1      25.577 -21.739 -15.314  0.00  0.00    -0.343 N 
ATOM     37  N   UNL     1      26.649 -21.320 -17.348  0.00  0.00    -0.285 NA
ATOM     38  C   UNL     1      26.637 -21.960 -16.191  0.00  0.00    +0.117 C 
ATOM     39  H   UNL     1      24.857 -21.114 -15.559  0.00  0.00    +0.144 HD
ATOM     40  H   UNL     1      25.548 -22.208 -14.449  0.00  0.00    +0.144 HD
ATOM     41  H   UNL     1      25.920 -20.698 -17.574  0.00  0.00    +0.188 HD
ENDBRANCH  34  38
ENDBRANCH  25  26
ENDBRANCH   1  25
TORSDOF 5
ENDMDL
