MODEL 1
REMARK VINA RESULT:     -11.0      0.000      0.000
REMARK  Name = 447478
REMARK  5 active torsions:
REMARK  status: ('A' for Active; 'I' for Inactive)
REMARK    1  A    between atoms: C_2  and  C_19
REMARK    2  A    between atoms: C_8  and  C_13
REMARK    3  A    between atoms: C_17  and  O_25
REMARK    4  A    between atoms: C_18  and  O_23
REMARK    5  A    between atoms: O_25  and  C_26
REMARK                            x       y       z     vdW  Elec       q    Type
REMARK                         _______ _______ _______ _____ _____    ______ ____
ROOT
ATOM      1  N   UNL     1      33.620 -14.127 -23.509  0.00  0.00    -0.312 N 
ATOM      2  C   UNL     1      33.429 -13.320 -22.420  0.00  0.00    +0.051 C 
ATOM      3  C   UNL     1      34.516 -15.192 -21.767  0.00  0.00    +0.015 C 
ATOM      4  C   UNL     1      34.281 -15.276 -23.140  0.00  0.00    +0.048 C 
ATOM      5  C   UNL     1      33.973 -13.953 -21.325  0.00  0.00    +0.016 C 
ATOM      6  C   UNL     1      35.188 -16.252 -21.127  0.00  0.00    +0.004 C 
ATOM      7  C   UNL     1      34.685 -16.373 -23.910  0.00  0.00    +0.015 C 
ATOM      8  C   UNL     1      35.597 -17.356 -21.884  0.00  0.00    +0.031 C 
ATOM      9  C   UNL     1      35.349 -17.413 -23.254  0.00  0.00    +0.004 C 
ATOM     10  H   UNL     1      33.327 -13.914 -24.426  0.00  0.00    +0.152 HD
ENDROOT
BRANCH   8  13
ATOM     11  N   UNL     1      35.600 -19.416 -20.495  0.00  0.00    -0.343 N 
ATOM     12  N   UNL     1      37.606 -18.552 -21.327  0.00  0.00    -0.285 NA
ATOM     13  C   UNL     1      36.292 -18.456 -21.231  0.00  0.00    +0.117 C 
ATOM     14  H   UNL     1      36.090 -20.151 -20.061  0.00  0.00    +0.144 HD
ATOM     15  H   UNL     1      34.620 -19.358 -20.410  0.00  0.00    +0.144 HD
ATOM     16  H   UNL     1      38.079 -19.295 -20.886  0.00  0.00    +0.188 HD
ENDBRANCH   8  13
BRANCH   2  19
ATOM     17  C   UNL     1      32.679  -9.753 -23.279  0.00  0.00    +0.172 C 
ATOM     18  C   UNL     1      33.345 -10.976 -23.195  0.00  0.00    +0.169 C 
ATOM     19  C   UNL     1      32.759 -12.046 -22.517  0.00  0.00    +0.050 C 
ATOM     20  C   UNL     1      31.428  -9.598 -22.683  0.00  0.00    +0.040 C 
ATOM     21  C   UNL     1      31.506 -11.889 -21.923  0.00  0.00    +0.004 C 
ATOM     22  C   UNL     1      30.841 -10.667 -22.005  0.00  0.00    +0.003 C 
BRANCH  18  23
ATOM     23  O   UNL     1      34.569 -11.113 -23.784  0.00  0.00    -0.503 OA
ATOM     24  H   UNL     1      35.035 -10.354 -24.077  0.00  0.00    +0.292 HD
ENDBRANCH  18  23
BRANCH  17  25
ATOM     25  O   UNL     1      33.240  -8.701 -23.938  0.00  0.00    -0.476 OA
BRANCH  25  26
ATOM     26  C   UNL     1      33.152  -7.427 -23.314  0.00  0.00    +0.166 C 
ATOM     27  C   UNL     1      33.542  -6.347 -24.311  0.00  0.00    +0.044 C 
ATOM     28  C   UNL     1      34.211  -7.291 -22.231  0.00  0.00    +0.044 C 
ATOM     29  C   UNL     1      35.070  -6.369 -24.323  0.00  0.00    +0.004 C 
ATOM     30  C   UNL     1      35.498  -7.005 -23.000  0.00  0.00    +0.004 C 
ENDBRANCH  25  26
ENDBRANCH  17  25
ENDBRANCH   2  19
TORSDOF 5
ENDMDL
MODEL 2
REMARK VINA RESULT:     -10.4      7.672     12.669
REMARK  Name = 447478
REMARK  5 active torsions:
REMARK  status: ('A' for Active; 'I' for Inactive)
REMARK    1  A    between atoms: C_2  and  C_19
REMARK    2  A    between atoms: C_8  and  C_13
REMARK    3  A    between atoms: C_17  and  O_25
REMARK    4  A    between atoms: C_18  and  O_23
REMARK    5  A    between atoms: O_25  and  C_26
REMARK                            x       y       z     vdW  Elec       q    Type
REMARK                         _______ _______ _______ _____ _____    ______ ____
ROOT
ATOM      1  N   UNL     1      36.148 -20.621 -19.060  0.00  0.00    -0.312 N 
ATOM      2  C   UNL     1      34.976 -21.267 -18.772  0.00  0.00    +0.051 C 
ATOM      3  C   UNL     1      34.704 -20.060 -20.664  0.00  0.00    +0.015 C 
ATOM      4  C   UNL     1      36.011 -19.877 -20.210  0.00  0.00    +0.048 C 
ATOM      5  C   UNL     1      34.062 -20.939 -19.748  0.00  0.00    +0.016 C 
ATOM      6  C   UNL     1      34.296 -19.401 -21.841  0.00  0.00    +0.004 C 
ATOM      7  C   UNL     1      36.935 -19.064 -20.876  0.00  0.00    +0.015 C 
ATOM      8  C   UNL     1      35.209 -18.584 -22.517  0.00  0.00    +0.031 C 
ATOM      9  C   UNL     1      36.508 -18.420 -22.041  0.00  0.00    +0.004 C 
ATOM     10  H   UNL     1      36.972 -20.682 -18.522  0.00  0.00    +0.152 HD
ENDROOT
BRANCH   8  13
ATOM     11  N   UNL     1      35.223 -16.605 -24.017  0.00  0.00    -0.343 N 
ATOM     12  N   UNL     1      33.996 -18.510 -24.590  0.00  0.00    -0.285 NA
ATOM     13  C   UNL     1      34.796 -17.900 -23.734  0.00  0.00    +0.117 C 
ATOM     14  H   UNL     1      34.931 -16.160 -24.846  0.00  0.00    +0.144 HD
ATOM     15  H   UNL     1      35.817 -16.134 -23.389  0.00  0.00    +0.144 HD
ATOM     16  H   UNL     1      33.714 -18.049 -25.414  0.00  0.00    +0.188 HD
ENDBRANCH   8  13
BRANCH   2  19
ATOM     17  C   UNL     1      33.484 -23.493 -16.156  0.00  0.00    +0.172 C 
ATOM     18  C   UNL     1      33.598 -22.670 -17.277  0.00  0.00    +0.169 C 
ATOM     19  C   UNL     1      34.835 -22.120 -17.617  0.00  0.00    +0.050 C 
ATOM     20  C   UNL     1      34.605 -23.766 -15.374  0.00  0.00    +0.040 C 
ATOM     21  C   UNL     1      35.957 -22.395 -16.834  0.00  0.00    +0.004 C 
ATOM     22  C   UNL     1      35.843 -23.217 -15.713  0.00  0.00    +0.003 C 
BRANCH  18  23
ATOM     23  O   UNL     1      32.491 -22.412 -18.033  0.00  0.00    -0.503 OA
ATOM     24  H   UNL     1      31.686 -22.172 -17.618  0.00  0.00    +0.292 HD
ENDBRANCH  18  23
BRANCH  17  25
ATOM     25  O   UNL     1      32.282 -24.035 -15.813  0.00  0.00    -0.476 OA
BRANCH  25  26
ATOM     26  C   UNL     1      31.759 -23.691 -14.537  0.00  0.00    +0.166 C 
ATOM     27  C   UNL     1      31.466 -24.959 -13.752  0.00  0.00    +0.044 C 
ATOM     28  C   UNL     1      30.386 -23.052 -14.681  0.00  0.00    +0.044 C 
ATOM     29  C   UNL     1      30.127 -25.450 -14.301  0.00  0.00    +0.004 C 
ATOM     30  C   UNL     1      29.448 -24.231 -14.926  0.00  0.00    +0.004 C 
ENDBRANCH  25  26
ENDBRANCH  17  25
ENDBRANCH   2  19
TORSDOF 5
ENDMDL
MODEL 3
REMARK VINA RESULT:     -10.3      7.846     13.207
REMARK  Name = 447478
REMARK  5 active torsions:
REMARK  status: ('A' for Active; 'I' for Inactive)
REMARK    1  A    between atoms: C_2  and  C_19
REMARK    2  A    between atoms: C_8  and  C_13
REMARK    3  A    between atoms: C_17  and  O_25
REMARK    4  A    between atoms: C_18  and  O_23
REMARK    5  A    between atoms: O_25  and  C_26
REMARK                            x       y       z     vdW  Elec       q    Type
REMARK                         _______ _______ _______ _____ _____    ______ ____
ROOT
ATOM      1  N   UNL     1      36.183 -20.861 -18.794  0.00  0.00    -0.312 N 
ATOM      2  C   UNL     1      34.996 -21.488 -18.525  0.00  0.00    +0.051 C 
ATOM      3  C   UNL     1      34.762 -20.241 -20.397  0.00  0.00    +0.015 C 
ATOM      4  C   UNL     1      36.069 -20.094 -19.931  0.00  0.00    +0.048 C 
ATOM      5  C   UNL     1      34.096 -21.123 -19.500  0.00  0.00    +0.016 C 
ATOM      6  C   UNL     1      34.375 -19.553 -21.564  0.00  0.00    +0.004 C 
ATOM      7  C   UNL     1      37.014 -19.289 -20.576  0.00  0.00    +0.015 C 
ATOM      8  C   UNL     1      35.310 -18.744 -22.220  0.00  0.00    +0.031 C 
ATOM      9  C   UNL     1      36.609 -18.615 -21.732  0.00  0.00    +0.004 C 
ATOM     10  H   UNL     1      37.001 -20.948 -18.252  0.00  0.00    +0.152 HD
ENDROOT
BRANCH   8  13
ATOM     11  N   UNL     1      35.348 -16.726 -23.668  0.00  0.00    -0.343 N 
ATOM     12  N   UNL     1      34.139 -18.619 -24.314  0.00  0.00    -0.285 NA
ATOM     13  C   UNL     1      34.920 -18.030 -23.426  0.00  0.00    +0.117 C 
ATOM     14  H   UNL     1      35.071 -16.261 -24.490  0.00  0.00    +0.144 HD
ATOM     15  H   UNL     1      35.928 -16.270 -23.015  0.00  0.00    +0.144 HD
ATOM     16  H   UNL     1      33.872 -18.137 -25.131  0.00  0.00    +0.188 HD
ENDBRANCH   8  13
BRANCH   2  19
ATOM     17  C   UNL     1      35.724 -23.509 -15.458  0.00  0.00    +0.172 C 
ATOM     18  C   UNL     1      35.907 -22.665 -16.554  0.00  0.00    +0.169 C 
ATOM     19  C   UNL     1      34.830 -22.358 -17.387  0.00  0.00    +0.050 C 
ATOM     20  C   UNL     1      34.466 -24.046 -15.193  0.00  0.00    +0.040 C 
ATOM     21  C   UNL     1      33.570 -22.896 -17.120  0.00  0.00    +0.004 C 
ATOM     22  C   UNL     1      33.387 -23.740 -16.025  0.00  0.00    +0.003 C 
BRANCH  18  23
ATOM     23  O   UNL     1      37.146 -22.146 -16.800  0.00  0.00    -0.503 OA
ATOM     24  H   UNL     1      37.231 -21.351 -17.289  0.00  0.00    +0.292 HD
ENDBRANCH  18  23
BRANCH  17  25
ATOM     25  O   UNL     1      36.768 -23.816 -14.638  0.00  0.00    -0.476 OA
BRANCH  25  26
ATOM     26  C   UNL     1      36.658 -25.010 -13.873  0.00  0.00    +0.166 C 
ATOM     27  C   UNL     1      37.436 -24.853 -12.576  0.00  0.00    +0.044 C 
ATOM     28  C   UNL     1      37.379 -26.154 -14.569  0.00  0.00    +0.044 C 
ATOM     29  C   UNL     1      38.892 -25.097 -12.971  0.00  0.00    +0.004 C 
ATOM     30  C   UNL     1      38.854 -25.906 -14.268  0.00  0.00    +0.004 C 
ENDBRANCH  25  26
ENDBRANCH  17  25
ENDBRANCH   2  19
TORSDOF 5
ENDMDL
MODEL 4
REMARK VINA RESULT:     -10.1      3.115      8.864
REMARK  Name = 447478
REMARK  5 active torsions:
REMARK  status: ('A' for Active; 'I' for Inactive)
REMARK    1  A    between atoms: C_2  and  C_19
REMARK    2  A    between atoms: C_8  and  C_13
REMARK    3  A    between atoms: C_17  and  O_25
REMARK    4  A    between atoms: C_18  and  O_23
REMARK    5  A    between atoms: O_25  and  C_26
REMARK                            x       y       z     vdW  Elec       q    Type
REMARK                         _______ _______ _______ _____ _____    ______ ____
ROOT
ATOM      1  N   UNL     1      32.584 -12.513 -22.086  0.00  0.00    -0.312 N 
ATOM      2  C   UNL     1      33.352 -12.797 -23.184  0.00  0.00    +0.051 C 
ATOM      3  C   UNL     1      32.991 -10.567 -23.097  0.00  0.00    +0.015 C 
ATOM      4  C   UNL     1      32.349 -11.159 -22.008  0.00  0.00    +0.048 C 
ATOM      5  C   UNL     1      33.620 -11.611 -23.830  0.00  0.00    +0.016 C 
ATOM      6  C   UNL     1      32.908  -9.169 -23.256  0.00  0.00    +0.004 C 
ATOM      7  C   UNL     1      31.623 -10.421 -21.067  0.00  0.00    +0.015 C 
ATOM      8  C   UNL     1      32.185  -8.418 -22.322  0.00  0.00    +0.031 C 
ATOM      9  C   UNL     1      31.554  -9.036 -21.245  0.00  0.00    +0.004 C 
ATOM     10  H   UNL     1      32.250 -13.182 -21.445  0.00  0.00    +0.152 HD
ENDROOT
BRANCH   8  13
ATOM     11  N   UNL     1      30.862  -6.330 -22.564  0.00  0.00    -0.343 N 
ATOM     12  N   UNL     1      33.198  -6.250 -22.546  0.00  0.00    -0.285 NA
ATOM     13  C   UNL     1      32.095  -6.974 -22.478  0.00  0.00    +0.117 C 
ATOM     14  H   UNL     1      30.824  -5.352 -22.670  0.00  0.00    +0.144 HD
ATOM     15  H   UNL     1      30.029  -6.854 -22.518  0.00  0.00    +0.144 HD
ATOM     16  H   UNL     1      33.139  -5.273 -22.653  0.00  0.00    +0.188 HD
ENDBRANCH   8  13
BRANCH   2  19
ATOM     17  C   UNL     1      34.791 -16.244 -22.915  0.00  0.00    +0.172 C 
ATOM     18  C   UNL     1      34.413 -14.944 -22.578  0.00  0.00    +0.169 C 
ATOM     19  C   UNL     1      33.752 -14.144 -23.511  0.00  0.00    +0.050 C 
ATOM     20  C   UNL     1      34.509 -16.745 -24.185  0.00  0.00    +0.040 C 
ATOM     21  C   UNL     1      33.470 -14.647 -24.782  0.00  0.00    +0.004 C 
ATOM     22  C   UNL     1      33.848 -15.946 -25.119  0.00  0.00    +0.003 C 
BRANCH  18  23
ATOM     23  O   UNL     1      34.696 -14.467 -21.329  0.00  0.00    -0.503 OA
ATOM     24  H   UNL     1      34.606 -13.553 -21.147  0.00  0.00    +0.292 HD
ENDBRANCH  18  23
BRANCH  17  25
ATOM     25  O   UNL     1      35.436 -17.035 -22.012  0.00  0.00    -0.476 OA
BRANCH  25  26
ATOM     26  C   UNL     1      35.924 -18.285 -22.482  0.00  0.00    +0.166 C 
ATOM     27  C   UNL     1      34.948 -19.385 -22.098  0.00  0.00    +0.044 C 
ATOM     28  C   UNL     1      37.191 -18.675 -21.735  0.00  0.00    +0.044 C 
ATOM     29  C   UNL     1      35.258 -19.679 -20.631  0.00  0.00    +0.004 C 
ATOM     30  C   UNL     1      36.689 -19.194 -20.391  0.00  0.00    +0.004 C 
ENDBRANCH  25  26
ENDBRANCH  17  25
ENDBRANCH   2  19
TORSDOF 5
ENDMDL
MODEL 5
REMARK VINA RESULT:     -10.1      3.809      7.141
REMARK  Name = 447478
REMARK  5 active torsions:
REMARK  status: ('A' for Active; 'I' for Inactive)
REMARK    1  A    between atoms: C_2  and  C_19
REMARK    2  A    between atoms: C_8  and  C_13
REMARK    3  A    between atoms: C_17  and  O_25
REMARK    4  A    between atoms: C_18  and  O_23
REMARK    5  A    between atoms: O_25  and  C_26
REMARK                            x       y       z     vdW  Elec       q    Type
REMARK                         _______ _______ _______ _____ _____    ______ ____
ROOT
ATOM      1  N   UNL     1      34.053 -20.405 -20.416  0.00  0.00    -0.312 N 
ATOM      2  C   UNL     1      35.101 -19.674 -20.908  0.00  0.00    +0.051 C 
ATOM      3  C   UNL     1      35.810 -20.861 -19.119  0.00  0.00    +0.015 C 
ATOM      4  C   UNL     1      34.458 -21.139 -19.324  0.00  0.00    +0.048 C 
ATOM      5  C   UNL     1      36.203 -19.935 -20.126  0.00  0.00    +0.016 C 
ATOM      6  C   UNL     1      36.479 -21.491 -18.051  0.00  0.00    +0.004 C 
ATOM      7  C   UNL     1      33.736 -22.020 -18.510  0.00  0.00    +0.015 C 
ATOM      8  C   UNL     1      35.770 -22.374 -17.229  0.00  0.00    +0.031 C 
ATOM      9  C   UNL     1      34.420 -22.633 -17.456  0.00  0.00    +0.004 C 
ATOM     10  H   UNL     1      33.142 -20.406 -20.790  0.00  0.00    +0.152 HD
ENDROOT
BRANCH   8  13
ATOM     11  N   UNL     1      37.776 -22.727 -15.807  0.00  0.00    -0.343 N 
ATOM     12  N   UNL     1      35.816 -23.934 -15.402  0.00  0.00    -0.285 NA
ATOM     13  C   UNL     1      36.453 -23.029 -16.123  0.00  0.00    +0.117 C 
ATOM     14  H   UNL     1      38.219 -23.184 -15.055  0.00  0.00    +0.144 HD
ATOM     15  H   UNL     1      38.267 -22.058 -16.336  0.00  0.00    +0.144 HD
ATOM     16  H   UNL     1      36.276 -24.381 -14.654  0.00  0.00    +0.188 HD
ENDBRANCH   8  13
BRANCH   2  19
ATOM     17  C   UNL     1      34.888 -16.605 -23.043  0.00  0.00    +0.172 C 
ATOM     18  C   UNL     1      35.026 -17.422 -21.921  0.00  0.00    +0.169 C 
ATOM     19  C   UNL     1      34.960 -18.810 -22.055  0.00  0.00    +0.050 C 
ATOM     20  C   UNL     1      34.682 -17.173 -24.299  0.00  0.00    +0.040 C 
ATOM     21  C   UNL     1      34.755 -19.377 -23.314  0.00  0.00    +0.004 C 
ATOM     22  C   UNL     1      34.616 -18.561 -24.434  0.00  0.00    +0.003 C 
BRANCH  18  23
ATOM     23  O   UNL     1      35.228 -16.851 -20.697  0.00  0.00    -0.503 OA
ATOM     24  H   UNL     1      35.467 -17.385 -19.965  0.00  0.00    +0.292 HD
ENDBRANCH  18  23
BRANCH  17  25
ATOM     25  O   UNL     1      34.951 -15.249 -22.925  0.00  0.00    -0.476 OA
BRANCH  25  26
ATOM     26  C   UNL     1      33.752 -14.576 -22.563  0.00  0.00    +0.166 C 
ATOM     27  C   UNL     1      32.940 -14.281 -23.814  0.00  0.00    +0.044 C 
ATOM     28  C   UNL     1      34.064 -13.189 -22.023  0.00  0.00    +0.044 C 
ATOM     29  C   UNL     1      33.598 -13.039 -24.415  0.00  0.00    +0.004 C 
ATOM     30  C   UNL     1      34.346 -12.355 -23.270  0.00  0.00    +0.004 C 
ENDBRANCH  25  26
ENDBRANCH  17  25
ENDBRANCH   2  19
TORSDOF 5
ENDMDL
MODEL 6
REMARK VINA RESULT:     -10.1      7.278     11.314
REMARK  Name = 447478
REMARK  5 active torsions:
REMARK  status: ('A' for Active; 'I' for Inactive)
REMARK    1  A    between atoms: C_2  and  C_19
REMARK    2  A    between atoms: C_8  and  C_13
REMARK    3  A    between atoms: C_17  and  O_25
REMARK    4  A    between atoms: C_18  and  O_23
REMARK    5  A    between atoms: O_25  and  C_26
REMARK                            x       y       z     vdW  Elec       q    Type
REMARK                         _______ _______ _______ _____ _____    ______ ____
ROOT
ATOM      1  N   UNL     1      32.027 -22.005 -17.706  0.00  0.00    -0.312 N 
ATOM      2  C   UNL     1      33.360 -22.311 -17.647  0.00  0.00    +0.051 C 
ATOM      3  C   UNL     1      32.267 -23.479 -16.050  0.00  0.00    +0.015 C 
ATOM      4  C   UNL     1      31.336 -22.704 -16.743  0.00  0.00    +0.048 C 
ATOM      5  C   UNL     1      33.540 -23.221 -16.631  0.00  0.00    +0.016 C 
ATOM      6  C   UNL     1      31.818 -24.302 -14.997  0.00  0.00    +0.004 C 
ATOM      7  C   UNL     1      29.971 -22.709 -16.435  0.00  0.00    +0.015 C 
ATOM      8  C   UNL     1      30.455 -24.316 -14.678  0.00  0.00    +0.031 C 
ATOM      9  C   UNL     1      29.548 -23.532 -15.387  0.00  0.00    +0.004 C 
ATOM     10  H   UNL     1      31.621 -21.376 -18.347  0.00  0.00    +0.152 HD
ENDROOT
BRANCH   8  13
ATOM     11  N   UNL     1      28.940 -26.069 -13.782  0.00  0.00    -0.343 N 
ATOM     12  N   UNL     1      30.541 -25.075 -12.399  0.00  0.00    -0.285 NA
ATOM     13  C   UNL     1      29.982 -25.163 -13.593  0.00  0.00    +0.117 C 
ATOM     14  H   UNL     1      28.635 -26.631 -13.033  0.00  0.00    +0.144 HD
ATOM     15  H   UNL     1      28.509 -26.146 -14.664  0.00  0.00    +0.144 HD
ATOM     16  H   UNL     1      30.222 -25.646 -11.663  0.00  0.00    +0.188 HD
ENDBRANCH   8  13
BRANCH   2  19
ATOM     17  C   UNL     1      34.856 -20.392 -20.494  0.00  0.00    +0.172 C 
ATOM     18  C   UNL     1      33.910 -20.956 -19.638  0.00  0.00    +0.169 C 
ATOM     19  C   UNL     1      34.322 -21.720 -18.545  0.00  0.00    +0.050 C 
ATOM     20  C   UNL     1      36.216 -20.593 -20.259  0.00  0.00    +0.040 C 
ATOM     21  C   UNL     1      35.684 -21.920 -18.312  0.00  0.00    +0.004 C 
ATOM     22  C   UNL     1      36.630 -21.357 -19.167  0.00  0.00    +0.003 C 
BRANCH  18  23
ATOM     23  O   UNL     1      32.581 -20.749 -19.880  0.00  0.00    -0.503 OA
ATOM     24  H   UNL     1      31.938 -21.133 -19.317  0.00  0.00    +0.292 HD
ENDBRANCH  18  23
BRANCH  17  25
ATOM     25  O   UNL     1      34.466 -19.644 -21.564  0.00  0.00    -0.476 OA
BRANCH  25  26
ATOM     26  C   UNL     1      35.423 -19.446 -22.597  0.00  0.00    +0.166 C 
ATOM     27  C   UNL     1      35.730 -17.963 -22.724  0.00  0.00    +0.044 C 
ATOM     28  C   UNL     1      34.821 -19.788 -23.950  0.00  0.00    +0.044 C 
ATOM     29  C   UNL     1      34.563 -17.397 -23.532  0.00  0.00    +0.004 C 
ATOM     30  C   UNL     1      33.960 -18.576 -24.295  0.00  0.00    +0.004 C 
ENDBRANCH  25  26
ENDBRANCH  17  25
ENDBRANCH   2  19
TORSDOF 5
ENDMDL
MODEL 7
REMARK VINA RESULT:     -10.0      0.975      1.471
REMARK  Name = 447478
REMARK  5 active torsions:
REMARK  status: ('A' for Active; 'I' for Inactive)
REMARK    1  A    between atoms: C_2  and  C_19
REMARK    2  A    between atoms: C_8  and  C_13
REMARK    3  A    between atoms: C_17  and  O_25
REMARK    4  A    between atoms: C_18  and  O_23
REMARK    5  A    between atoms: O_25  and  C_26
REMARK                            x       y       z     vdW  Elec       q    Type
REMARK                         _______ _______ _______ _____ _____    ______ ____
ROOT
ATOM      1  N   UNL     1      33.501 -13.302 -21.148  0.00  0.00    -0.312 N 
ATOM      2  C   UNL     1      33.200 -12.815 -22.391  0.00  0.00    +0.051 C 
ATOM      3  C   UNL     1      34.197 -14.832 -22.614  0.00  0.00    +0.015 C 
ATOM      4  C   UNL     1      34.109 -14.532 -21.254  0.00  0.00    +0.048 C 
ATOM      5  C   UNL     1      33.620 -13.740 -23.320  0.00  0.00    +0.016 C 
ATOM      6  C   UNL     1      34.786 -16.051 -23.005  0.00  0.00    +0.004 C 
ATOM      7  C   UNL     1      34.585 -15.394 -20.259  0.00  0.00    +0.015 C 
ATOM      8  C   UNL     1      35.267 -16.922 -22.020  0.00  0.00    +0.031 C 
ATOM      9  C   UNL     1      35.166 -16.597 -20.669  0.00  0.00    +0.004 C 
ATOM     10  H   UNL     1      33.308 -12.839 -20.300  0.00  0.00    +0.152 HD
ENDROOT
BRANCH   8  13
ATOM     11  N   UNL     1      35.154 -19.153 -23.107  0.00  0.00    -0.343 N 
ATOM     12  N   UNL     1      37.139 -18.426 -22.110  0.00  0.00    -0.285 NA
ATOM     13  C   UNL     1      35.877 -18.183 -22.415  0.00  0.00    +0.117 C 
ATOM     14  H   UNL     1      35.586 -20.000 -23.364  0.00  0.00    +0.144 HD
ATOM     15  H   UNL     1      34.211 -18.991 -23.340  0.00  0.00    +0.144 HD
ATOM     16  H   UNL     1      37.554 -19.279 -22.374  0.00  0.00    +0.188 HD
ENDBRANCH   8  13
BRANCH   2  19
ATOM     17  C   UNL     1      32.554  -9.276 -23.431  0.00  0.00    +0.172 C 
ATOM     18  C   UNL     1      33.196 -10.503 -23.261  0.00  0.00    +0.169 C 
ATOM     19  C   UNL     1      32.555 -11.538 -22.578  0.00  0.00    +0.050 C 
ATOM     20  C   UNL     1      31.273  -9.082 -22.917  0.00  0.00    +0.040 C 
ATOM     21  C   UNL     1      31.272 -11.342 -22.065  0.00  0.00    +0.004 C 
ATOM     22  C   UNL     1      30.631 -10.116 -22.234  0.00  0.00    +0.003 C 
BRANCH  18  23
ATOM     23  O   UNL     1      34.451 -10.678 -23.770  0.00  0.00    -0.503 OA
ATOM     24  H   UNL     1      34.594 -10.612 -24.694  0.00  0.00    +0.292 HD
ENDBRANCH  18  23
BRANCH  17  25
ATOM     25  O   UNL     1      33.169  -8.258 -24.096  0.00  0.00    -0.476 OA
BRANCH  25  26
ATOM     26  C   UNL     1      33.254  -7.007 -23.425  0.00  0.00    +0.166 C 
ATOM     27  C   UNL     1      33.855  -5.971 -24.361  0.00  0.00    +0.044 C 
ATOM     28  C   UNL     1      34.269  -7.078 -22.295  0.00  0.00    +0.044 C 
ATOM     29  C   UNL     1      35.360  -6.236 -24.311  0.00  0.00    +0.004 C 
ATOM     30  C   UNL     1      35.620  -6.975 -22.998  0.00  0.00    +0.004 C 
ENDBRANCH  25  26
ENDBRANCH  17  25
ENDBRANCH   2  19
TORSDOF 5
ENDMDL
MODEL 8
REMARK VINA RESULT:      -9.6      8.628     13.428
REMARK  Name = 447478
REMARK  5 active torsions:
REMARK  status: ('A' for Active; 'I' for Inactive)
REMARK    1  A    between atoms: C_2  and  C_19
REMARK    2  A    between atoms: C_8  and  C_13
REMARK    3  A    between atoms: C_17  and  O_25
REMARK    4  A    between atoms: C_18  and  O_23
REMARK    5  A    between atoms: O_25  and  C_26
REMARK                            x       y       z     vdW  Elec       q    Type
REMARK                         _______ _______ _______ _____ _____    ______ ____
ROOT
ATOM      1  N   UNL     1      34.428 -21.939 -18.162  0.00  0.00    -0.312 N 
ATOM      2  C   UNL     1      35.494 -22.185 -17.339  0.00  0.00    +0.051 C 
ATOM      3  C   UNL     1      36.154 -20.803 -19.003  0.00  0.00    +0.015 C 
ATOM      4  C   UNL     1      34.802 -21.098 -19.186  0.00  0.00    +0.048 C 
ATOM      5  C   UNL     1      36.578 -21.495 -17.834  0.00  0.00    +0.016 C 
ATOM      6  C   UNL     1      36.794 -19.951 -19.924  0.00  0.00    +0.004 C 
ATOM      7  C   UNL     1      34.054 -20.582 -20.250  0.00  0.00    +0.015 C 
ATOM      8  C   UNL     1      36.058 -19.428 -20.994  0.00  0.00    +0.031 C 
ATOM      9  C   UNL     1      34.710 -19.739 -21.152  0.00  0.00    +0.004 C 
ATOM     10  H   UNL     1      33.524 -22.309 -18.038  0.00  0.00    +0.152 HD
ENDROOT
BRANCH   8  13
ATOM     11  N   UNL     1      35.973 -17.731 -22.806  0.00  0.00    -0.343 N 
ATOM     12  N   UNL     1      38.030 -18.514 -22.020  0.00  0.00    -0.285 NA
ATOM     13  C   UNL     1      36.711 -18.546 -21.950  0.00  0.00    +0.117 C 
ATOM     14  H   UNL     1      36.435 -17.143 -23.446  0.00  0.00    +0.144 HD
ATOM     15  H   UNL     1      34.989 -17.744 -22.771  0.00  0.00    +0.144 HD
ATOM     16  H   UNL     1      38.475 -17.919 -22.667  0.00  0.00    +0.188 HD
ENDBRANCH   8  13
BRANCH   2  19
ATOM     17  C   UNL     1      34.082 -24.430 -14.695  0.00  0.00    +0.172 C 
ATOM     18  C   UNL     1      34.165 -23.607 -15.819  0.00  0.00    +0.169 C 
ATOM     19  C   UNL     1      35.387 -23.037 -16.180  0.00  0.00    +0.050 C 
ATOM     20  C   UNL     1      35.220 -24.681 -13.930  0.00  0.00    +0.040 C 
ATOM     21  C   UNL     1      36.525 -23.290 -15.414  0.00  0.00    +0.004 C 
ATOM     22  C   UNL     1      36.443 -24.111 -14.290  0.00  0.00    +0.003 C 
BRANCH  18  23
ATOM     23  O   UNL     1      33.041 -23.371 -16.559  0.00  0.00    -0.503 OA
ATOM     24  H   UNL     1      33.079 -22.791 -17.294  0.00  0.00    +0.292 HD
ENDBRANCH  18  23
BRANCH  17  25
ATOM     25  O   UNL     1      32.896 -24.992 -14.332  0.00  0.00    -0.476 OA
BRANCH  25  26
ATOM     26  C   UNL     1      32.256 -24.463 -13.178  0.00  0.00    +0.166 C 
ATOM     27  C   UNL     1      30.945 -25.197 -12.946  0.00  0.00    +0.044 C 
ATOM     28  C   UNL     1      31.807 -23.032 -13.430  0.00  0.00    +0.044 C 
ATOM     29  C   UNL     1      29.967 -24.556 -13.929  0.00  0.00    +0.004 C 
ATOM     30  C   UNL     1      30.538 -23.178 -14.264  0.00  0.00    +0.004 C 
ENDBRANCH  25  26
ENDBRANCH  17  25
ENDBRANCH   2  19
TORSDOF 5
ENDMDL
MODEL 9
REMARK VINA RESULT:      -9.5      8.813     13.703
REMARK  Name = 447478
REMARK  5 active torsions:
REMARK  status: ('A' for Active; 'I' for Inactive)
REMARK    1  A    between atoms: C_2  and  C_19
REMARK    2  A    between atoms: C_8  and  C_13
REMARK    3  A    between atoms: C_17  and  O_25
REMARK    4  A    between atoms: C_18  and  O_23
REMARK    5  A    between atoms: O_25  and  C_26
REMARK                            x       y       z     vdW  Elec       q    Type
REMARK                         _______ _______ _______ _____ _____    ______ ____
ROOT
ATOM      1  N   UNL     1      33.784 -21.931 -18.303  0.00  0.00    -0.312 N 
ATOM      2  C   UNL     1      34.745 -22.270 -17.389  0.00  0.00    +0.051 C 
ATOM      3  C   UNL     1      35.667 -20.937 -18.965  0.00  0.00    +0.015 C 
ATOM      4  C   UNL     1      34.318 -21.117 -19.276  0.00  0.00    +0.048 C 
ATOM      5  C   UNL     1      35.923 -21.669 -17.773  0.00  0.00    +0.016 C 
ATOM      6  C   UNL     1      36.457 -20.134 -19.812  0.00  0.00    +0.004 C 
ATOM      7  C   UNL     1      33.717 -20.533 -20.396  0.00  0.00    +0.015 C 
ATOM      8  C   UNL     1      35.869 -19.544 -20.936  0.00  0.00    +0.031 C 
ATOM      9  C   UNL     1      34.520 -19.741 -21.222  0.00  0.00    +0.004 C 
ATOM     10  H   UNL     1      32.844 -22.225 -18.267  0.00  0.00    +0.152 HD
ENDROOT
BRANCH   8  13
ATOM     11  N   UNL     1      38.067 -18.691 -21.718  0.00  0.00    -0.343 N 
ATOM     12  N   UNL     1      36.091 -17.957 -22.727  0.00  0.00    -0.285 NA
ATOM     13  C   UNL     1      36.678 -18.713 -21.816  0.00  0.00    +0.117 C 
ATOM     14  H   UNL     1      38.595 -18.120 -22.322  0.00  0.00    +0.144 HD
ATOM     15  H   UNL     1      38.521 -19.246 -21.042  0.00  0.00    +0.144 HD
ATOM     16  H   UNL     1      36.636 -17.392 -23.323  0.00  0.00    +0.188 HD
ENDBRANCH   8  13
BRANCH   2  19
ATOM     17  C   UNL     1      35.197 -24.480 -14.400  0.00  0.00    +0.172 C 
ATOM     18  C   UNL     1      35.493 -23.662 -15.491  0.00  0.00    +0.169 C 
ATOM     19  C   UNL     1      34.461 -23.118 -16.258  0.00  0.00    +0.050 C 
ATOM     20  C   UNL     1      33.869 -24.756 -14.076  0.00  0.00    +0.040 C 
ATOM     21  C   UNL     1      33.133 -23.395 -15.931  0.00  0.00    +0.004 C 
ATOM     22  C   UNL     1      32.837 -24.213 -14.842  0.00  0.00    +0.003 C 
BRANCH  18  23
ATOM     23  O   UNL     1      36.798 -23.401 -15.796  0.00  0.00    -0.503 OA
ATOM     24  H   UNL     1      37.376 -24.103 -16.019  0.00  0.00    +0.292 HD
ENDBRANCH  18  23
BRANCH  17  25
ATOM     25  O   UNL     1      36.195 -25.017 -13.644  0.00  0.00    -0.476 OA
BRANCH  25  26
ATOM     26  C   UNL     1      36.021 -24.992 -12.233  0.00  0.00    +0.166 C 
ATOM     27  C   UNL     1      35.976 -23.550 -11.754  0.00  0.00    +0.044 C 
ATOM     28  C   UNL     1      37.254 -25.546 -11.537  0.00  0.00    +0.044 C 
ATOM     29  C   UNL     1      37.440 -23.117 -11.702  0.00  0.00    +0.004 C 
ATOM     30  C   UNL     1      38.263 -24.402 -11.594  0.00  0.00    +0.004 C 
ENDBRANCH  25  26
ENDBRANCH  17  25
ENDBRANCH   2  19
TORSDOF 5
ENDMDL
