MODEL 1
REMARK VINA RESULT:     -11.0      0.000      0.000
REMARK  Name = 6323250
REMARK  8 active torsions:
REMARK  status: ('A' for Active; 'I' for Inactive)
REMARK    1  A    between atoms: N_2  and  C_23
REMARK    2  A    between atoms: N_3  and  C_5
REMARK    3  A    between atoms: N_3  and  C_12
REMARK    4  A    between atoms: C_12  and  C_15
REMARK    5  A    between atoms: C_15  and  C_17
REMARK    6  A    between atoms: C_23  and  C_26
REMARK    7  A    between atoms: N_25  and  C_28
REMARK    8  A    between atoms: C_28  and  C_31
REMARK                            x       y       z     vdW  Elec       q    Type
REMARK                         _______ _______ _______ _____ _____    ______ ____
ROOT
ATOM      1  O   UNL     1      31.667 -10.188 -22.982  0.00  0.00    -0.271 OA
ATOM      2  N   UNL     1      31.984 -11.969 -21.508  0.00  0.00    -0.250 N 
ATOM      3  N   UNL     1      31.976 -10.126 -19.489  0.00  0.00    -0.313 N 
ATOM      4  C   UNL     1      31.816  -9.679 -20.727  0.00  0.00    +0.207 C 
ATOM      5  C   UNL     1      32.148 -12.378 -20.186  0.00  0.00    +0.046 C 
ATOM      6  C   UNL     1      31.813 -10.612 -21.838  0.00  0.00    +0.263 C 
ATOM      7  C   UNL     1      32.141 -11.458 -19.212  0.00  0.00    +0.070 C 
ATOM      8  C   UNL     1      32.330 -13.834 -19.867  0.00  0.00    +0.049 C 
ATOM      9  H   UNL     1      31.975  -9.482 -18.746  0.00  0.00    +0.148 HD
ENDROOT
BRANCH   4  10
ATOM     10  N   UNL     1      31.653  -8.402 -21.043  0.00  0.00    -0.271 NA
ATOM     11  H   UNL     1      31.115  -8.166 -21.834  0.00  0.00    +0.125 HD
BRANCH  10  12
ATOM     12  C   UNL     1      32.254  -7.337 -20.247  0.00  0.00    +0.140 C 
BRANCH  12  15
ATOM     13  F   UNL     1      32.662  -5.032 -20.272  0.00  0.00    -0.201 F 
ATOM     14  F   UNL     1      31.040  -5.779 -21.503  0.00  0.00    -0.201 F 
ATOM     15  C   UNL     1      32.308  -6.068 -21.088  0.00  0.00    +0.298 C 
BRANCH  15  17
ATOM     16  N   UNL     1      34.326  -7.002 -22.047  0.00  0.00    -0.325 N 
ATOM     17  C   UNL     1      33.261  -6.231 -22.246  0.00  0.00    +0.155 C 
ATOM     18  C   UNL     1      33.033  -5.608 -23.450  0.00  0.00    -0.001 C 
ATOM     19  C   UNL     1      35.231  -7.208 -23.014  0.00  0.00    +0.058 C 
ATOM     20  C   UNL     1      33.957  -5.804 -24.473  0.00  0.00    -0.001 C 
ATOM     21  C   UNL     1      35.068  -6.612 -24.258  0.00  0.00    +0.015 C 
ATOM     22  H   UNL     1      34.453  -7.430 -21.171  0.00  0.00    +0.147 HD
ENDBRANCH  15  17
ENDBRANCH  12  15
ENDBRANCH  10  12
ENDBRANCH   4  10
BRANCH   2  23
ATOM     23  C   UNL     1      31.992 -12.959 -22.582  0.00  0.00    +0.183 C 
BRANCH  23  26
ATOM     24  O   UNL     1      34.237 -12.445 -23.312  0.00  0.00    -0.273 OA
ATOM     25  N   UNL     1      33.658 -14.657 -22.892  0.00  0.00    -0.298 N 
ATOM     26  C   UNL     1      33.420 -13.291 -22.956  0.00  0.00    +0.243 C 
ATOM     27  H   UNL     1      32.929 -15.245 -22.592  0.00  0.00    +0.150 HD
BRANCH  25  28
ATOM     28  C   UNL     1      34.925 -15.258 -23.246  0.00  0.00    +0.138 C 
BRANCH  28  31
ATOM     29  F   UNL     1      35.587 -16.784 -20.973  0.00  0.00    -0.203 F 
ATOM     30  N   UNL     1      34.458 -17.346 -24.377  0.00  0.00    -0.244 NA
ATOM     31  C   UNL     1      34.857 -16.758 -23.231  0.00  0.00    +0.106 C 
ATOM     32  C   UNL     1      35.198 -17.436 -22.076  0.00  0.00    +0.151 C 
ATOM     33  C   UNL     1      35.122 -18.824 -22.100  0.00  0.00    +0.008 C 
ATOM     34  C   UNL     1      34.715 -19.474 -23.260  0.00  0.00    +0.019 C 
ATOM     35  C   UNL     1      34.397 -18.696 -24.361  0.00  0.00    +0.098 C 
ATOM     36  C   UNL     1      35.477 -19.616 -20.887  0.00  0.00    +0.033 C 
ENDBRANCH  28  31
ENDBRANCH  25  28
ENDBRANCH  23  26
ENDBRANCH   2  23
TORSDOF 8
ENDMDL
MODEL 2
REMARK VINA RESULT:     -10.8      2.137     10.352
REMARK  Name = 6323250
REMARK  8 active torsions:
REMARK  status: ('A' for Active; 'I' for Inactive)
REMARK    1  A    between atoms: N_2  and  C_23
REMARK    2  A    between atoms: N_3  and  C_5
REMARK    3  A    between atoms: N_3  and  C_12
REMARK    4  A    between atoms: C_12  and  C_15
REMARK    5  A    between atoms: C_15  and  C_17
REMARK    6  A    between atoms: C_23  and  C_26
REMARK    7  A    between atoms: N_25  and  C_28
REMARK    8  A    between atoms: C_28  and  C_31
REMARK                            x       y       z     vdW  Elec       q    Type
REMARK                         _______ _______ _______ _____ _____    ______ ____
ROOT
ATOM      1  O   UNL     1      34.218 -15.386 -24.131  0.00  0.00    -0.271 OA
ATOM      2  N   UNL     1      33.366 -14.192 -22.316  0.00  0.00    -0.250 N 
ATOM      3  N   UNL     1      34.919 -15.772 -20.716  0.00  0.00    -0.313 N 
ATOM      4  C   UNL     1      34.969 -15.987 -22.024  0.00  0.00    +0.207 C 
ATOM      5  C   UNL     1      33.355 -14.014 -20.935  0.00  0.00    +0.046 C 
ATOM      6  C   UNL     1      34.166 -15.179 -22.921  0.00  0.00    +0.263 C 
ATOM      7  C   UNL     1      34.124 -14.800 -20.169  0.00  0.00    +0.070 C 
ATOM      8  C   UNL     1      32.489 -12.953 -20.320  0.00  0.00    +0.049 C 
ATOM      9  H   UNL     1      35.470 -16.328 -20.120  0.00  0.00    +0.148 HD
ENDROOT
BRANCH   4  10
ATOM     10  N   UNL     1      35.723 -16.915 -22.598  0.00  0.00    -0.271 NA
ATOM     11  H   UNL     1      36.039 -16.775 -23.521  0.00  0.00    +0.125 HD
BRANCH  10  12
ATOM     12  C   UNL     1      36.093 -18.138 -21.896  0.00  0.00    +0.140 C 
BRANCH  12  15
ATOM     13  F   UNL     1      35.671 -20.009 -23.239  0.00  0.00    -0.201 F 
ATOM     14  F   UNL     1      34.024 -18.648 -22.864  0.00  0.00    -0.201 F 
ATOM     15  C   UNL     1      35.103 -19.235 -22.268  0.00  0.00    +0.298 C 
BRANCH  15  17
ATOM     16  N   UNL     1      35.686 -20.683 -20.416  0.00  0.00    -0.325 N 
ATOM     17  C   UNL     1      34.712 -20.041 -21.054  0.00  0.00    +0.155 C 
ATOM     18  C   UNL     1      33.404 -20.105 -20.633  0.00  0.00    -0.001 C 
ATOM     19  C   UNL     1      35.439 -21.425 -19.328  0.00  0.00    +0.058 C 
ATOM     20  C   UNL     1      33.119 -20.870 -19.505  0.00  0.00    -0.001 C 
ATOM     21  C   UNL     1      34.144 -21.538 -18.843  0.00  0.00    +0.015 C 
ATOM     22  H   UNL     1      36.608 -20.610 -20.751  0.00  0.00    +0.147 HD
ENDBRANCH  15  17
ENDBRANCH  12  15
ENDBRANCH  10  12
ENDBRANCH   4  10
BRANCH   2  23
ATOM     23  C   UNL     1      32.532 -13.344 -23.165  0.00  0.00    +0.183 C 
BRANCH  23  26
ATOM     24  O   UNL     1      34.437 -11.967 -23.725  0.00  0.00    -0.273 OA
ATOM     25  N   UNL     1      32.399 -10.951 -23.257  0.00  0.00    -0.298 N 
ATOM     26  C   UNL     1      33.245 -12.036 -23.433  0.00  0.00    +0.243 C 
ATOM     27  H   UNL     1      31.458 -11.124 -23.023  0.00  0.00    +0.150 HD
BRANCH  25  28
ATOM     28  C   UNL     1      32.830  -9.578 -23.400  0.00  0.00    +0.138 C 
BRANCH  28  31
ATOM     29  F   UNL     1      32.807  -6.761 -23.417  0.00  0.00    -0.203 F 
ATOM     30  N   UNL     1      32.266  -9.460 -21.050  0.00  0.00    -0.244 NA
ATOM     31  C   UNL     1      32.529  -8.765 -22.175  0.00  0.00    +0.106 C 
ATOM     32  C   UNL     1      32.536  -7.386 -22.263  0.00  0.00    +0.151 C 
ATOM     33  C   UNL     1      32.252  -6.666 -21.108  0.00  0.00    +0.008 C 
ATOM     34  C   UNL     1      31.975  -7.341 -19.925  0.00  0.00    +0.019 C 
ATOM     35  C   UNL     1      31.994  -8.726 -19.948  0.00  0.00    +0.098 C 
ATOM     36  C   UNL     1      32.245  -5.175 -21.136  0.00  0.00    +0.033 C 
ENDBRANCH  28  31
ENDBRANCH  25  28
ENDBRANCH  23  26
ENDBRANCH   2  23
TORSDOF 8
ENDMDL
MODEL 3
REMARK VINA RESULT:     -10.6     11.486     15.309
REMARK  Name = 6323250
REMARK  8 active torsions:
REMARK  status: ('A' for Active; 'I' for Inactive)
REMARK    1  A    between atoms: N_2  and  C_23
REMARK    2  A    between atoms: N_3  and  C_5
REMARK    3  A    between atoms: N_3  and  C_12
REMARK    4  A    between atoms: C_12  and  C_15
REMARK    5  A    between atoms: C_15  and  C_17
REMARK    6  A    between atoms: C_23  and  C_26
REMARK    7  A    between atoms: N_25  and  C_28
REMARK    8  A    between atoms: C_28  and  C_31
REMARK                            x       y       z     vdW  Elec       q    Type
REMARK                         _______ _______ _______ _____ _____    ______ ____
ROOT
ATOM      1  O   UNL     1      35.267 -25.459 -14.724  0.00  0.00    -0.271 OA
ATOM      2  N   UNL     1      36.796 -24.577 -13.197  0.00  0.00    -0.250 N 
ATOM      3  N   UNL     1      34.648 -23.776 -11.709  0.00  0.00    -0.313 N 
ATOM      4  C   UNL     1      34.403 -24.418 -12.843  0.00  0.00    +0.207 C 
ATOM      5  C   UNL     1      36.991 -23.898 -11.997  0.00  0.00    +0.046 C 
ATOM      6  C   UNL     1      35.504 -24.866 -13.674  0.00  0.00    +0.263 C 
ATOM      7  C   UNL     1      35.924 -23.514 -11.284  0.00  0.00    +0.070 C 
ATOM      8  C   UNL     1      38.383 -23.604 -11.517  0.00  0.00    +0.049 C 
ATOM      9  H   UNL     1      33.891 -23.478 -11.156  0.00  0.00    +0.148 HD
ENDROOT
BRANCH   4  10
ATOM     10  N   UNL     1      33.187 -24.693 -13.296  0.00  0.00    -0.271 NA
ATOM     11  H   UNL     1      32.924 -25.634 -13.427  0.00  0.00    +0.125 HD
BRANCH  10  12
ATOM     12  C   UNL     1      32.231 -23.636 -13.604  0.00  0.00    +0.140 C 
BRANCH  12  15
ATOM     13  F   UNL     1      30.436 -23.455 -12.112  0.00  0.00    -0.201 F 
ATOM     14  F   UNL     1      30.920 -25.429 -12.867  0.00  0.00    -0.201 F 
ATOM     15  C   UNL     1      30.833 -24.118 -13.237  0.00  0.00    +0.298 C 
BRANCH  15  17
ATOM     16  N   UNL     1      29.512 -22.665 -14.654  0.00  0.00    -0.325 N 
ATOM     17  C   UNL     1      29.876 -23.915 -14.385  0.00  0.00    +0.155 C 
ATOM     18  C   UNL     1      29.405 -24.980 -15.117  0.00  0.00    -0.001 C 
ATOM     19  C   UNL     1      28.666 -22.382 -15.653  0.00  0.00    +0.058 C 
ATOM     20  C   UNL     1      28.523 -24.715 -16.161  0.00  0.00    -0.001 C 
ATOM     21  C   UNL     1      28.148 -23.404 -16.437  0.00  0.00    +0.015 C 
ATOM     22  H   UNL     1      29.873 -21.931 -14.106  0.00  0.00    +0.147 HD
ENDBRANCH  15  17
ENDBRANCH  12  15
ENDBRANCH  10  12
ENDBRANCH   4  10
BRANCH   2  23
ATOM     23  C   UNL     1      37.950 -25.001 -13.988  0.00  0.00    +0.183 C 
BRANCH  23  26
ATOM     24  O   UNL     1      39.461 -23.629 -15.281  0.00  0.00    -0.273 OA
ATOM     25  N   UNL     1      37.170 -23.287 -15.474  0.00  0.00    -0.298 N 
ATOM     26  C   UNL     1      38.304 -23.921 -14.988  0.00  0.00    +0.243 C 
ATOM     27  H   UNL     1      36.289 -23.605 -15.170  0.00  0.00    +0.150 HD
BRANCH  25  28
ATOM     28  C   UNL     1      37.217 -22.182 -16.407  0.00  0.00    +0.138 C 
BRANCH  28  31
ATOM     29  F   UNL     1      37.052 -20.537 -18.687  0.00  0.00    -0.203 F 
ATOM     30  N   UNL     1      34.974 -22.931 -16.918  0.00  0.00    -0.244 NA
ATOM     31  C   UNL     1      35.999 -22.135 -17.283  0.00  0.00    +0.106 C 
ATOM     32  C   UNL     1      35.994 -21.302 -18.385  0.00  0.00    +0.151 C 
ATOM     33  C   UNL     1      34.849 -21.285 -19.173  0.00  0.00    +0.008 C 
ATOM     34  C   UNL     1      33.767 -22.090 -18.835  0.00  0.00    +0.019 C 
ATOM     35  C   UNL     1      33.878 -22.888 -17.708  0.00  0.00    +0.098 C 
ATOM     36  C   UNL     1      34.779 -20.408 -20.377  0.00  0.00    +0.033 C 
ENDBRANCH  28  31
ENDBRANCH  25  28
ENDBRANCH  23  26
ENDBRANCH   2  23
TORSDOF 8
ENDMDL
MODEL 4
REMARK VINA RESULT:     -10.6      2.496     10.560
REMARK  Name = 6323250
REMARK  8 active torsions:
REMARK  status: ('A' for Active; 'I' for Inactive)
REMARK    1  A    between atoms: N_2  and  C_23
REMARK    2  A    between atoms: N_3  and  C_5
REMARK    3  A    between atoms: N_3  and  C_12
REMARK    4  A    between atoms: C_12  and  C_15
REMARK    5  A    between atoms: C_15  and  C_17
REMARK    6  A    between atoms: C_23  and  C_26
REMARK    7  A    between atoms: N_25  and  C_28
REMARK    8  A    between atoms: C_28  and  C_31
REMARK                            x       y       z     vdW  Elec       q    Type
REMARK                         _______ _______ _______ _____ _____    ______ ____
ROOT
ATOM      1  O   UNL     1      35.301 -14.500 -21.584  0.00  0.00    -0.271 OA
ATOM      2  N   UNL     1      34.155 -14.383 -23.613  0.00  0.00    -0.250 N 
ATOM      3  N   UNL     1      34.618 -17.063 -23.878  0.00  0.00    -0.313 N 
ATOM      4  C   UNL     1      35.082 -16.466 -22.789  0.00  0.00    +0.207 C 
ATOM      5  C   UNL     1      33.692 -15.065 -24.736  0.00  0.00    +0.046 C 
ATOM      6  C   UNL     1      34.866 -15.045 -22.596  0.00  0.00    +0.263 C 
ATOM      7  C   UNL     1      33.931 -16.379 -24.846  0.00  0.00    +0.070 C 
ATOM      8  C   UNL     1      32.938 -14.329 -25.805  0.00  0.00    +0.049 C 
ATOM      9  H   UNL     1      34.771 -18.028 -23.995  0.00  0.00    +0.148 HD
ENDROOT
BRANCH   4  10
ATOM     10  N   UNL     1      35.751 -17.086 -21.827  0.00  0.00    -0.271 NA
ATOM     11  H   UNL     1      36.722 -16.940 -21.745  0.00  0.00    +0.125 HD
BRANCH  10  12
ATOM     12  C   UNL     1      35.083 -17.980 -20.888  0.00  0.00    +0.140 C 
BRANCH  12  15
ATOM     13  F   UNL     1      36.962 -19.376 -20.912  0.00  0.00    -0.201 F 
ATOM     14  F   UNL     1      35.436 -19.720 -22.413  0.00  0.00    -0.201 F 
ATOM     15  C   UNL     1      35.610 -19.394 -21.099  0.00  0.00    +0.298 C 
BRANCH  15  17
ATOM     16  N   UNL     1      35.698 -21.199 -19.487  0.00  0.00    -0.325 N 
ATOM     17  C   UNL     1      34.921 -20.368 -20.176  0.00  0.00    +0.155 C 
ATOM     18  C   UNL     1      33.551 -20.391 -20.057  0.00  0.00    -0.001 C 
ATOM     19  C   UNL     1      35.181 -22.101 -18.642  0.00  0.00    +0.058 C 
ATOM     20  C   UNL     1      32.987 -21.318 -19.187  0.00  0.00    -0.001 C 
ATOM     21  C   UNL     1      33.806 -22.184 -18.469  0.00  0.00    +0.015 C 
ATOM     22  H   UNL     1      36.674 -21.150 -19.601  0.00  0.00    +0.147 HD
ENDBRANCH  15  17
ENDBRANCH  12  15
ENDBRANCH  10  12
ENDBRANCH   4  10
BRANCH   2  23
ATOM     23  C   UNL     1      33.905 -12.949 -23.479  0.00  0.00    +0.183 C 
BRANCH  23  26
ATOM     24  O   UNL     1      32.174 -13.601 -21.924  0.00  0.00    -0.273 OA
ATOM     25  N   UNL     1      32.171 -11.443 -22.788  0.00  0.00    -0.298 N 
ATOM     26  C   UNL     1      32.674 -12.726 -22.627  0.00  0.00    +0.243 C 
ATOM     27  H   UNL     1      32.654 -10.821 -23.379  0.00  0.00    +0.150 HD
BRANCH  25  28
ATOM     28  C   UNL     1      30.971 -10.974 -22.131  0.00  0.00    +0.138 C 
BRANCH  28  31
ATOM     29  F   UNL     1      32.026  -8.384 -22.470  0.00  0.00    -0.203 F 
ATOM     30  N   UNL     1      31.028 -10.567 -19.747  0.00  0.00    -0.244 NA
ATOM     31  C   UNL     1      31.282 -10.070 -20.974  0.00  0.00    +0.106 C 
ATOM     32  C   UNL     1      31.798  -8.812 -21.222  0.00  0.00    +0.151 C 
ATOM     33  C   UNL     1      32.074  -8.002 -20.125  0.00  0.00    +0.008 C 
ATOM     34  C   UNL     1      31.827  -8.473 -18.840  0.00  0.00    +0.019 C 
ATOM     35  C   UNL     1      31.308  -9.751 -18.706  0.00  0.00    +0.098 C 
ATOM     36  C   UNL     1      32.632  -6.634 -20.324  0.00  0.00    +0.033 C 
ENDBRANCH  28  31
ENDBRANCH  25  28
ENDBRANCH  23  26
ENDBRANCH   2  23
TORSDOF 8
ENDMDL
MODEL 5
REMARK VINA RESULT:     -10.4      9.808     13.614
REMARK  Name = 6323250
REMARK  8 active torsions:
REMARK  status: ('A' for Active; 'I' for Inactive)
REMARK    1  A    between atoms: N_2  and  C_23
REMARK    2  A    between atoms: N_3  and  C_5
REMARK    3  A    between atoms: N_3  and  C_12
REMARK    4  A    between atoms: C_12  and  C_15
REMARK    5  A    between atoms: C_15  and  C_17
REMARK    6  A    between atoms: C_23  and  C_26
REMARK    7  A    between atoms: N_25  and  C_28
REMARK    8  A    between atoms: C_28  and  C_31
REMARK                            x       y       z     vdW  Elec       q    Type
REMARK                         _______ _______ _______ _____ _____    ______ ____
ROOT
ATOM      1  O   UNL     1      34.292 -24.367 -15.918  0.00  0.00    -0.271 OA
ATOM      2  N   UNL     1      32.137 -24.044 -15.082  0.00  0.00    -0.250 N 
ATOM      3  N   UNL     1      31.689 -22.420 -17.234  0.00  0.00    -0.313 N 
ATOM      4  C   UNL     1      32.885 -22.982 -17.129  0.00  0.00    +0.207 C 
ATOM      5  C   UNL     1      30.900 -23.426 -15.246  0.00  0.00    +0.046 C 
ATOM      6  C   UNL     1      33.180 -23.853 -16.008  0.00  0.00    +0.263 C 
ATOM      7  C   UNL     1      30.702 -22.633 -16.308  0.00  0.00    +0.070 C 
ATOM      8  C   UNL     1      29.809 -23.649 -14.239  0.00  0.00    +0.049 C 
ATOM      9  H   UNL     1      31.504 -21.832 -18.001  0.00  0.00    +0.148 HD
ENDROOT
BRANCH   4  10
ATOM     10  N   UNL     1      33.871 -22.806 -18.000  0.00  0.00    -0.271 NA
ATOM     11  H   UNL     1      34.562 -23.502 -18.092  0.00  0.00    +0.125 HD
BRANCH  10  12
ATOM     12  C   UNL     1      33.954 -21.604 -18.822  0.00  0.00    +0.140 C 
BRANCH  12  15
ATOM     13  F   UNL     1      35.891 -22.587 -19.695  0.00  0.00    -0.201 F 
ATOM     14  F   UNL     1      36.132 -21.120 -18.116  0.00  0.00    -0.201 F 
ATOM     15  C   UNL     1      35.405 -21.396 -19.238  0.00  0.00    +0.298 C 
BRANCH  15  17
ATOM     16  N   UNL     1      36.600 -19.532 -20.219  0.00  0.00    -0.325 N 
ATOM     17  C   UNL     1      35.517 -20.301 -20.271  0.00  0.00    +0.155 C 
ATOM     18  C   UNL     1      34.539 -20.114 -21.219  0.00  0.00    -0.001 C 
ATOM     19  C   UNL     1      36.791 -18.534 -21.092  0.00  0.00    +0.058 C 
ATOM     20  C   UNL     1      34.711 -19.084 -22.139  0.00  0.00    -0.001 C 
ATOM     21  C   UNL     1      35.847 -18.283 -22.079  0.00  0.00    +0.015 C 
ATOM     22  H   UNL     1      37.276 -19.700 -19.524  0.00  0.00    +0.147 HD
ENDBRANCH  15  17
ENDBRANCH  12  15
ENDBRANCH  10  12
ENDBRANCH   4  10
BRANCH   2  23
ATOM     23  C   UNL     1      32.371 -24.910 -13.928  0.00  0.00    +0.183 C 
BRANCH  23  26
ATOM     24  O   UNL     1      33.270 -23.252 -12.418  0.00  0.00    -0.273 OA
ATOM     25  N   UNL     1      34.608 -25.037 -13.073  0.00  0.00    -0.298 N 
ATOM     26  C   UNL     1      33.434 -24.298 -13.042  0.00  0.00    +0.243 C 
ATOM     27  H   UNL     1      34.628 -25.862 -13.608  0.00  0.00    +0.150 HD
BRANCH  25  28
ATOM     28  C   UNL     1      35.805 -24.653 -12.357  0.00  0.00    +0.138 C 
BRANCH  28  31
ATOM     29  F   UNL     1      38.092 -26.286 -12.166  0.00  0.00    -0.203 F 
ATOM     30  N   UNL     1      36.891 -23.536 -14.208  0.00  0.00    -0.244 NA
ATOM     31  C   UNL     1      36.984 -24.504 -13.274  0.00  0.00    +0.106 C 
ATOM     32  C   UNL     1      38.069 -25.344 -13.118  0.00  0.00    +0.151 C 
ATOM     33  C   UNL     1      39.142 -25.177 -13.987  0.00  0.00    +0.008 C 
ATOM     34  C   UNL     1      39.091 -24.191 -14.965  0.00  0.00    +0.019 C 
ATOM     35  C   UNL     1      37.953 -23.404 -15.034  0.00  0.00    +0.098 C 
ATOM     36  C   UNL     1      40.345 -26.051 -13.871  0.00  0.00    +0.033 C 
ENDBRANCH  28  31
ENDBRANCH  25  28
ENDBRANCH  23  26
ENDBRANCH   2  23
TORSDOF 8
ENDMDL
MODEL 6
REMARK VINA RESULT:     -10.4      3.480     11.232
REMARK  Name = 6323250
REMARK  8 active torsions:
REMARK  status: ('A' for Active; 'I' for Inactive)
REMARK    1  A    between atoms: N_2  and  C_23
REMARK    2  A    between atoms: N_3  and  C_5
REMARK    3  A    between atoms: N_3  and  C_12
REMARK    4  A    between atoms: C_12  and  C_15
REMARK    5  A    between atoms: C_15  and  C_17
REMARK    6  A    between atoms: C_23  and  C_26
REMARK    7  A    between atoms: N_25  and  C_28
REMARK    8  A    between atoms: C_28  and  C_31
REMARK                            x       y       z     vdW  Elec       q    Type
REMARK                         _______ _______ _______ _____ _____    ______ ____
ROOT
ATOM      1  O   UNL     1      35.485 -16.490 -20.261  0.00  0.00    -0.271 OA
ATOM      2  N   UNL     1      34.883 -16.123 -22.486  0.00  0.00    -0.250 N 
ATOM      3  N   UNL     1      34.873 -18.839 -22.793  0.00  0.00    -0.313 N 
ATOM      4  C   UNL     1      35.178 -18.359 -21.595  0.00  0.00    +0.207 C 
ATOM      5  C   UNL     1      34.572 -16.686 -23.721  0.00  0.00    +0.046 C 
ATOM      6  C   UNL     1      35.199 -16.926 -21.374  0.00  0.00    +0.263 C 
ATOM      7  C   UNL     1      34.573 -18.020 -23.850  0.00  0.00    +0.070 C 
ATOM      8  C   UNL     1      34.240 -15.802 -24.889  0.00  0.00    +0.049 C 
ATOM      9  H   UNL     1      34.863 -19.814 -22.928  0.00  0.00    +0.148 HD
ENDROOT
BRANCH   4  10
ATOM     10  N   UNL     1      35.476 -19.111 -20.544  0.00  0.00    -0.271 NA
ATOM     11  H   UNL     1      36.179 -18.813 -19.923  0.00  0.00    +0.125 HD
BRANCH  10  12
ATOM     12  C   UNL     1      34.785 -20.370 -20.289  0.00  0.00    +0.140 C 
BRANCH  12  15
ATOM     13  F   UNL     1      36.679 -20.474 -18.917  0.00  0.00    -0.201 F 
ATOM     14  F   UNL     1      36.302 -22.152 -20.238  0.00  0.00    -0.201 F 
ATOM     15  C   UNL     1      35.678 -21.251 -19.424  0.00  0.00    +0.298 C 
BRANCH  15  17
ATOM     16  N   UNL     1      35.536 -22.298 -17.244  0.00  0.00    -0.325 N 
ATOM     17  C   UNL     1      34.877 -21.927 -18.338  0.00  0.00    +0.155 C 
ATOM     18  C   UNL     1      33.527 -22.146 -18.480  0.00  0.00    -0.001 C 
ATOM     19  C   UNL     1      34.914 -22.905 -16.225  0.00  0.00    +0.058 C 
ATOM     20  C   UNL     1      32.855 -22.776 -17.437  0.00  0.00    -0.001 C 
ATOM     21  C   UNL     1      33.551 -23.161 -16.295  0.00  0.00    +0.015 C 
ATOM     22  H   UNL     1      36.502 -22.122 -17.183  0.00  0.00    +0.147 HD
ENDBRANCH  15  17
ENDBRANCH  12  15
ENDBRANCH  10  12
ENDBRANCH   4  10
BRANCH   2  23
ATOM     23  C   UNL     1      34.888 -14.670 -22.330  0.00  0.00    +0.183 C 
BRANCH  23  26
ATOM     24  O   UNL     1      32.974 -14.698 -20.855  0.00  0.00    -0.273 OA
ATOM     25  N   UNL     1      33.006 -13.218 -22.648  0.00  0.00    -0.298 N 
ATOM     26  C   UNL     1      33.535 -14.209 -21.834  0.00  0.00    +0.243 C 
ATOM     27  H   UNL     1      33.545 -12.899 -23.408  0.00  0.00    +0.150 HD
BRANCH  25  28
ATOM     28  C   UNL     1      31.702 -12.629 -22.436  0.00  0.00    +0.138 C 
BRANCH  28  31
ATOM     29  F   UNL     1      31.643 -12.417 -19.628  0.00  0.00    -0.203 F 
ATOM     30  N   UNL     1      31.902 -10.219 -22.505  0.00  0.00    -0.244 NA
ATOM     31  C   UNL     1      31.791 -11.311 -21.723  0.00  0.00    +0.106 C 
ATOM     32  C   UNL     1      31.756 -11.289 -20.342  0.00  0.00    +0.151 C 
ATOM     33  C   UNL     1      31.841 -10.051 -19.716  0.00  0.00    +0.008 C 
ATOM     34  C   UNL     1      31.957  -8.897 -20.482  0.00  0.00    +0.019 C 
ATOM     35  C   UNL     1      31.983  -9.033 -21.861  0.00  0.00    +0.098 C 
ATOM     36  C   UNL     1      31.808  -9.958 -18.228  0.00  0.00    +0.033 C 
ENDBRANCH  28  31
ENDBRANCH  25  28
ENDBRANCH  23  26
ENDBRANCH   2  23
TORSDOF 8
ENDMDL
MODEL 7
REMARK VINA RESULT:     -10.3     10.007     15.030
REMARK  Name = 6323250
REMARK  8 active torsions:
REMARK  status: ('A' for Active; 'I' for Inactive)
REMARK    1  A    between atoms: N_2  and  C_23
REMARK    2  A    between atoms: N_3  and  C_5
REMARK    3  A    between atoms: N_3  and  C_12
REMARK    4  A    between atoms: C_12  and  C_15
REMARK    5  A    between atoms: C_15  and  C_17
REMARK    6  A    between atoms: C_23  and  C_26
REMARK    7  A    between atoms: N_25  and  C_28
REMARK    8  A    between atoms: C_28  and  C_31
REMARK                            x       y       z     vdW  Elec       q    Type
REMARK                         _______ _______ _______ _____ _____    ______ ____
ROOT
ATOM      1  O   UNL     1      34.486 -23.113 -14.832  0.00  0.00    -0.271 OA
ATOM      2  N   UNL     1      32.258 -23.723 -15.165  0.00  0.00    -0.250 N 
ATOM      3  N   UNL     1      32.501 -25.313 -12.955  0.00  0.00    -0.313 N 
ATOM      4  C   UNL     1      33.565 -24.615 -13.328  0.00  0.00    +0.207 C 
ATOM      5  C   UNL     1      31.175 -24.481 -14.726  0.00  0.00    +0.046 C 
ATOM      6  C   UNL     1      33.494 -23.755 -14.493  0.00  0.00    +0.263 C 
ATOM      7  C   UNL     1      31.316 -25.254 -13.641  0.00  0.00    +0.070 C 
ATOM      8  C   UNL     1      29.870 -24.426 -15.466  0.00  0.00    +0.049 C 
ATOM      9  H   UNL     1      32.564 -25.892 -12.162  0.00  0.00    +0.148 HD
ENDROOT
BRANCH   4  10
ATOM     10  N   UNL     1      34.731 -24.641 -12.697  0.00  0.00    -0.271 NA
ATOM     11  H   UNL     1      35.363 -25.373 -12.883  0.00  0.00    +0.125 HD
BRANCH  10  12
ATOM     12  C   UNL     1      35.099 -23.610 -11.733  0.00  0.00    +0.140 C 
BRANCH  12  15
ATOM     13  F   UNL     1      36.444 -24.810 -10.239  0.00  0.00    -0.201 F 
ATOM     14  F   UNL     1      36.982 -22.749 -10.643  0.00  0.00    -0.201 F 
ATOM     15  C   UNL     1      36.514 -23.883 -11.239  0.00  0.00    +0.298 C 
BRANCH  15  17
ATOM     16  N   UNL     1      37.323 -23.652 -13.510  0.00  0.00    -0.325 N 
ATOM     17  C   UNL     1      37.401 -24.336 -12.373  0.00  0.00    +0.155 C 
ATOM     18  C   UNL     1      38.249 -25.409 -12.229  0.00  0.00    -0.001 C 
ATOM     19  C   UNL     1      38.070 -23.976 -14.574  0.00  0.00    +0.058 C 
ATOM     20  C   UNL     1      39.037 -25.769 -13.319  0.00  0.00    -0.001 C 
ATOM     21  C   UNL     1      38.951 -25.048 -14.505  0.00  0.00    +0.015 C 
ATOM     22  H   UNL     1      36.703 -22.890 -13.571  0.00  0.00    +0.147 HD
ENDBRANCH  15  17
ENDBRANCH  12  15
ENDBRANCH  10  12
ENDBRANCH   4  10
BRANCH   2  23
ATOM     23  C   UNL     1      32.122 -22.877 -16.348  0.00  0.00    +0.183 C 
BRANCH  23  26
ATOM     24  O   UNL     1      33.414 -24.382 -17.728  0.00  0.00    -0.273 OA
ATOM     25  N   UNL     1      33.920 -22.113 -17.740  0.00  0.00    -0.298 N 
ATOM     26  C   UNL     1      33.197 -23.232 -17.353  0.00  0.00    +0.243 C 
ATOM     27  H   UNL     1      33.657 -21.237 -17.376  0.00  0.00    +0.150 HD
BRANCH  25  28
ATOM     28  C   UNL     1      35.039 -22.169 -18.654  0.00  0.00    +0.138 C 
BRANCH  28  31
ATOM     29  F   UNL     1      37.379 -20.847 -19.497  0.00  0.00    -0.203 F 
ATOM     30  N   UNL     1      33.804 -20.678 -20.105  0.00  0.00    -0.244 NA
ATOM     31  C   UNL     1      35.017 -21.036 -19.638  0.00  0.00    +0.106 C 
ATOM     32  C   UNL     1      36.208 -20.438 -20.003  0.00  0.00    +0.151 C 
ATOM     33  C   UNL     1      36.149 -19.392 -20.917  0.00  0.00    +0.008 C 
ATOM     34  C   UNL     1      34.920 -18.988 -21.426  0.00  0.00    +0.019 C 
ATOM     35  C   UNL     1      33.787 -19.658 -20.992  0.00  0.00    +0.098 C 
ATOM     36  C   UNL     1      37.398 -18.703 -21.351  0.00  0.00    +0.033 C 
ENDBRANCH  28  31
ENDBRANCH  25  28
ENDBRANCH  23  26
ENDBRANCH   2  23
TORSDOF 8
ENDMDL
MODEL 8
REMARK VINA RESULT:     -10.3      1.971      2.873
REMARK  Name = 6323250
REMARK  8 active torsions:
REMARK  status: ('A' for Active; 'I' for Inactive)
REMARK    1  A    between atoms: N_2  and  C_23
REMARK    2  A    between atoms: N_3  and  C_5
REMARK    3  A    between atoms: N_3  and  C_12
REMARK    4  A    between atoms: C_12  and  C_15
REMARK    5  A    between atoms: C_15  and  C_17
REMARK    6  A    between atoms: C_23  and  C_26
REMARK    7  A    between atoms: N_25  and  C_28
REMARK    8  A    between atoms: C_28  and  C_31
REMARK                            x       y       z     vdW  Elec       q    Type
REMARK                         _______ _______ _______ _____ _____    ______ ____
ROOT
ATOM      1  O   UNL     1      33.347 -12.040 -23.808  0.00  0.00    -0.271 OA
ATOM      2  N   UNL     1      33.849 -13.500 -22.058  0.00  0.00    -0.250 N 
ATOM      3  N   UNL     1      31.800 -12.337 -20.674  0.00  0.00    -0.313 N 
ATOM      4  C   UNL     1      32.047 -11.886 -21.896  0.00  0.00    +0.207 C 
ATOM      5  C   UNL     1      33.543 -13.931 -20.770  0.00  0.00    +0.046 C 
ATOM      6  C   UNL     1      33.123 -12.466 -22.677  0.00  0.00    +0.263 C 
ATOM      7  C   UNL     1      32.534 -13.346 -20.109  0.00  0.00    +0.070 C 
ATOM      8  C   UNL     1      34.338 -15.036 -20.137  0.00  0.00    +0.049 C 
ATOM      9  H   UNL     1      31.066 -11.934 -20.157  0.00  0.00    +0.148 HD
ENDROOT
BRANCH   4  10
ATOM     10  N   UNL     1      31.365 -10.912 -22.484  0.00  0.00    -0.271 NA
ATOM     11  H   UNL     1      30.966 -11.072 -23.371  0.00  0.00    +0.125 HD
BRANCH  10  12
ATOM     12  C   UNL     1      31.192  -9.612 -21.848  0.00  0.00    +0.140 C 
BRANCH  12  15
ATOM     13  F   UNL     1      30.607  -7.458 -22.553  0.00  0.00    -0.201 F 
ATOM     14  F   UNL     1      30.873  -8.977 -24.078  0.00  0.00    -0.201 F 
ATOM     15  C   UNL     1      31.387  -8.524 -22.897  0.00  0.00    +0.298 C 
BRANCH  15  17
ATOM     16  N   UNL     1      33.680  -9.100 -23.419  0.00  0.00    -0.325 N 
ATOM     17  C   UNL     1      32.843  -8.148 -23.019  0.00  0.00    +0.155 C 
ATOM     18  C   UNL     1      33.277  -6.876 -22.727  0.00  0.00    -0.001 C 
ATOM     19  C   UNL     1      34.992  -8.865 -23.557  0.00  0.00    +0.058 C 
ATOM     20  C   UNL     1      34.636  -6.604 -22.861  0.00  0.00    -0.001 C 
ATOM     21  C   UNL     1      35.506  -7.605 -23.281  0.00  0.00    +0.015 C 
ATOM     22  H   UNL     1      33.329  -9.997 -23.618  0.00  0.00    +0.147 HD
ENDBRANCH  15  17
ENDBRANCH  12  15
ENDBRANCH  10  12
ENDBRANCH   4  10
BRANCH   2  23
ATOM     23  C   UNL     1      34.948 -14.125 -22.791  0.00  0.00    +0.183 C 
BRANCH  23  26
ATOM     24  O   UNL     1      33.555 -15.684 -24.003  0.00  0.00    -0.273 OA
ATOM     25  N   UNL     1      35.328 -16.493 -22.736  0.00  0.00    -0.298 N 
ATOM     26  C   UNL     1      34.523 -15.497 -23.270  0.00  0.00    +0.243 C 
ATOM     27  H   UNL     1      36.079 -16.228 -22.158  0.00  0.00    +0.150 HD
BRANCH  25  28
ATOM     28  C   UNL     1      35.117 -17.902 -22.986  0.00  0.00    +0.138 C 
BRANCH  28  31
ATOM     29  F   UNL     1      33.408 -19.733 -21.697  0.00  0.00    -0.203 F 
ATOM     30  N   UNL     1      36.843 -18.589 -21.435  0.00  0.00    -0.244 NA
ATOM     31  C   UNL     1      35.564 -18.750 -21.831  0.00  0.00    +0.106 C 
ATOM     32  C   UNL     1      34.666 -19.626 -21.251  0.00  0.00    +0.151 C 
ATOM     33  C   UNL     1      35.116 -20.395 -20.184  0.00  0.00    +0.008 C 
ATOM     34  C   UNL     1      36.427 -20.263 -19.742  0.00  0.00    +0.019 C 
ATOM     35  C   UNL     1      37.243 -19.354 -20.396  0.00  0.00    +0.098 C 
ATOM     36  C   UNL     1      34.197 -21.359 -19.514  0.00  0.00    +0.033 C 
ENDBRANCH  28  31
ENDBRANCH  25  28
ENDBRANCH  23  26
ENDBRANCH   2  23
TORSDOF 8
ENDMDL
MODEL 9
REMARK VINA RESULT:     -10.2      2.282      3.275
REMARK  Name = 6323250
REMARK  8 active torsions:
REMARK  status: ('A' for Active; 'I' for Inactive)
REMARK    1  A    between atoms: N_2  and  C_23
REMARK    2  A    between atoms: N_3  and  C_5
REMARK    3  A    between atoms: N_3  and  C_12
REMARK    4  A    between atoms: C_12  and  C_15
REMARK    5  A    between atoms: C_15  and  C_17
REMARK    6  A    between atoms: C_23  and  C_26
REMARK    7  A    between atoms: N_25  and  C_28
REMARK    8  A    between atoms: C_28  and  C_31
REMARK                            x       y       z     vdW  Elec       q    Type
REMARK                         _______ _______ _______ _____ _____    ______ ____
ROOT
ATOM      1  O   UNL     1      33.134 -12.027 -23.615  0.00  0.00    -0.271 OA
ATOM      2  N   UNL     1      33.693 -13.557 -21.944  0.00  0.00    -0.250 N 
ATOM      3  N   UNL     1      31.560 -12.593 -20.532  0.00  0.00    -0.313 N 
ATOM      4  C   UNL     1      31.800 -12.058 -21.721  0.00  0.00    +0.207 C 
ATOM      5  C   UNL     1      33.392 -14.079 -20.688  0.00  0.00    +0.046 C 
ATOM      6  C   UNL     1      32.919 -12.530 -22.515  0.00  0.00    +0.263 C 
ATOM      7  C   UNL     1      32.342 -13.592 -20.013  0.00  0.00    +0.070 C 
ATOM      8  C   UNL     1      34.239 -15.174 -20.106  0.00  0.00    +0.049 C 
ATOM      9  H   UNL     1      30.798 -12.263 -20.006  0.00  0.00    +0.148 HD
ENDROOT
BRANCH   4  10
ATOM     10  N   UNL     1      31.073 -11.091 -22.264  0.00  0.00    -0.271 NA
ATOM     11  H   UNL     1      30.533 -11.286 -23.065  0.00  0.00    +0.125 HD
BRANCH  10  12
ATOM     12  C   UNL     1      31.054  -9.745 -21.702  0.00  0.00    +0.140 C 
BRANCH  12  15
ATOM     13  F   UNL     1      31.648  -9.076 -23.865  0.00  0.00    -0.201 F 
ATOM     14  F   UNL     1      33.235  -9.263 -22.400  0.00  0.00    -0.201 F 
ATOM     15  C   UNL     1      31.944  -8.848 -22.553  0.00  0.00    +0.298 C 
BRANCH  15  17
ATOM     16  N   UNL     1      30.856  -6.705 -22.851  0.00  0.00    -0.325 N 
ATOM     17  C   UNL     1      31.766  -7.398 -22.173  0.00  0.00    +0.155 C 
ATOM     18  C   UNL     1      32.513  -6.827 -21.171  0.00  0.00    -0.001 C 
ATOM     19  C   UNL     1      30.624  -5.411 -22.589  0.00  0.00    +0.058 C 
ATOM     20  C   UNL     1      32.294  -5.484 -20.877  0.00  0.00    -0.001 C 
ATOM     21  C   UNL     1      31.340  -4.765 -21.590  0.00  0.00    +0.015 C 
ATOM     22  H   UNL     1      30.342  -7.152 -23.561  0.00  0.00    +0.147 HD
ENDBRANCH  15  17
ENDBRANCH  12  15
ENDBRANCH  10  12
ENDBRANCH   4  10
BRANCH   2  23
ATOM     23  C   UNL     1      34.836 -14.076 -22.692  0.00  0.00    +0.183 C 
BRANCH  23  26
ATOM     24  O   UNL     1      33.564 -15.668 -23.992  0.00  0.00    -0.273 OA
ATOM     25  N   UNL     1      35.363 -16.416 -22.724  0.00  0.00    -0.298 N 
ATOM     26  C   UNL     1      34.506 -15.451 -23.233  0.00  0.00    +0.243 C 
ATOM     27  H   UNL     1      36.086 -16.129 -22.122  0.00  0.00    +0.150 HD
BRANCH  25  28
ATOM     28  C   UNL     1      35.245 -17.824 -23.034  0.00  0.00    +0.138 C 
BRANCH  28  31
ATOM     29  F   UNL     1      33.463 -19.640 -21.826  0.00  0.00    -0.203 F 
ATOM     30  N   UNL     1      36.903 -18.552 -21.428  0.00  0.00    -0.244 NA
ATOM     31  C   UNL     1      35.637 -18.689 -21.872  0.00  0.00    +0.106 C 
ATOM     32  C   UNL     1      34.706 -19.556 -21.333  0.00  0.00    +0.151 C 
ATOM     33  C   UNL     1      35.104 -20.342 -20.258  0.00  0.00    +0.008 C 
ATOM     34  C   UNL     1      36.401 -20.234 -19.767  0.00  0.00    +0.019 C 
ATOM     35  C   UNL     1      37.254 -19.332 -20.382  0.00  0.00    +0.098 C 
ATOM     36  C   UNL     1      34.147 -21.298 -19.631  0.00  0.00    +0.033 C 
ENDBRANCH  28  31
ENDBRANCH  25  28
ENDBRANCH  23  26
ENDBRANCH   2  23
TORSDOF 8
ENDMDL
