MODEL 1
REMARK VINA RESULT:     -10.0      0.000      0.000
REMARK  Name = 6450546
REMARK  5 active torsions:
REMARK  status: ('A' for Active; 'I' for Inactive)
REMARK    1  A    between atoms: C_6  and  C_17
REMARK    2  A    between atoms: CA_7  and  C_14
REMARK    3  A    between atoms: C_14  and  O_15
REMARK    4  A    between atoms: C_18  and  C_21
REMARK    5  A    between atoms: N_20  and  C_23
REMARK                            x       y       z     vdW  Elec       q    Type
REMARK                         _______ _______ _______ _____ _____    ______ ____
ROOT
ATOM      1 CL   UNL     1      37.305 -22.667 -16.115  0.00  0.00    -0.082 Cl
ATOM      2 CL   UNL     1      38.334 -25.531 -11.651  0.00  0.00    -0.082 Cl
ATOM      3  N   UNL     1      33.569 -24.510 -13.511  0.00  0.00    -0.348 N 
ATOM      4  C   UNL     1      35.377 -23.747 -14.574  0.00  0.00    +0.028 A 
ATOM      5  C   UNL     1      34.945 -24.484 -13.468  0.00  0.00    +0.058 A 
ATOM      6  C   UNL     1      34.212 -23.335 -15.280  0.00  0.00    +0.024 A 
ATOM      7  CA  UNL     1      33.117 -23.819 -14.602  0.00  0.00    +0.133 A 
ATOM      8  C   UNL     1      36.760 -23.565 -14.770  0.00  0.00    +0.060 C 
ATOM      9  C   UNL     1      35.832 -25.049 -12.545  0.00  0.00    +0.028 C 
ATOM     10  C   UNL     1      37.658 -24.124 -13.854  0.00  0.00    +0.023 C 
ATOM     11  C   UNL     1      37.199 -24.855 -12.760  0.00  0.00    +0.060 C 
ATOM     12  H   UNL     1      32.995 -24.963 -12.851  0.00  0.00    +0.166 HD
ENDROOT
BRANCH   7  14
ATOM     13  OXT UNL     1      31.013 -24.466 -15.548  0.00  0.00    -0.243 OA
ATOM     14  C   UNL     1      31.726 -23.676 -14.908  0.00  0.00    +0.354 C 
BRANCH  14  15
ATOM     15  O   UNL     1      31.186 -22.520 -14.406  0.00  0.00    -0.476 OA
ATOM     16  H   UNL     1      31.532 -21.689 -14.669  0.00  0.00    +0.295 HD
ENDBRANCH  14  15
ENDBRANCH   7  14
BRANCH   6  17
ATOM     17  C   UNL     1      34.118 -22.567 -16.466  0.00  0.00    +0.006 C 
ATOM     18  C   UNL     1      33.882 -23.003 -17.734  0.00  0.00    +0.058 C 
BRANCH  18  21
ATOM     19  O   UNL     1      32.787 -21.912 -19.540  0.00  0.00    -0.270 OA
ATOM     20  N   UNL     1      35.026 -21.394 -19.060  0.00  0.00    -0.280 N 
ATOM     21  C   UNL     1      33.814 -22.048 -18.884  0.00  0.00    +0.250 C 
ATOM     22  H   UNL     1      35.746 -21.631 -18.432  0.00  0.00    +0.155 HD
BRANCH  20  23
ATOM     23  C   UNL     1      35.343 -20.422 -20.041  0.00  0.00    +0.051 C 
ATOM     24  C   UNL     1      36.593 -19.828 -20.024  0.00  0.00    +0.015 C 
ATOM     25  C   UNL     1      34.397 -20.089 -20.995  0.00  0.00    +0.015 C 
ATOM     26  C   UNL     1      36.907 -18.871 -20.990  0.00  0.00    +0.001 C 
ATOM     27  C   UNL     1      34.710 -19.133 -21.961  0.00  0.00    +0.001 C 
ATOM     28  C   UNL     1      35.965 -18.524 -21.958  0.00  0.00    +0.000 C 
ENDBRANCH  20  23
ENDBRANCH  18  21
ENDBRANCH   6  17
TORSDOF 5
ENDMDL
MODEL 2
REMARK VINA RESULT:     -10.0      3.092      4.237
REMARK  Name = 6450546
REMARK  5 active torsions:
REMARK  status: ('A' for Active; 'I' for Inactive)
REMARK    1  A    between atoms: C_6  and  C_17
REMARK    2  A    between atoms: CA_7  and  C_14
REMARK    3  A    between atoms: C_14  and  O_15
REMARK    4  A    between atoms: C_18  and  C_21
REMARK    5  A    between atoms: N_20  and  C_23
REMARK                            x       y       z     vdW  Elec       q    Type
REMARK                         _______ _______ _______ _____ _____    ______ ____
ROOT
ATOM      1 CL   UNL     1      31.875 -22.551 -16.883  0.00  0.00    -0.082 Cl
ATOM      2 CL   UNL     1      28.767 -25.786 -13.873  0.00  0.00    -0.082 Cl
ATOM      3  N   UNL     1      33.788 -24.739 -12.923  0.00  0.00    -0.348 N 
ATOM      4  C   UNL     1      32.764 -23.825 -14.683  0.00  0.00    +0.028 A 
ATOM      5  C   UNL     1      32.584 -24.674 -13.589  0.00  0.00    +0.058 A 
ATOM      6  C   UNL     1      34.116 -23.383 -14.649  0.00  0.00    +0.024 A 
ATOM      7  CA  UNL     1      34.719 -23.961 -13.556  0.00  0.00    +0.133 A 
ATOM      8  C   UNL     1      31.673 -23.585 -15.541  0.00  0.00    +0.060 C 
ATOM      9  C   UNL     1      31.362 -25.297 -13.309  0.00  0.00    +0.028 C 
ATOM     10  C   UNL     1      30.445 -24.201 -15.274  0.00  0.00    +0.023 C 
ATOM     11  C   UNL     1      30.295 -25.043 -14.174  0.00  0.00    +0.060 C 
ATOM     12  H   UNL     1      33.953 -25.267 -12.109  0.00  0.00    +0.166 HD
ENDROOT
BRANCH   7  14
ATOM     13  OXT UNL     1      37.088 -24.323 -13.597  0.00  0.00    -0.243 OA
ATOM     14  C   UNL     1      36.066 -23.831 -13.090  0.00  0.00    +0.354 C 
BRANCH  14  15
ATOM     15  O   UNL     1      36.166 -23.064 -11.957  0.00  0.00    -0.476 OA
ATOM     16  H   UNL     1      36.585 -22.226 -11.995  0.00  0.00    +0.295 HD
ENDBRANCH  14  15
ENDBRANCH   7  14
BRANCH   6  17
ATOM     17  C   UNL     1      34.787 -22.510 -15.540  0.00  0.00    +0.006 C 
ATOM     18  C   UNL     1      35.360 -22.808 -16.738  0.00  0.00    +0.058 C 
BRANCH  18  21
ATOM     19  O   UNL     1      37.099 -21.259 -17.213  0.00  0.00    -0.270 OA
ATOM     20  N   UNL     1      35.294 -21.465 -18.700  0.00  0.00    -0.280 N 
ATOM     21  C   UNL     1      36.034 -21.755 -17.561  0.00  0.00    +0.250 C 
ATOM     22  H   UNL     1      34.456 -21.968 -18.816  0.00  0.00    +0.155 HD
BRANCH  20  23
ATOM     23  C   UNL     1      35.611 -20.527 -19.714  0.00  0.00    +0.051 C 
ATOM     24  C   UNL     1      34.623 -20.131 -20.599  0.00  0.00    +0.015 C 
ATOM     25  C   UNL     1      36.899 -20.028 -19.796  0.00  0.00    +0.015 C 
ATOM     26  C   UNL     1      34.933 -19.208 -21.598  0.00  0.00    +0.001 C 
ATOM     27  C   UNL     1      37.210 -19.105 -20.794  0.00  0.00    +0.001 C 
ATOM     28  C   UNL     1      36.227 -18.695 -21.695  0.00  0.00    +0.000 C 
ENDBRANCH  20  23
ENDBRANCH  18  21
ENDBRANCH   6  17
TORSDOF 5
ENDMDL
MODEL 3
REMARK VINA RESULT:      -9.8      3.189      4.172
REMARK  Name = 6450546
REMARK  5 active torsions:
REMARK  status: ('A' for Active; 'I' for Inactive)
REMARK    1  A    between atoms: C_6  and  C_17
REMARK    2  A    between atoms: CA_7  and  C_14
REMARK    3  A    between atoms: C_14  and  O_15
REMARK    4  A    between atoms: C_18  and  C_21
REMARK    5  A    between atoms: N_20  and  C_23
REMARK                            x       y       z     vdW  Elec       q    Type
REMARK                         _______ _______ _______ _____ _____    ______ ____
ROOT
ATOM      1 CL   UNL     1      32.220 -22.045 -17.641  0.00  0.00    -0.082 Cl
ATOM      2 CL   UNL     1      29.732 -24.915 -13.799  0.00  0.00    -0.082 Cl
ATOM      3  N   UNL     1      34.895 -24.274 -14.175  0.00  0.00    -0.348 N 
ATOM      4  C   UNL     1      33.534 -23.328 -15.669  0.00  0.00    +0.028 A 
ATOM      5  C   UNL     1      33.571 -24.126 -14.524  0.00  0.00    +0.058 A 
ATOM      6  C   UNL     1      34.881 -23.002 -15.994  0.00  0.00    +0.024 A 
ATOM      7  CA  UNL     1      35.693 -23.598 -15.057  0.00  0.00    +0.133 A 
ATOM      8  C   UNL     1      32.284 -23.019 -16.241  0.00  0.00    +0.060 C 
ATOM      9  C   UNL     1      32.415 -24.634 -13.920  0.00  0.00    +0.028 C 
ATOM     10  C   UNL     1      31.120 -23.520 -15.648  0.00  0.00    +0.023 C 
ATOM     11  C   UNL     1      31.187 -24.314 -14.505  0.00  0.00    +0.060 C 
ATOM     12  H   UNL     1      35.219 -24.791 -13.402  0.00  0.00    +0.166 HD
ENDROOT
BRANCH   7  14
ATOM     13  OXT UNL     1      37.833 -22.592 -14.665  0.00  0.00    -0.243 OA
ATOM     14  C   UNL     1      37.121 -23.570 -14.946  0.00  0.00    +0.354 C 
BRANCH  14  15
ATOM     15  O   UNL     1      37.698 -24.790 -15.187  0.00  0.00    -0.476 OA
ATOM     16  H   UNL     1      37.159 -25.533 -15.380  0.00  0.00    +0.295 HD
ENDBRANCH  14  15
ENDBRANCH   7  14
BRANCH   6  17
ATOM     17  C   UNL     1      35.371 -22.216 -17.065  0.00  0.00    +0.006 C 
ATOM     18  C   UNL     1      35.018 -22.270 -18.378  0.00  0.00    +0.058 C 
BRANCH  18  21
ATOM     19  O   UNL     1      36.851 -21.345 -19.577  0.00  0.00    -0.270 OA
ATOM     20  N   UNL     1      34.674 -20.588 -20.024  0.00  0.00    -0.280 N 
ATOM     21  C   UNL     1      35.640 -21.357 -19.388  0.00  0.00    +0.250 C 
ATOM     22  H   UNL     1      33.743 -20.735 -19.741  0.00  0.00    +0.155 HD
BRANCH  20  23
ATOM     23  C   UNL     1      34.879 -19.616 -21.035  0.00  0.00    +0.051 C 
ATOM     24  C   UNL     1      34.434 -19.875 -22.320  0.00  0.00    +0.015 C 
ATOM     25  C   UNL     1      35.518 -18.431 -20.715  0.00  0.00    +0.015 C 
ATOM     26  C   UNL     1      34.635 -18.918 -23.316  0.00  0.00    +0.001 C 
ATOM     27  C   UNL     1      35.719 -17.475 -21.710  0.00  0.00    +0.001 C 
ATOM     28  C   UNL     1      35.277 -17.719 -23.010  0.00  0.00    +0.000 C 
ENDBRANCH  20  23
ENDBRANCH  18  21
ENDBRANCH   6  17
TORSDOF 5
ENDMDL
MODEL 4
REMARK VINA RESULT:      -9.8      1.581      2.058
REMARK  Name = 6450546
REMARK  5 active torsions:
REMARK  status: ('A' for Active; 'I' for Inactive)
REMARK    1  A    between atoms: C_6  and  C_17
REMARK    2  A    between atoms: CA_7  and  C_14
REMARK    3  A    between atoms: C_14  and  O_15
REMARK    4  A    between atoms: C_18  and  C_21
REMARK    5  A    between atoms: N_20  and  C_23
REMARK                            x       y       z     vdW  Elec       q    Type
REMARK                         _______ _______ _______ _____ _____    ______ ____
ROOT
ATOM      1 CL   UNL     1      38.199 -22.337 -16.031  0.00  0.00    -0.082 Cl
ATOM      2 CL   UNL     1      37.316 -25.979 -12.140  0.00  0.00    -0.082 Cl
ATOM      3  N   UNL     1      33.644 -24.015 -15.280  0.00  0.00    -0.348 N 
ATOM      4  C   UNL     1      35.767 -23.359 -15.488  0.00  0.00    +0.028 A 
ATOM      5  C   UNL     1      34.909 -24.191 -14.764  0.00  0.00    +0.058 A 
ATOM      6  C   UNL     1      34.973 -22.681 -16.454  0.00  0.00    +0.024 A 
ATOM      7  CA  UNL     1      33.673 -23.105 -16.301  0.00  0.00    +0.133 A 
ATOM      8  C   UNL     1      37.136 -23.347 -15.158  0.00  0.00    +0.060 C 
ATOM      9  C   UNL     1      35.354 -25.013 -13.723  0.00  0.00    +0.028 C 
ATOM     10  C   UNL     1      37.596 -24.164 -14.119  0.00  0.00    +0.023 C 
ATOM     11  C   UNL     1      36.717 -24.984 -13.414  0.00  0.00    +0.060 C 
ATOM     12  H   UNL     1      32.836 -24.478 -14.960  0.00  0.00    +0.166 HD
ENDROOT
BRANCH   7  14
ATOM     13  OXT UNL     1      32.437 -22.394 -18.227  0.00  0.00    -0.243 OA
ATOM     14  C   UNL     1      32.503 -22.720 -17.031  0.00  0.00    +0.354 C 
BRANCH  14  15
ATOM     15  O   UNL     1      31.367 -22.738 -16.263  0.00  0.00    -0.476 OA
ATOM     16  H   UNL     1      30.738 -22.046 -16.339  0.00  0.00    +0.295 HD
ENDBRANCH  14  15
ENDBRANCH   7  14
BRANCH   6  17
ATOM     17  C   UNL     1      35.375 -21.732 -17.425  0.00  0.00    +0.006 C 
ATOM     18  C   UNL     1      35.630 -21.937 -18.746  0.00  0.00    +0.058 C 
BRANCH  18  21
ATOM     19  O   UNL     1      37.192 -20.371 -19.618  0.00  0.00    -0.270 OA
ATOM     20  N   UNL     1      34.993 -20.393 -20.440  0.00  0.00    -0.280 N 
ATOM     21  C   UNL     1      36.049 -20.812 -19.641  0.00  0.00    +0.250 C 
ATOM     22  H   UNL     1      34.139 -20.869 -20.320  0.00  0.00    +0.155 HD
BRANCH  20  23
ATOM     23  C   UNL     1      35.006 -19.357 -21.407  0.00  0.00    +0.051 C 
ATOM     24  C   UNL     1      35.440 -18.096 -21.039  0.00  0.00    +0.015 C 
ATOM     25  C   UNL     1      34.586 -19.630 -22.697  0.00  0.00    +0.015 C 
ATOM     26  C   UNL     1      35.453 -17.075 -21.990  0.00  0.00    +0.001 C 
ATOM     27  C   UNL     1      34.599 -18.611 -23.648  0.00  0.00    +0.001 C 
ATOM     28  C   UNL     1      35.033 -17.333 -23.294  0.00  0.00    +0.000 C 
ENDBRANCH  20  23
ENDBRANCH  18  21
ENDBRANCH   6  17
TORSDOF 5
ENDMDL
MODEL 5
REMARK VINA RESULT:      -9.7      6.258     11.185
REMARK  Name = 6450546
REMARK  5 active torsions:
REMARK  status: ('A' for Active; 'I' for Inactive)
REMARK    1  A    between atoms: C_6  and  C_17
REMARK    2  A    between atoms: CA_7  and  C_14
REMARK    3  A    between atoms: C_14  and  O_15
REMARK    4  A    between atoms: C_18  and  C_21
REMARK    5  A    between atoms: N_20  and  C_23
REMARK                            x       y       z     vdW  Elec       q    Type
REMARK                         _______ _______ _______ _____ _____    ______ ____
ROOT
ATOM      1 CL   UNL     1      33.356 -14.849 -19.390  0.00  0.00    -0.082 Cl
ATOM      2 CL   UNL     1      31.308  -9.980 -20.524  0.00  0.00    -0.082 Cl
ATOM      3  N   UNL     1      33.088 -13.369 -24.067  0.00  0.00    -0.348 N 
ATOM      4  C   UNL     1      33.136 -13.884 -21.896  0.00  0.00    +0.028 A 
ATOM      5  C   UNL     1      32.776 -12.894 -22.812  0.00  0.00    +0.058 A 
ATOM      6  C   UNL     1      33.674 -14.969 -22.644  0.00  0.00    +0.024 A 
ATOM      7  CA  UNL     1      33.631 -14.622 -23.975  0.00  0.00    +0.133 A 
ATOM      8  C   UNL     1      32.921 -13.650 -20.524  0.00  0.00    +0.060 C 
ATOM      9  C   UNL     1      32.208 -11.675 -22.423  0.00  0.00    +0.028 C 
ATOM     10  C   UNL     1      32.355 -12.435 -20.120  0.00  0.00    +0.023 C 
ATOM     11  C   UNL     1      32.004 -11.465 -21.056  0.00  0.00    +0.060 C 
ATOM     12  H   UNL     1      32.940 -12.878 -24.907  0.00  0.00    +0.166 HD
ENDROOT
BRANCH   7  14
ATOM     13  OXT UNL     1      34.928 -16.249 -25.163  0.00  0.00    -0.243 OA
ATOM     14  C   UNL     1      34.052 -15.370 -25.121  0.00  0.00    +0.354 C 
BRANCH  14  15
ATOM     15  O   UNL     1      33.371 -15.027 -26.261  0.00  0.00    -0.476 OA
ATOM     16  H   UNL     1      33.620 -15.399 -27.085  0.00  0.00    +0.295 HD
ENDBRANCH  14  15
ENDBRANCH   7  14
BRANCH   6  17
ATOM     17  C   UNL     1      34.179 -16.206 -22.177  0.00  0.00    +0.006 C 
ATOM     18  C   UNL     1      35.476 -16.560 -21.966  0.00  0.00    +0.058 C 
BRANCH  18  21
ATOM     19  O   UNL     1      36.963 -18.382 -21.622  0.00  0.00    -0.270 OA
ATOM     20  N   UNL     1      34.757 -18.524 -20.832  0.00  0.00    -0.280 N 
ATOM     21  C   UNL     1      35.839 -17.922 -21.463  0.00  0.00    +0.250 C 
ATOM     22  H   UNL     1      33.925 -17.999 -20.798  0.00  0.00    +0.155 HD
BRANCH  20  23
ATOM     23  C   UNL     1      34.717 -19.807 -20.233  0.00  0.00    +0.051 C 
ATOM     24  C   UNL     1      33.490 -20.391 -19.969  0.00  0.00    +0.015 C 
ATOM     25  C   UNL     1      35.905 -20.447 -19.925  0.00  0.00    +0.015 C 
ATOM     26  C   UNL     1      33.449 -21.654 -19.379  0.00  0.00    +0.001 C 
ATOM     27  C   UNL     1      35.865 -21.710 -19.334  0.00  0.00    +0.001 C 
ATOM     28  C   UNL     1      34.637 -22.314 -19.062  0.00  0.00    +0.000 C 
ENDBRANCH  20  23
ENDBRANCH  18  21
ENDBRANCH   6  17
TORSDOF 5
ENDMDL
MODEL 6
REMARK VINA RESULT:      -9.5     12.314     16.651
REMARK  Name = 6450546
REMARK  5 active torsions:
REMARK  status: ('A' for Active; 'I' for Inactive)
REMARK    1  A    between atoms: C_6  and  C_17
REMARK    2  A    between atoms: CA_7  and  C_14
REMARK    3  A    between atoms: C_14  and  O_15
REMARK    4  A    between atoms: C_18  and  C_21
REMARK    5  A    between atoms: N_20  and  C_23
REMARK                            x       y       z     vdW  Elec       q    Type
REMARK                         _______ _______ _______ _____ _____    ______ ____
ROOT
ATOM      1 CL   UNL     1      32.749  -7.153 -25.608  0.00  0.00    -0.082 Cl
ATOM      2 CL   UNL     1      30.105  -2.541 -24.646  0.00  0.00    -0.082 Cl
ATOM      3  N   UNL     1      31.489  -6.005 -21.000  0.00  0.00    -0.348 N 
ATOM      4  C   UNL     1      31.985  -6.373 -23.145  0.00  0.00    +0.028 A 
ATOM      5  C   UNL     1      31.375  -5.475 -22.266  0.00  0.00    +0.058 A 
ATOM      6  C   UNL     1      32.469  -7.459 -22.362  0.00  0.00    +0.024 A 
ATOM      7  CA  UNL     1      32.149  -7.203 -21.049  0.00  0.00    +0.133 A 
ATOM      8  C   UNL     1      32.008  -6.067 -24.520  0.00  0.00    +0.060 C 
ATOM      9  C   UNL     1      30.784  -4.281 -22.696  0.00  0.00    +0.028 C 
ATOM     10  C   UNL     1      31.420  -4.877 -24.964  0.00  0.00    +0.023 C 
ATOM     11  C   UNL     1      30.819  -4.000 -24.064  0.00  0.00    +0.060 C 
ATOM     12  H   UNL     1      31.146  -5.582 -20.180  0.00  0.00    +0.166 HD
ENDROOT
BRANCH   7  14
ATOM     13  OXT UNL     1      31.831  -9.023 -19.522  0.00  0.00    -0.243 OA
ATOM     14  C   UNL     1      32.416  -7.988 -19.881  0.00  0.00    +0.354 C 
BRANCH  14  15
ATOM     15  O   UNL     1      33.444  -7.486 -19.126  0.00  0.00    -0.476 OA
ATOM     16  H   UNL     1      34.085  -6.926 -19.520  0.00  0.00    +0.295 HD
ENDBRANCH  14  15
ENDBRANCH   7  14
BRANCH   6  17
ATOM     17  C   UNL     1      33.160  -8.620 -22.785  0.00  0.00    +0.006 C 
ATOM     18  C   UNL     1      32.652  -9.857 -23.036  0.00  0.00    +0.058 C 
BRANCH  18  21
ATOM     19  O   UNL     1      34.621 -10.775 -24.001  0.00  0.00    -0.270 OA
ATOM     20  N   UNL     1      32.938 -12.211 -23.217  0.00  0.00    -0.280 N 
ATOM     21  C   UNL     1      33.532 -10.984 -23.481  0.00  0.00    +0.250 C 
ATOM     22  H   UNL     1      32.052 -12.185 -22.789  0.00  0.00    +0.155 HD
BRANCH  20  23
ATOM     23  C   UNL     1      33.465 -13.497 -23.494  0.00  0.00    +0.051 C 
ATOM     24  C   UNL     1      34.358 -14.067 -22.604  0.00  0.00    +0.015 C 
ATOM     25  C   UNL     1      33.075 -14.154 -24.649  0.00  0.00    +0.015 C 
ATOM     26  C   UNL     1      34.878 -15.333 -22.876  0.00  0.00    +0.001 C 
ATOM     27  C   UNL     1      33.594 -15.419 -24.921  0.00  0.00    +0.001 C 
ATOM     28  C   UNL     1      34.495 -16.008 -24.034  0.00  0.00    +0.000 C 
ENDBRANCH  20  23
ENDBRANCH  18  21
ENDBRANCH   6  17
TORSDOF 5
ENDMDL
MODEL 7
REMARK VINA RESULT:      -9.4     10.959     14.967
REMARK  Name = 6450546
REMARK  5 active torsions:
REMARK  status: ('A' for Active; 'I' for Inactive)
REMARK    1  A    between atoms: C_6  and  C_17
REMARK    2  A    between atoms: CA_7  and  C_14
REMARK    3  A    between atoms: C_14  and  O_15
REMARK    4  A    between atoms: C_18  and  C_21
REMARK    5  A    between atoms: N_20  and  C_23
REMARK                            x       y       z     vdW  Elec       q    Type
REMARK                         _______ _______ _______ _____ _____    ______ ____
ROOT
ATOM      1 CL   UNL     1      32.320  -9.588 -24.609  0.00  0.00    -0.082 Cl
ATOM      2 CL   UNL     1      31.182  -4.311 -24.406  0.00  0.00    -0.082 Cl
ATOM      3  N   UNL     1      31.461  -7.466 -20.262  0.00  0.00    -0.348 N 
ATOM      4  C   UNL     1      31.825  -8.270 -22.312  0.00  0.00    +0.028 A 
ATOM      5  C   UNL     1      31.512  -7.114 -21.593  0.00  0.00    +0.058 A 
ATOM      6  C   UNL     1      31.960  -9.325 -21.367  0.00  0.00    +0.024 A 
ATOM      7  CA  UNL     1      31.731  -8.800 -20.117  0.00  0.00    +0.133 A 
ATOM      8  C   UNL     1      31.939  -8.186 -23.714  0.00  0.00    +0.060 C 
ATOM      9  C   UNL     1      31.307  -5.874 -22.208  0.00  0.00    +0.028 C 
ATOM     10  C   UNL     1      31.736  -6.953 -24.343  0.00  0.00    +0.023 C 
ATOM     11  C   UNL     1      31.425  -5.816 -23.599  0.00  0.00    +0.060 C 
ATOM     12  H   UNL     1      31.261  -6.847 -19.524  0.00  0.00    +0.166 HD
ENDROOT
BRANCH   7  14
ATOM     13  OXT UNL     1      32.733  -9.628 -18.103  0.00  0.00    -0.243 OA
ATOM     14  C   UNL     1      31.750  -9.452 -18.842  0.00  0.00    +0.354 C 
BRANCH  14  15
ATOM     15  O   UNL     1      30.515  -9.906 -18.457  0.00  0.00    -0.476 OA
ATOM     16  H   UNL     1      29.881  -9.305 -18.114  0.00  0.00    +0.295 HD
ENDBRANCH  14  15
ENDBRANCH   7  14
BRANCH   6  17
ATOM     17  C   UNL     1      32.271 -10.688 -21.597  0.00  0.00    +0.006 C 
ATOM     18  C   UNL     1      31.769 -11.783 -20.964  0.00  0.00    +0.058 C 
BRANCH  18  21
ATOM     19  O   UNL     1      31.878 -14.140 -20.670  0.00  0.00    -0.270 OA
ATOM     20  N   UNL     1      33.000 -13.145 -22.476  0.00  0.00    -0.280 N 
ATOM     21  C   UNL     1      32.210 -13.165 -21.334  0.00  0.00    +0.250 C 
ATOM     22  H   UNL     1      33.163 -12.262 -22.880  0.00  0.00    +0.155 HD
BRANCH  20  23
ATOM     23  C   UNL     1      33.599 -14.253 -23.126  0.00  0.00    +0.051 C 
ATOM     24  C   UNL     1      33.206 -14.574 -24.414  0.00  0.00    +0.015 C 
ATOM     25  C   UNL     1      34.562 -14.990 -22.459  0.00  0.00    +0.015 C 
ATOM     26  C   UNL     1      33.794 -15.665 -25.054  0.00  0.00    +0.001 C 
ATOM     27  C   UNL     1      35.150 -16.081 -23.098  0.00  0.00    +0.001 C 
ATOM     28  C   UNL     1      34.766 -16.418 -24.396  0.00  0.00    +0.000 C 
ENDBRANCH  20  23
ENDBRANCH  18  21
ENDBRANCH   6  17
TORSDOF 5
ENDMDL
MODEL 8
REMARK VINA RESULT:      -9.3      2.590      7.207
REMARK  Name = 6450546
REMARK  5 active torsions:
REMARK  status: ('A' for Active; 'I' for Inactive)
REMARK    1  A    between atoms: C_6  and  C_17
REMARK    2  A    between atoms: CA_7  and  C_14
REMARK    3  A    between atoms: C_14  and  O_15
REMARK    4  A    between atoms: C_18  and  C_21
REMARK    5  A    between atoms: N_20  and  C_23
REMARK                            x       y       z     vdW  Elec       q    Type
REMARK                         _______ _______ _______ _____ _____    ______ ____
ROOT
ATOM      1 CL   UNL     1      37.060 -21.657 -18.338  0.00  0.00    -0.082 Cl
ATOM      2 CL   UNL     1      34.438 -19.188 -22.365  0.00  0.00    -0.082 Cl
ATOM      3  N   UNL     1      32.150 -21.775 -18.456  0.00  0.00    -0.348 N 
ATOM      4  C   UNL     1      34.374 -21.625 -18.553  0.00  0.00    +0.028 A 
ATOM      5  C   UNL     1      33.190 -21.260 -19.197  0.00  0.00    +0.058 A 
ATOM      6  C   UNL     1      34.008 -22.374 -17.400  0.00  0.00    +0.024 A 
ATOM      7  CA  UNL     1      32.635 -22.449 -17.368  0.00  0.00    +0.133 A 
ATOM      8  C   UNL     1      35.603 -21.220 -19.111  0.00  0.00    +0.060 C 
ATOM      9  C   UNL     1      33.173 -20.507 -20.377  0.00  0.00    +0.028 C 
ATOM     10  C   UNL     1      35.601 -20.467 -20.291  0.00  0.00    +0.023 C 
ATOM     11  C   UNL     1      34.404 -20.117 -20.912  0.00  0.00    +0.060 C 
ATOM     12  H   UNL     1      31.196 -21.671 -18.677  0.00  0.00    +0.166 HD
ENDROOT
BRANCH   7  14
ATOM     13  OXT UNL     1      32.116 -23.921 -15.549  0.00  0.00    -0.243 OA
ATOM     14  C   UNL     1      31.784 -23.092 -16.413  0.00  0.00    +0.354 C 
BRANCH  14  15
ATOM     15  O   UNL     1      30.474 -22.702 -16.519  0.00  0.00    -0.476 OA
ATOM     16  H   UNL     1      30.109 -22.111 -15.889  0.00  0.00    +0.295 HD
ENDBRANCH  14  15
ENDBRANCH   7  14
BRANCH   6  17
ATOM     17  C   UNL     1      34.845 -22.965 -16.423  0.00  0.00    +0.006 C 
ATOM     18  C   UNL     1      35.247 -22.442 -15.233  0.00  0.00    +0.058 C 
BRANCH  18  21
ATOM     19  O   UNL     1      35.926 -23.250 -13.102  0.00  0.00    -0.270 OA
ATOM     20  N   UNL     1      37.174 -23.818 -15.008  0.00  0.00    -0.280 N 
ATOM     21  C   UNL     1      36.141 -23.209 -14.308  0.00  0.00    +0.250 C 
ATOM     22  H   UNL     1      37.187 -23.674 -15.982  0.00  0.00    +0.155 HD
BRANCH  20  23
ATOM     23  C   UNL     1      38.212 -24.624 -14.478  0.00  0.00    +0.051 C 
ATOM     24  C   UNL     1      39.459 -24.599 -15.078  0.00  0.00    +0.015 C 
ATOM     25  C   UNL     1      37.957 -25.416 -13.372  0.00  0.00    +0.015 C 
ATOM     26  C   UNL     1      40.482 -25.393 -14.557  0.00  0.00    +0.001 C 
ATOM     27  C   UNL     1      38.978 -26.209 -12.851  0.00  0.00    +0.001 C 
ATOM     28  C   UNL     1      40.241 -26.197 -13.443  0.00  0.00    +0.000 C 
ENDBRANCH  20  23
ENDBRANCH  18  21
ENDBRANCH   6  17
TORSDOF 5
ENDMDL
MODEL 9
REMARK VINA RESULT:      -9.0      2.760      7.624
REMARK  Name = 6450546
REMARK  5 active torsions:
REMARK  status: ('A' for Active; 'I' for Inactive)
REMARK    1  A    between atoms: C_6  and  C_17
REMARK    2  A    between atoms: CA_7  and  C_14
REMARK    3  A    between atoms: C_14  and  O_15
REMARK    4  A    between atoms: C_18  and  C_21
REMARK    5  A    between atoms: N_20  and  C_23
REMARK                            x       y       z     vdW  Elec       q    Type
REMARK                         _______ _______ _______ _____ _____    ______ ____
ROOT
ATOM      1 CL   UNL     1      37.291 -21.305 -19.218  0.00  0.00    -0.082 Cl
ATOM      2 CL   UNL     1      34.405 -18.743 -22.998  0.00  0.00    -0.082 Cl
ATOM      3  N   UNL     1      32.385 -21.395 -18.987  0.00  0.00    -0.348 N 
ATOM      4  C   UNL     1      34.598 -21.254 -19.240  0.00  0.00    +0.028 A 
ATOM      5  C   UNL     1      33.373 -20.871 -19.791  0.00  0.00    +0.058 A 
ATOM      6  C   UNL     1      34.310 -22.025 -18.079  0.00  0.00    +0.024 A 
ATOM      7  CA  UNL     1      32.942 -22.094 -17.950  0.00  0.00    +0.133 A 
ATOM      8  C   UNL     1      35.786 -20.845 -19.876  0.00  0.00    +0.060 C 
ATOM      9  C   UNL     1      33.277 -20.095 -20.951  0.00  0.00    +0.028 C 
ATOM     10  C   UNL     1      35.705 -20.069 -21.038  0.00  0.00    +0.023 C 
ATOM     11  C   UNL     1      34.469 -19.700 -21.565  0.00  0.00    +0.060 C 
ATOM     12  H   UNL     1      31.419 -21.282 -19.137  0.00  0.00    +0.166 HD
ENDROOT
BRANCH   7  14
ATOM     13  OXT UNL     1      32.531 -23.639 -16.165  0.00  0.00    -0.243 OA
ATOM     14  C   UNL     1      32.157 -22.751 -16.949  0.00  0.00    +0.354 C 
BRANCH  14  15
ATOM     15  O   UNL     1      30.863 -22.299 -16.905  0.00  0.00    -0.476 OA
ATOM     16  H   UNL     1      30.460 -22.113 -16.079  0.00  0.00    +0.295 HD
ENDBRANCH  14  15
ENDBRANCH   7  14
BRANCH   6  17
ATOM     17  C   UNL     1      35.210 -22.639 -17.175  0.00  0.00    +0.006 C 
ATOM     18  C   UNL     1      36.219 -22.061 -16.468  0.00  0.00    +0.058 C 
BRANCH  18  21
ATOM     19  O   UNL     1      38.305 -22.765 -15.572  0.00  0.00    -0.270 OA
ATOM     20  N   UNL     1      36.314 -23.675 -14.724  0.00  0.00    -0.280 N 
ATOM     21  C   UNL     1      37.084 -22.864 -15.548  0.00  0.00    +0.250 C 
ATOM     22  H   UNL     1      35.339 -23.621 -14.846  0.00  0.00    +0.155 HD
BRANCH  20  23
ATOM     23  C   UNL     1      36.775 -24.572 -13.729  0.00  0.00    +0.051 C 
ATOM     24  C   UNL     1      37.115 -24.078 -12.481  0.00  0.00    +0.015 C 
ATOM     25  C   UNL     1      36.874 -25.920 -14.025  0.00  0.00    +0.015 C 
ATOM     26  C   UNL     1      37.569 -24.960 -11.500  0.00  0.00    +0.001 C 
ATOM     27  C   UNL     1      37.328 -26.802 -13.045  0.00  0.00    +0.001 C 
ATOM     28  C   UNL     1      37.675 -26.322 -11.782  0.00  0.00    +0.000 C 
ENDBRANCH  20  23
ENDBRANCH  18  21
ENDBRANCH   6  17
TORSDOF 5
ENDMDL
