MODEL 1
REMARK VINA RESULT:     -11.9      0.000      0.000
REMARK  Name = 93184
REMARK  8 active torsions:
REMARK  status: ('A' for Active; 'I' for Inactive)
REMARK    1  A    between atoms: C_1  and  C_2
REMARK    2  A    between atoms: C_1  and  C_10
REMARK    3  A    between atoms: C_1  and  C_27
REMARK    4  A    between atoms: N_9  and  CA_18
REMARK    5  A    between atoms: CA_17  and  C_23
REMARK    6  A    between atoms: C_23  and  O_24
REMARK    7  A    between atoms: C_27  and  O_28
REMARK    8  A    between atoms: O_28  and  C_35
REMARK                            x       y       z     vdW  Elec       q    Type
REMARK                         _______ _______ _______ _____ _____    ______ ____
ROOT
ATOM      1  C   UNL     1      32.428 -23.387 -16.464  0.00  0.00    +0.198 C 
ENDROOT
BRANCH   1   2
ATOM      2  C   UNL     1      31.011 -23.520 -15.933  0.00  0.00    -0.003 C 
ATOM      3  C   UNL     1      30.654 -24.672 -15.260  0.00  0.00    -0.003 C 
ATOM      4  C   UNL     1      30.118 -22.486 -16.139  0.00  0.00    -0.003 C 
ATOM      5  C   UNL     1      29.352 -24.796 -14.773  0.00  0.00    -0.000 C 
ATOM      6  C   UNL     1      28.817 -22.609 -15.652  0.00  0.00    -0.000 C 
ATOM      7  C   UNL     1      28.433 -23.764 -14.969  0.00  0.00    -0.000 C 
ENDBRANCH   1   2
BRANCH   1  10
ATOM      8  O   UNL     1      32.953 -22.688 -14.202  0.00  0.00    -0.274 OA
ATOM      9  N   UNL     1      34.716 -23.045 -15.666  0.00  0.00    -0.296 N 
ATOM     10  C   UNL     1      33.365 -22.997 -15.319  0.00  0.00    +0.237 C 
ATOM     11  H   UNL     1      34.957 -23.303 -16.585  0.00  0.00    +0.150 HD
BRANCH   9  18
ATOM     12  S   UNL     1      35.461 -25.469 -13.934  0.00  0.00    -0.118 S 
ATOM     13  O   UNL     1      37.824 -22.569 -16.264  0.00  0.00    -0.273 OA
ATOM     14  N   UNL     1      37.478 -23.887 -14.337  0.00  0.00    -0.260 N 
ATOM     15  C   UNL     1      36.168 -23.799 -13.685  0.00  0.00    +0.151 C 
ATOM     16  C   UNL     1      37.158 -26.237 -13.883  0.00  0.00    +0.068 C 
ATOM     17  CA  UNL     1      38.052 -25.194 -14.589  0.00  0.00    +0.184 C 
ATOM     18  CA  UNL     1      35.796 -22.729 -14.721  0.00  0.00    +0.178 C 
ATOM     19  C   UNL     1      37.212 -22.948 -15.291  0.00  0.00    +0.247 C 
ATOM     20  C   UNL     1      37.517 -26.491 -12.412  0.00  0.00    +0.013 C 
ATOM     21  C   UNL     1      37.129 -27.558 -14.652  0.00  0.00    +0.013 C 
BRANCH  17  23
ATOM     22  OXT UNL     1      39.848 -24.672 -13.064  0.00  0.00    -0.248 OA
ATOM     23  C   UNL     1      39.472 -25.150 -14.124  0.00  0.00    +0.333 C 
BRANCH  23  24
ATOM     24  O   UNL     1      40.295 -25.711 -15.043  0.00  0.00    -0.479 OA
ATOM     25  H   UNL     1      39.934 -26.149 -15.789  0.00  0.00    +0.295 HD
ENDBRANCH  23  24
ENDBRANCH  17  23
ENDBRANCH   9  18
ENDBRANCH   1  10
BRANCH   1  27
ATOM     26  O   UNL     1      31.904 -21.389 -17.761  0.00  0.00    -0.249 OA
ATOM     27  C   UNL     1      32.512 -22.447 -17.659  0.00  0.00    +0.334 C 
BRANCH  27  28
ATOM     28  O   UNL     1      33.422 -22.963 -18.582  0.00  0.00    -0.424 OA
BRANCH  28  35
ATOM     29  C   UNL     1      35.861 -18.679 -21.925  0.00  0.00    +0.009 C 
ATOM     30  C   UNL     1      34.432 -19.066 -21.516  0.00  0.00    +0.026 C 
ATOM     31  C   UNL     1      36.764 -18.978 -20.719  0.00  0.00    +0.026 C 
ATOM     32  C   UNL     1      34.700 -20.159 -20.530  0.00  0.00    -0.023 C 
ATOM     33  C   UNL     1      36.024 -20.109 -20.078  0.00  0.00    -0.026 C 
ATOM     34  C   UNL     1      33.813 -21.102 -20.038  0.00  0.00    +0.033 C 
ATOM     35  C   UNL     1      34.276 -22.013 -19.086  0.00  0.00    +0.148 C 
ATOM     36  C   UNL     1      36.487 -21.000 -19.124  0.00  0.00    -0.001 C 
ATOM     37  C   UNL     1      35.603 -21.962 -18.632  0.00  0.00    +0.037 C 
ENDBRANCH  28  35
ENDBRANCH  27  28
ENDBRANCH   1  27
TORSDOF 8
ENDMDL
MODEL 2
REMARK VINA RESULT:     -11.0      1.888      2.552
REMARK  Name = 93184
REMARK  8 active torsions:
REMARK  status: ('A' for Active; 'I' for Inactive)
REMARK    1  A    between atoms: C_1  and  C_2
REMARK    2  A    between atoms: C_1  and  C_10
REMARK    3  A    between atoms: C_1  and  C_27
REMARK    4  A    between atoms: N_9  and  CA_18
REMARK    5  A    between atoms: CA_17  and  C_23
REMARK    6  A    between atoms: C_23  and  O_24
REMARK    7  A    between atoms: C_27  and  O_28
REMARK    8  A    between atoms: O_28  and  C_35
REMARK                            x       y       z     vdW  Elec       q    Type
REMARK                         _______ _______ _______ _____ _____    ______ ____
ROOT
ATOM      1  C   UNL     1      31.451 -23.978 -15.819  0.00  0.00    +0.198 C 
ENDROOT
BRANCH   1   2
ATOM      2  C   UNL     1      30.029 -23.473 -15.637  0.00  0.00    -0.003 C 
ATOM      3  C   UNL     1      29.758 -22.597 -14.604  0.00  0.00    -0.003 C 
ATOM      4  C   UNL     1      29.048 -23.904 -16.509  0.00  0.00    -0.003 C 
ATOM      5  C   UNL     1      28.452 -22.134 -14.436  0.00  0.00    -0.000 C 
ATOM      6  C   UNL     1      27.744 -23.441 -16.341  0.00  0.00    -0.000 C 
ATOM      7  C   UNL     1      27.445 -22.556 -15.305  0.00  0.00    -0.000 C 
ENDBRANCH   1   2
BRANCH   1  10
ATOM      8  O   UNL     1      31.154 -25.147 -13.716  0.00  0.00    -0.274 OA
ATOM      9  N   UNL     1      33.314 -24.600 -14.359  0.00  0.00    -0.296 N 
ATOM     10  C   UNL     1      31.928 -24.632 -14.521  0.00  0.00    +0.237 C 
ATOM     11  H   UNL     1      33.859 -24.166 -15.055  0.00  0.00    +0.150 HD
BRANCH   9  18
ATOM     12  S   UNL     1      36.287 -25.118 -14.925  0.00  0.00    -0.118 S 
ATOM     13  O   UNL     1      34.125 -23.196 -11.600  0.00  0.00    -0.273 OA
ATOM     14  N   UNL     1      35.834 -24.600 -12.423  0.00  0.00    -0.260 N 
ATOM     15  C   UNL     1      35.450 -25.640 -13.383  0.00  0.00    +0.151 C 
ATOM     16  C   UNL     1      37.685 -24.358 -13.955  0.00  0.00    +0.068 C 
ATOM     17  CA  UNL     1      36.987 -23.770 -12.709  0.00  0.00    +0.184 C 
ATOM     18  CA  UNL     1      33.997 -25.185 -13.197  0.00  0.00    +0.178 C 
ATOM     19  C   UNL     1      34.566 -24.141 -12.214  0.00  0.00    +0.247 C 
ATOM     20  C   UNL     1      38.704 -25.465 -13.650  0.00  0.00    +0.013 C 
ATOM     21  C   UNL     1      38.337 -23.262 -14.799  0.00  0.00    +0.013 C 
BRANCH  17  23
ATOM     22  OXT UNL     1      38.681 -22.895 -11.228  0.00  0.00    -0.248 OA
ATOM     23  C   UNL     1      37.821 -23.729 -11.469  0.00  0.00    +0.333 C 
BRANCH  23  24
ATOM     24  O   UNL     1      37.496 -24.751 -10.640  0.00  0.00    -0.479 OA
ATOM     25  H   UNL     1      37.401 -24.597  -9.721  0.00  0.00    +0.295 HD
ENDBRANCH  23  24
ENDBRANCH  17  23
ENDBRANCH   9  18
ENDBRANCH   1  10
BRANCH   1  27
ATOM     26  O   UNL     1      33.133 -22.222 -15.622  0.00  0.00    -0.249 OA
ATOM     27  C   UNL     1      32.389 -22.892 -16.328  0.00  0.00    +0.334 C 
BRANCH  27  28
ATOM     28  O   UNL     1      32.296 -22.823 -17.718  0.00  0.00    -0.424 OA
BRANCH  28  35
ATOM     29  C   UNL     1      35.695 -19.519 -21.326  0.00  0.00    +0.009 C 
ATOM     30  C   UNL     1      34.244 -19.452 -20.825  0.00  0.00    +0.026 C 
ATOM     31  C   UNL     1      36.540 -20.061 -20.163  0.00  0.00    +0.026 C 
ATOM     32  C   UNL     1      34.233 -20.562 -19.821  0.00  0.00    -0.023 C 
ATOM     33  C   UNL     1      35.537 -20.907 -19.446  0.00  0.00    -0.026 C 
ATOM     34  C   UNL     1      33.136 -21.186 -19.252  0.00  0.00    +0.033 C 
ATOM     35  C   UNL     1      33.362 -22.182 -18.299  0.00  0.00    +0.148 C 
ATOM     36  C   UNL     1      35.769 -21.884 -18.493  0.00  0.00    -0.001 C 
ATOM     37  C   UNL     1      34.670 -22.528 -17.922  0.00  0.00    +0.037 C 
ENDBRANCH  28  35
ENDBRANCH  27  28
ENDBRANCH   1  27
TORSDOF 8
ENDMDL
MODEL 3
REMARK VINA RESULT:     -10.4      2.061      6.476
REMARK  Name = 93184
REMARK  8 active torsions:
REMARK  status: ('A' for Active; 'I' for Inactive)
REMARK    1  A    between atoms: C_1  and  C_2
REMARK    2  A    between atoms: C_1  and  C_10
REMARK    3  A    between atoms: C_1  and  C_27
REMARK    4  A    between atoms: N_9  and  CA_18
REMARK    5  A    between atoms: CA_17  and  C_23
REMARK    6  A    between atoms: C_23  and  O_24
REMARK    7  A    between atoms: C_27  and  O_28
REMARK    8  A    between atoms: O_28  and  C_35
REMARK                            x       y       z     vdW  Elec       q    Type
REMARK                         _______ _______ _______ _____ _____    ______ ____
ROOT
ATOM      1  C   UNL     1      36.330 -22.730 -15.158  0.00  0.00    +0.198 C 
ENDROOT
BRANCH   1   2
ATOM      2  C   UNL     1      37.369 -23.516 -14.378  0.00  0.00    -0.003 C 
ATOM      3  C   UNL     1      38.414 -24.107 -15.061  0.00  0.00    -0.003 C 
ATOM      4  C   UNL     1      37.241 -23.619 -13.006  0.00  0.00    -0.003 C 
ATOM      5  C   UNL     1      39.368 -24.830 -14.345  0.00  0.00    -0.000 C 
ATOM      6  C   UNL     1      38.194 -24.341 -12.290  0.00  0.00    -0.000 C 
ATOM      7  C   UNL     1      39.258 -24.947 -12.959  0.00  0.00    -0.000 C 
ENDBRANCH   1   2
BRANCH   1  10
ATOM      8  O   UNL     1      35.334 -24.899 -15.582  0.00  0.00    -0.274 OA
ATOM      9  N   UNL     1      34.085 -23.013 -16.090  0.00  0.00    -0.296 N 
ATOM     10  C   UNL     1      35.223 -23.675 -15.628  0.00  0.00    +0.237 C 
ATOM     11  H   UNL     1      34.082 -22.029 -16.092  0.00  0.00    +0.150 HD
BRANCH   9  18
ATOM     12  S   UNL     1      32.442 -24.189 -13.778  0.00  0.00    -0.118 S 
ATOM     13  O   UNL     1      31.398 -21.787 -17.322  0.00  0.00    -0.273 OA
ATOM     14  N   UNL     1      30.965 -23.549 -15.812  0.00  0.00    -0.260 N 
ATOM     15  C   UNL     1      32.056 -24.490 -15.542  0.00  0.00    +0.151 C 
ATOM     16  C   UNL     1      30.667 -23.747 -13.425  0.00  0.00    +0.068 C 
ATOM     17  CA  UNL     1      30.216 -23.000 -14.699  0.00  0.00    +0.184 C 
ATOM     18  CA  UNL     1      32.890 -23.719 -16.573  0.00  0.00    +0.178 C 
ATOM     19  C   UNL     1      31.651 -22.815 -16.736  0.00  0.00    +0.247 C 
ATOM     20  C   UNL     1      29.903 -25.049 -13.146  0.00  0.00    +0.013 C 
ATOM     21  C   UNL     1      30.617 -22.836 -12.197  0.00  0.00    +0.013 C 
BRANCH  17  23
ATOM     22  OXT UNL     1      28.256 -24.092 -15.590  0.00  0.00    -0.248 OA
ATOM     23  C   UNL     1      28.765 -23.129 -15.036  0.00  0.00    +0.333 C 
BRANCH  23  24
ATOM     24  O   UNL     1      28.083 -22.025 -14.646  0.00  0.00    -0.479 OA
ATOM     25  H   UNL     1      28.084 -21.768 -13.744  0.00  0.00    +0.295 HD
ENDBRANCH  23  24
ENDBRANCH  17  23
ENDBRANCH   9  18
ENDBRANCH   1  10
BRANCH   1  27
ATOM     26  O   UNL     1      37.602 -20.891 -16.136  0.00  0.00    -0.249 OA
ATOM     27  C   UNL     1      36.949 -21.916 -16.288  0.00  0.00    +0.334 C 
BRANCH  27  28
ATOM     28  O   UNL     1      36.690 -22.553 -17.502  0.00  0.00    -0.424 OA
BRANCH  28  35
ATOM     29  C   UNL     1      35.984 -18.087 -21.381  0.00  0.00    +0.009 C 
ATOM     30  C   UNL     1      37.174 -18.911 -20.867  0.00  0.00    +0.026 C 
ATOM     31  C   UNL     1      34.785 -19.044 -21.462  0.00  0.00    +0.026 C 
ATOM     32  C   UNL     1      36.475 -19.943 -20.038  0.00  0.00    -0.023 C 
ATOM     33  C   UNL     1      35.118 -20.018 -20.377  0.00  0.00    -0.026 C 
ATOM     34  C   UNL     1      37.021 -20.785 -19.084  0.00  0.00    +0.033 C 
ATOM     35  C   UNL     1      36.180 -21.706 -18.456  0.00  0.00    +0.148 C 
ATOM     36  C   UNL     1      34.281 -20.937 -19.768  0.00  0.00    -0.001 C 
ATOM     37  C   UNL     1      34.820 -21.782 -18.796  0.00  0.00    +0.037 C 
ENDBRANCH  28  35
ENDBRANCH  27  28
ENDBRANCH   1  27
TORSDOF 8
ENDMDL
MODEL 4
REMARK VINA RESULT:     -10.3      1.365      5.218
REMARK  Name = 93184
REMARK  8 active torsions:
REMARK  status: ('A' for Active; 'I' for Inactive)
REMARK    1  A    between atoms: C_1  and  C_2
REMARK    2  A    between atoms: C_1  and  C_10
REMARK    3  A    between atoms: C_1  and  C_27
REMARK    4  A    between atoms: N_9  and  CA_18
REMARK    5  A    between atoms: CA_17  and  C_23
REMARK    6  A    between atoms: C_23  and  O_24
REMARK    7  A    between atoms: C_27  and  O_28
REMARK    8  A    between atoms: O_28  and  C_35
REMARK                            x       y       z     vdW  Elec       q    Type
REMARK                         _______ _______ _______ _____ _____    ______ ____
ROOT
ATOM      1  C   UNL     1      34.257 -22.180 -17.408  0.00  0.00    +0.198 C 
ENDROOT
BRANCH   1   2
ATOM      2  C   UNL     1      34.226 -21.421 -18.724  0.00  0.00    -0.003 C 
ATOM      3  C   UNL     1      35.416 -21.174 -19.382  0.00  0.00    -0.003 C 
ATOM      4  C   UNL     1      33.011 -21.000 -19.226  0.00  0.00    -0.003 C 
ATOM      5  C   UNL     1      35.388 -20.476 -20.590  0.00  0.00    -0.000 C 
ATOM      6  C   UNL     1      32.983 -20.302 -20.434  0.00  0.00    -0.000 C 
ATOM      7  C   UNL     1      34.171 -20.040 -21.116  0.00  0.00    -0.000 C 
ENDBRANCH   1   2
BRANCH   1  10
ATOM      8  O   UNL     1      36.575 -21.474 -17.327  0.00  0.00    -0.274 OA
ATOM      9  N   UNL     1      35.678 -22.474 -15.437  0.00  0.00    -0.296 N 
ATOM     10  C   UNL     1      35.626 -22.001 -16.749  0.00  0.00    +0.237 C 
ATOM     11  H   UNL     1      34.869 -22.883 -15.052  0.00  0.00    +0.150 HD
BRANCH   9  18
ATOM     12  S   UNL     1      35.882 -24.833 -13.482  0.00  0.00    -0.118 S 
ATOM     13  O   UNL     1      38.727 -22.960 -16.278  0.00  0.00    -0.273 OA
ATOM     14  N   UNL     1      38.210 -23.936 -14.192  0.00  0.00    -0.260 N 
ATOM     15  C   UNL     1      37.041 -23.417 -13.475  0.00  0.00    +0.151 C 
ATOM     16  C   UNL     1      37.298 -26.043 -13.447  0.00  0.00    +0.068 C 
ATOM     17  CA  UNL     1      38.375 -25.369 -14.324  0.00  0.00    +0.184 C 
ATOM     18  CA  UNL     1      36.885 -22.390 -14.604  0.00  0.00    +0.178 C 
ATOM     19  C   UNL     1      38.127 -23.055 -15.231  0.00  0.00    +0.247 C 
ATOM     20  C   UNL     1      37.707 -26.248 -11.981  0.00  0.00    +0.013 C 
ATOM     21  C   UNL     1      36.834 -27.369 -14.053  0.00  0.00    +0.013 C 
BRANCH  17  23
ATOM     22  OXT UNL     1      40.579 -24.897 -13.460  0.00  0.00    -0.248 OA
ATOM     23  C   UNL     1      39.789 -25.687 -13.956  0.00  0.00    +0.333 C 
BRANCH  23  24
ATOM     24  O   UNL     1      40.083 -26.977 -14.251  0.00  0.00    -0.479 OA
ATOM     25  H   UNL     1      40.908 -27.340 -13.995  0.00  0.00    +0.295 HD
ENDBRANCH  23  24
ENDBRANCH  17  23
ENDBRANCH   9  18
ENDBRANCH   1  10
BRANCH   1  27
ATOM     26  O   UNL     1      33.842 -24.247 -18.636  0.00  0.00    -0.249 OA
ATOM     27  C   UNL     1      33.853 -23.640 -17.573  0.00  0.00    +0.334 C 
BRANCH  27  28
ATOM     28  O   UNL     1      33.550 -24.173 -16.320  0.00  0.00    -0.424 OA
BRANCH  28  35
ATOM     29  C   UNL     1      27.893 -22.421 -15.671  0.00  0.00    +0.009 C 
ATOM     30  C   UNL     1      28.617 -23.498 -16.493  0.00  0.00    +0.026 C 
ATOM     31  C   UNL     1      28.629 -22.322 -14.326  0.00  0.00    +0.026 C 
ATOM     32  C   UNL     1      30.009 -23.386 -15.955  0.00  0.00    -0.023 C 
ATOM     33  C   UNL     1      30.015 -22.718 -14.725  0.00  0.00    -0.026 C 
ATOM     34  C   UNL     1      31.179 -23.885 -16.503  0.00  0.00    +0.033 C 
ATOM     35  C   UNL     1      32.371 -23.694 -15.802  0.00  0.00    +0.148 C 
ATOM     36  C   UNL     1      31.191 -22.536 -14.017  0.00  0.00    -0.001 C 
ATOM     37  C   UNL     1      32.377 -23.025 -14.567  0.00  0.00    +0.037 C 
ENDBRANCH  28  35
ENDBRANCH  27  28
ENDBRANCH   1  27
TORSDOF 8
ENDMDL
MODEL 5
REMARK VINA RESULT:     -10.1      9.401     13.632
REMARK  Name = 93184
REMARK  8 active torsions:
REMARK  status: ('A' for Active; 'I' for Inactive)
REMARK    1  A    between atoms: C_1  and  C_2
REMARK    2  A    between atoms: C_1  and  C_10
REMARK    3  A    between atoms: C_1  and  C_27
REMARK    4  A    between atoms: N_9  and  CA_18
REMARK    5  A    between atoms: CA_17  and  C_23
REMARK    6  A    between atoms: C_23  and  O_24
REMARK    7  A    between atoms: C_27  and  O_28
REMARK    8  A    between atoms: O_28  and  C_35
REMARK                            x       y       z     vdW  Elec       q    Type
REMARK                         _______ _______ _______ _____ _____    ______ ____
ROOT
ATOM      1  C   UNL     1      34.224 -13.458 -23.508  0.00  0.00    +0.198 C 
ENDROOT
BRANCH   1   2
ATOM      2  C   UNL     1      33.791 -13.840 -22.103  0.00  0.00    -0.003 C 
ATOM      3  C   UNL     1      34.748 -14.260 -21.199  0.00  0.00    -0.003 C 
ATOM      4  C   UNL     1      32.453 -13.759 -21.768  0.00  0.00    -0.003 C 
ATOM      5  C   UNL     1      34.351 -14.612 -19.909  0.00  0.00    -0.000 C 
ATOM      6  C   UNL     1      32.056 -14.111 -20.479  0.00  0.00    -0.000 C 
ATOM      7  C   UNL     1      33.005 -14.538 -19.549  0.00  0.00    -0.000 C 
ENDBRANCH   1   2
BRANCH   1  10
ATOM      8  O   UNL     1      34.620 -11.270 -24.476  0.00  0.00    -0.274 OA
ATOM      9  N   UNL     1      32.789 -11.523 -23.075  0.00  0.00    -0.296 N 
ATOM     10  C   UNL     1      33.925 -11.977 -23.747  0.00  0.00    +0.237 C 
ATOM     11  H   UNL     1      32.291 -12.158 -22.512  0.00  0.00    +0.150 HD
BRANCH   9  18
ATOM     12  S   UNL     1      31.372 -10.630 -20.502  0.00  0.00    -0.118 S 
ATOM     13  O   UNL     1      34.473  -8.802 -23.044  0.00  0.00    -0.273 OA
ATOM     14  N   UNL     1      32.514  -8.654 -21.736  0.00  0.00    -0.260 N 
ATOM     15  C   UNL     1      31.438  -9.609 -22.020  0.00  0.00    +0.151 C 
ATOM     16  C   UNL     1      31.910  -9.183 -19.459  0.00  0.00    +0.068 C 
ATOM     17  CA  UNL     1      32.918  -8.438 -20.362  0.00  0.00    +0.184 C 
ATOM     18  CA  UNL     1      32.302 -10.140 -23.173  0.00  0.00    +0.178 C 
ATOM     19  C   UNL     1      33.335  -9.080 -22.740  0.00  0.00    +0.247 C 
ATOM     20  C   UNL     1      30.659  -8.371 -19.097  0.00  0.00    +0.013 C 
ATOM     21  C   UNL     1      32.581  -9.708 -18.189  0.00  0.00    +0.013 C 
BRANCH  17  23
ATOM     22  OXT UNL     1      32.489  -6.120 -20.881  0.00  0.00    -0.248 OA
ATOM     23  C   UNL     1      32.993  -6.960 -20.150  0.00  0.00    +0.333 C 
BRANCH  23  24
ATOM     24  O   UNL     1      33.704  -6.671 -19.033  0.00  0.00    -0.479 OA
ATOM     25  H   UNL     1      33.442  -5.961 -18.481  0.00  0.00    +0.295 HD
ENDBRANCH  23  24
ENDBRANCH  17  23
ENDBRANCH   9  18
ENDBRANCH   1  10
BRANCH   1  27
ATOM     26  O   UNL     1      32.470 -14.310 -24.975  0.00  0.00    -0.249 OA
ATOM     27  C   UNL     1      33.623 -14.373 -24.568  0.00  0.00    +0.334 C 
BRANCH  27  28
ATOM     28  O   UNL     1      34.608 -15.250 -25.023  0.00  0.00    -0.424 OA
BRANCH  28  35
ATOM     29  C   UNL     1      35.988 -19.505 -21.089  0.00  0.00    +0.009 C 
ATOM     30  C   UNL     1      35.937 -17.970 -21.067  0.00  0.00    +0.026 C 
ATOM     31  C   UNL     1      34.828 -19.974 -21.980  0.00  0.00    +0.026 C 
ATOM     32  C   UNL     1      35.332 -17.682 -22.405  0.00  0.00    -0.023 C 
ATOM     33  C   UNL     1      34.703 -18.820 -22.923  0.00  0.00    -0.026 C 
ATOM     34  C   UNL     1      35.308 -16.478 -23.089  0.00  0.00    +0.033 C 
ATOM     35  C   UNL     1      34.647 -16.429 -24.318  0.00  0.00    +0.148 C 
ATOM     36  C   UNL     1      34.035 -18.776 -24.135  0.00  0.00    -0.001 C 
ATOM     37  C   UNL     1      34.015 -17.570 -24.837  0.00  0.00    +0.037 C 
ENDBRANCH  28  35
ENDBRANCH  27  28
ENDBRANCH   1  27
TORSDOF 8
ENDMDL
MODEL 6
REMARK VINA RESULT:     -10.1      8.986     13.615
REMARK  Name = 93184
REMARK  8 active torsions:
REMARK  status: ('A' for Active; 'I' for Inactive)
REMARK    1  A    between atoms: C_1  and  C_2
REMARK    2  A    between atoms: C_1  and  C_10
REMARK    3  A    between atoms: C_1  and  C_27
REMARK    4  A    between atoms: N_9  and  CA_18
REMARK    5  A    between atoms: CA_17  and  C_23
REMARK    6  A    between atoms: C_23  and  O_24
REMARK    7  A    between atoms: C_27  and  O_28
REMARK    8  A    between atoms: O_28  and  C_35
REMARK                            x       y       z     vdW  Elec       q    Type
REMARK                         _______ _______ _______ _____ _____    ______ ____
ROOT
ATOM      1  C   UNL     1      34.517 -14.386 -23.175  0.00  0.00    +0.198 C 
ENDROOT
BRANCH   1   2
ATOM      2  C   UNL     1      33.781 -14.356 -21.847  0.00  0.00    -0.003 C 
ATOM      3  C   UNL     1      34.374 -14.931 -20.740  0.00  0.00    -0.003 C 
ATOM      4  C   UNL     1      32.538 -13.756 -21.783  0.00  0.00    -0.003 C 
ATOM      5  C   UNL     1      33.697 -14.904 -19.520  0.00  0.00    -0.000 C 
ATOM      6  C   UNL     1      31.861 -13.730 -20.564  0.00  0.00    -0.000 C 
ATOM      7  C   UNL     1      32.441 -14.304 -19.432  0.00  0.00    -0.000 C 
ENDBRANCH   1   2
BRANCH   1  10
ATOM      8  O   UNL     1      33.327 -13.407 -25.047  0.00  0.00    -0.274 OA
ATOM      9  N   UNL     1      34.446 -11.977 -23.605  0.00  0.00    -0.296 N 
ATOM     10  C   UNL     1      34.030 -13.232 -24.053  0.00  0.00    +0.237 C 
ATOM     11  H   UNL     1      35.009 -11.929 -22.799  0.00  0.00    +0.150 HD
BRANCH   9  18
ATOM     12  S   UNL     1      32.014 -10.639 -22.294  0.00  0.00    -0.118 S 
ATOM     13  O   UNL     1      35.969  -9.163 -23.559  0.00  0.00    -0.273 OA
ATOM     14  N   UNL     1      33.629  -8.916 -23.367  0.00  0.00    -0.260 N 
ATOM     15  C   UNL     1      32.792 -10.025 -23.833  0.00  0.00    +0.151 C 
ATOM     16  C   UNL     1      32.031  -8.928 -21.557  0.00  0.00    +0.068 C 
ATOM     17  CA  UNL     1      33.354  -8.322 -22.074  0.00  0.00    +0.184 C 
ATOM     18  CA  UNL     1      34.082 -10.725 -24.281  0.00  0.00    +0.178 C 
ATOM     19  C   UNL     1      34.815  -9.482 -23.736  0.00  0.00    +0.247 C 
ATOM     20  C   UNL     1      30.768  -8.197 -22.032  0.00  0.00    +0.013 C 
ATOM     21  C   UNL     1      32.029  -9.044 -20.032  0.00  0.00    +0.013 C 
BRANCH  17  23
ATOM     22  OXT UNL     1      33.217  -6.018 -21.365  0.00  0.00    -0.248 OA
ATOM     23  C   UNL     1      33.347  -6.838 -22.261  0.00  0.00    +0.333 C 
BRANCH  23  24
ATOM     24  O   UNL     1      33.503  -6.521 -23.570  0.00  0.00    -0.479 OA
ATOM     25  H   UNL     1      34.053  -5.803 -23.816  0.00  0.00    +0.295 HD
ENDBRANCH  23  24
ENDBRANCH  17  23
ENDBRANCH   9  18
ENDBRANCH   1  10
BRANCH   1  27
ATOM     26  O   UNL     1      33.473 -16.129 -24.525  0.00  0.00    -0.249 OA
ATOM     27  C   UNL     1      34.425 -15.744 -23.858  0.00  0.00    +0.334 C 
BRANCH  27  28
ATOM     28  O   UNL     1      35.611 -16.446 -23.639  0.00  0.00    -0.424 OA
BRANCH  28  35
ATOM     29  C   UNL     1      36.465 -20.824 -19.691  0.00  0.00    +0.009 C 
ATOM     30  C   UNL     1      36.906 -19.358 -19.810  0.00  0.00    +0.026 C 
ATOM     31  C   UNL     1      35.041 -20.907 -20.262  0.00  0.00    +0.026 C 
ATOM     32  C   UNL     1      36.126 -18.918 -21.010  0.00  0.00    -0.023 C 
ATOM     33  C   UNL     1      35.068 -19.798 -21.266  0.00  0.00    -0.026 C 
ATOM     34  C   UNL     1      36.322 -17.789 -21.787  0.00  0.00    +0.033 C 
ATOM     35  C   UNL     1      35.442 -17.555 -22.846  0.00  0.00    +0.148 C 
ATOM     36  C   UNL     1      34.183 -19.566 -22.305  0.00  0.00    -0.001 C 
ATOM     37  C   UNL     1      34.380 -18.437 -23.103  0.00  0.00    +0.037 C 
ENDBRANCH  28  35
ENDBRANCH  27  28
ENDBRANCH   1  27
TORSDOF 8
ENDMDL
MODEL 7
REMARK VINA RESULT:      -9.7     12.035     16.582
REMARK  Name = 93184
REMARK  8 active torsions:
REMARK  status: ('A' for Active; 'I' for Inactive)
REMARK    1  A    between atoms: C_1  and  C_2
REMARK    2  A    between atoms: C_1  and  C_10
REMARK    3  A    between atoms: C_1  and  C_27
REMARK    4  A    between atoms: N_9  and  CA_18
REMARK    5  A    between atoms: CA_17  and  C_23
REMARK    6  A    between atoms: C_23  and  O_24
REMARK    7  A    between atoms: C_27  and  O_28
REMARK    8  A    between atoms: O_28  and  C_35
REMARK                            x       y       z     vdW  Elec       q    Type
REMARK                         _______ _______ _______ _____ _____    ______ ____
ROOT
ATOM      1  C   UNL     1      32.626 -10.587 -22.130  0.00  0.00    +0.198 C 
ENDROOT
BRANCH   1   2
ATOM      2  C   UNL     1      32.264 -10.405 -20.666  0.00  0.00    -0.003 C 
ATOM      3  C   UNL     1      32.107 -11.524 -19.871  0.00  0.00    -0.003 C 
ATOM      4  C   UNL     1      32.102  -9.126 -20.170  0.00  0.00    -0.003 C 
ATOM      5  C   UNL     1      31.773 -11.357 -18.527  0.00  0.00    -0.000 C 
ATOM      6  C   UNL     1      31.768  -8.959 -18.826  0.00  0.00    -0.000 C 
ATOM      7  C   UNL     1      31.604 -10.074 -18.004  0.00  0.00    -0.000 C 
ENDBRANCH   1   2
BRANCH   1  10
ATOM      8  O   UNL     1      30.472  -9.913 -23.016  0.00  0.00    -0.274 OA
ATOM      9  N   UNL     1      32.352  -8.759 -23.734  0.00  0.00    -0.296 N 
ATOM     10  C   UNL     1      31.690  -9.742 -22.995  0.00  0.00    +0.237 C 
ATOM     11  H   UNL     1      33.330  -8.692 -23.657  0.00  0.00    +0.150 HD
BRANCH   9  18
ATOM     12  S   UNL     1      31.041  -6.470 -22.161  0.00  0.00    -0.118 S 
ATOM     13  O   UNL     1      33.595  -6.607 -25.750  0.00  0.00    -0.273 OA
ATOM     14  N   UNL     1      31.757  -5.745 -24.547  0.00  0.00    -0.260 N 
ATOM     15  C   UNL     1      30.820  -6.709 -23.962  0.00  0.00    +0.151 C 
ATOM     16  C   UNL     1      31.439  -4.668 -22.410  0.00  0.00    +0.068 C 
ATOM     17  CA  UNL     1      32.240  -4.650 -23.730  0.00  0.00    +0.184 C 
ATOM     18  CA  UNL     1      31.652  -7.819 -24.620  0.00  0.00    +0.178 C 
ATOM     19  C   UNL     1      32.544  -6.680 -25.155  0.00  0.00    +0.247 C 
ATOM     20  C   UNL     1      30.114  -3.894 -22.458  0.00  0.00    +0.013 C 
ATOM     21  C   UNL     1      32.289  -4.180 -21.236  0.00  0.00    +0.013 C 
BRANCH  17  23
ATOM     22  OXT UNL     1      32.591  -2.318 -24.250  0.00  0.00    -0.248 OA
ATOM     23  C   UNL     1      32.106  -3.401 -24.542  0.00  0.00    +0.333 C 
BRANCH  23  24
ATOM     24  O   UNL     1      31.365  -3.630 -25.654  0.00  0.00    -0.479 OA
ATOM     25  H   UNL     1      31.724  -3.452 -26.501  0.00  0.00    +0.295 HD
ENDBRANCH  23  24
ENDBRANCH  17  23
ENDBRANCH   9  18
ENDBRANCH   1  10
BRANCH   1  27
ATOM     26  O   UNL     1      31.682 -12.779 -22.636  0.00  0.00    -0.249 OA
ATOM     27  C   UNL     1      32.664 -12.054 -22.538  0.00  0.00    +0.334 C 
BRANCH  27  28
ATOM     28  O   UNL     1      33.981 -12.414 -22.824  0.00  0.00    -0.424 OA
BRANCH  28  35
ATOM     29  C   UNL     1      35.008 -18.275 -22.543  0.00  0.00    +0.009 C 
ATOM     30  C   UNL     1      35.158 -17.189 -23.618  0.00  0.00    +0.026 C 
ATOM     31  C   UNL     1      35.356 -17.618 -21.198  0.00  0.00    +0.026 C 
ATOM     32  C   UNL     1      34.843 -15.956 -22.830  0.00  0.00    -0.023 C 
ATOM     33  C   UNL     1      34.955 -16.201 -21.457  0.00  0.00    -0.026 C 
ATOM     34  C   UNL     1      34.524 -14.696 -23.308  0.00  0.00    +0.033 C 
ATOM     35  C   UNL     1      34.304 -13.674 -22.383  0.00  0.00    +0.148 C 
ATOM     36  C   UNL     1      34.751 -15.190 -20.533  0.00  0.00    -0.001 C 
ATOM     37  C   UNL     1      34.417 -13.919 -21.005  0.00  0.00    +0.037 C 
ENDBRANCH  28  35
ENDBRANCH  27  28
ENDBRANCH   1  27
TORSDOF 8
ENDMDL
MODEL 8
REMARK VINA RESULT:      -9.1     14.391     19.404
REMARK  Name = 93184
REMARK  8 active torsions:
REMARK  status: ('A' for Active; 'I' for Inactive)
REMARK    1  A    between atoms: C_1  and  C_2
REMARK    2  A    between atoms: C_1  and  C_10
REMARK    3  A    between atoms: C_1  and  C_27
REMARK    4  A    between atoms: N_9  and  CA_18
REMARK    5  A    between atoms: CA_17  and  C_23
REMARK    6  A    between atoms: C_23  and  O_24
REMARK    7  A    between atoms: C_27  and  O_28
REMARK    8  A    between atoms: O_28  and  C_35
REMARK                            x       y       z     vdW  Elec       q    Type
REMARK                         _______ _______ _______ _____ _____    ______ ____
ROOT
ATOM      1  C   UNL     1      32.287  -7.012 -21.606  0.00  0.00    +0.198 C 
ENDROOT
BRANCH   1   2
ATOM      2  C   UNL     1      33.456  -7.603 -22.375  0.00  0.00    -0.003 C 
ATOM      3  C   UNL     1      34.617  -6.864 -22.503  0.00  0.00    -0.003 C 
ATOM      4  C   UNL     1      33.328  -8.863 -22.927  0.00  0.00    -0.003 C 
ATOM      5  C   UNL     1      35.690  -7.406 -23.210  0.00  0.00    -0.000 C 
ATOM      6  C   UNL     1      34.400  -9.406 -23.633  0.00  0.00    -0.000 C 
ATOM      7  C   UNL     1      35.582  -8.677 -23.775  0.00  0.00    -0.000 C 
ENDBRANCH   1   2
BRANCH   1  10
ATOM      8  O   UNL     1      31.853  -4.673 -21.136  0.00  0.00    -0.274 OA
ATOM      9  N   UNL     1      32.367  -5.265 -23.319  0.00  0.00    -0.296 N 
ATOM     10  C   UNL     1      32.136  -5.533 -21.968  0.00  0.00    +0.237 C 
ATOM     11  H   UNL     1      32.588  -6.015 -23.916  0.00  0.00    +0.150 HD
BRANCH   9  18
ATOM     12  S   UNL     1      34.040  -5.016 -25.881  0.00  0.00    -0.118 S 
ATOM     13  O   UNL     1      29.920  -3.857 -24.827  0.00  0.00    -0.273 OA
ATOM     14  N   UNL     1      31.987  -3.430 -25.886  0.00  0.00    -0.260 N 
ATOM     15  C   UNL     1      33.203  -3.597 -25.084  0.00  0.00    +0.151 C 
ATOM     16  C   UNL     1      33.344  -4.543 -27.543  0.00  0.00    +0.068 C 
ATOM     17  CA  UNL     1      31.931  -4.014 -27.210  0.00  0.00    +0.184 C 
ATOM     18  CA  UNL     1      32.294  -3.913 -23.888  0.00  0.00    +0.178 C 
ATOM     19  C   UNL     1      31.121  -3.706 -24.867  0.00  0.00    +0.247 C 
ATOM     20  C   UNL     1      34.283  -3.501 -28.168  0.00  0.00    +0.013 C 
ATOM     21  C   UNL     1      33.279  -5.789 -28.428  0.00  0.00    +0.013 C 
BRANCH  17  23
ATOM     22  OXT UNL     1      31.256  -1.786 -27.845  0.00  0.00    -0.248 OA
ATOM     23  C   UNL     1      31.408  -2.963 -28.136  0.00  0.00    +0.333 C 
BRANCH  23  24
ATOM     24  O   UNL     1      31.120  -3.493 -29.349  0.00  0.00    -0.479 OA
ATOM     25  H   UNL     1      31.221  -2.975 -30.123  0.00  0.00    +0.295 HD
ENDBRANCH  23  24
ENDBRANCH  17  23
ENDBRANCH   9  18
ENDBRANCH   1  10
BRANCH   1  27
ATOM     26  O   UNL     1      33.283  -6.812 -19.388  0.00  0.00    -0.249 OA
ATOM     27  C   UNL     1      32.397  -7.258 -20.107  0.00  0.00    +0.334 C 
BRANCH  27  28
ATOM     28  O   UNL     1      31.309  -8.025 -19.690  0.00  0.00    -0.424 OA
BRANCH  28  35
ATOM     29  C   UNL     1      31.961 -13.805 -20.974  0.00  0.00    +0.009 C 
ATOM     30  C   UNL     1      32.062 -12.491 -21.763  0.00  0.00    +0.026 C 
ATOM     31  C   UNL     1      32.504 -13.518 -19.566  0.00  0.00    +0.026 C 
ATOM     32  C   UNL     1      31.923 -11.483 -20.666  0.00  0.00    -0.023 C 
ATOM     33  C   UNL     1      32.174 -12.067 -19.419  0.00  0.00    -0.026 C 
ATOM     34  C   UNL     1      31.637 -10.133 -20.779  0.00  0.00    +0.033 C 
ATOM     35  C   UNL     1      31.594  -9.366 -19.613  0.00  0.00    +0.148 C 
ATOM     36  C   UNL     1      32.146 -11.311 -18.259  0.00  0.00    -0.001 C 
ATOM     37  C   UNL     1      31.847  -9.951 -18.362  0.00  0.00    +0.037 C 
ENDBRANCH  28  35
ENDBRANCH  27  28
ENDBRANCH   1  27
TORSDOF 8
ENDMDL
MODEL 9
REMARK VINA RESULT:      -8.9      1.533      2.551
REMARK  Name = 93184
REMARK  8 active torsions:
REMARK  status: ('A' for Active; 'I' for Inactive)
REMARK    1  A    between atoms: C_1  and  C_2
REMARK    2  A    between atoms: C_1  and  C_10
REMARK    3  A    between atoms: C_1  and  C_27
REMARK    4  A    between atoms: N_9  and  CA_18
REMARK    5  A    between atoms: CA_17  and  C_23
REMARK    6  A    between atoms: C_23  and  O_24
REMARK    7  A    between atoms: C_27  and  O_28
REMARK    8  A    between atoms: O_28  and  C_35
REMARK                            x       y       z     vdW  Elec       q    Type
REMARK                         _______ _______ _______ _____ _____    ______ ____
ROOT
ATOM      1  C   UNL     1      34.502 -22.433 -18.152  0.00  0.00    +0.198 C 
ENDROOT
BRANCH   1   2
ATOM      2  C   UNL     1      33.280 -22.739 -17.302  0.00  0.00    -0.003 C 
ATOM      3  C   UNL     1      32.088 -22.103 -17.591  0.00  0.00    -0.003 C 
ATOM      4  C   UNL     1      33.394 -23.644 -16.265  0.00  0.00    -0.003 C 
ATOM      5  C   UNL     1      30.966 -22.383 -16.810  0.00  0.00    -0.000 C 
ATOM      6  C   UNL     1      32.273 -23.924 -15.485  0.00  0.00    -0.000 C 
ATOM      7  C   UNL     1      31.058 -23.293 -15.757  0.00  0.00    -0.000 C 
ENDBRANCH   1   2
BRANCH   1  10
ATOM      8  O   UNL     1      36.532 -21.249 -17.559  0.00  0.00    -0.274 OA
ATOM      9  N   UNL     1      35.668 -22.758 -16.025  0.00  0.00    -0.296 N 
ATOM     10  C   UNL     1      35.677 -22.074 -17.242  0.00  0.00    +0.237 C 
ATOM     11  H   UNL     1      34.944 -23.403 -15.853  0.00  0.00    +0.150 HD
BRANCH   9  18
ATOM     12  S   UNL     1      35.725 -25.081 -14.018  0.00  0.00    -0.118 S 
ATOM     13  O   UNL     1      38.851 -22.960 -16.287  0.00  0.00    -0.273 OA
ATOM     14  N   UNL     1      38.052 -23.973 -14.310  0.00  0.00    -0.260 N 
ATOM     15  C   UNL     1      36.730 -23.563 -13.828  0.00  0.00    +0.151 C 
ATOM     16  C   UNL     1      37.214 -26.153 -13.700  0.00  0.00    +0.068 C 
ATOM     17  CA  UNL     1      38.368 -25.385 -14.381  0.00  0.00    +0.184 C 
ATOM     18  CA  UNL     1      36.690 -22.558 -14.988  0.00  0.00    +0.178 C 
ATOM     19  C   UNL     1      38.081 -23.107 -15.365  0.00  0.00    +0.247 C 
ATOM     20  C   UNL     1      37.365 -26.314 -12.181  0.00  0.00    +0.013 C 
ATOM     21  C   UNL     1      36.992 -27.519 -14.353  0.00  0.00    +0.013 C 
BRANCH  17  23
ATOM     22  OXT UNL     1      40.244 -24.779 -12.987  0.00  0.00    -0.248 OA
ATOM     23  C   UNL     1      39.714 -25.568 -13.755  0.00  0.00    +0.333 C 
BRANCH  23  24
ATOM     24  O   UNL     1      40.275 -26.735 -14.158  0.00  0.00    -0.479 OA
ATOM     25  H   UNL     1      41.203 -26.851 -14.105  0.00  0.00    +0.295 HD
ENDBRANCH  23  24
ENDBRANCH  17  23
ENDBRANCH   9  18
ENDBRANCH   1  10
BRANCH   1  27
ATOM     26  O   UNL     1      33.200 -20.702 -19.274  0.00  0.00    -0.249 OA
ATOM     27  C   UNL     1      34.218 -21.380 -19.215  0.00  0.00    +0.334 C 
BRANCH  27  28
ATOM     28  O   UNL     1      35.317 -21.287 -20.069  0.00  0.00    -0.424 OA
BRANCH  28  35
ATOM     29  C   UNL     1      34.672 -17.438 -24.570  0.00  0.00    +0.009 C 
ATOM     30  C   UNL     1      33.933 -18.698 -24.094  0.00  0.00    +0.026 C 
ATOM     31  C   UNL     1      35.137 -16.695 -23.309  0.00  0.00    +0.026 C 
ATOM     32  C   UNL     1      34.628 -18.968 -22.796  0.00  0.00    -0.023 C 
ATOM     33  C   UNL     1      35.311 -17.830 -22.351  0.00  0.00    -0.026 C 
ATOM     34  C   UNL     1      34.613 -20.132 -22.046  0.00  0.00    +0.033 C 
ATOM     35  C   UNL     1      35.309 -20.147 -20.835  0.00  0.00    +0.148 C 
ATOM     36  C   UNL     1      35.993 -17.833 -21.146  0.00  0.00    -0.001 C 
ATOM     37  C   UNL     1      35.994 -19.006 -20.388  0.00  0.00    +0.037 C 
ENDBRANCH  28  35
ENDBRANCH  27  28
ENDBRANCH   1  27
TORSDOF 8
ENDMDL
