MODEL 1
REMARK VINA RESULT:     -10.7      0.000      0.000
REMARK  Name = 24779678
REMARK  5 active torsions:
REMARK  status: ('A' for Active; 'I' for Inactive)
REMARK    1  A    between atoms: N_1  and  C_22
REMARK    2  A    between atoms: N_6  and  C_14
REMARK    3  A    between atoms: C_10  and  C_21
REMARK    4  A    between atoms: C_22  and  C_23
REMARK    5  A    between atoms: C_23  and  C_26
REMARK                            x       y       z     vdW  Elec       q    Type
REMARK                         _______ _______ _______ _____ _____    ______ ____
ROOT
ATOM      1  N   UNL     1      32.973 -22.148 -18.347  0.00  0.00    -0.294 N 
ATOM      2  N   UNL     1      32.199 -23.016 -16.293  0.00  0.00    -0.123 N 
ATOM      3  N   UNL     1      34.431 -23.163 -16.778  0.00  0.00    -0.295 NA
ATOM      4  N   UNL     1      33.611 -24.030 -14.708  0.00  0.00    -0.314 NA
ATOM      5  N   UNL     1      30.925 -22.671 -16.554  0.00  0.00    -0.170 NA
ATOM      6  N   UNL     1      35.873 -24.177 -15.207  0.00  0.00    -0.238 N 
ATOM      7  C   UNL     1      33.250 -22.773 -17.162  0.00  0.00    +0.276 C 
ATOM      8  C   UNL     1      32.377 -23.633 -15.088  0.00  0.00    +0.219 C 
ATOM      9  C   UNL     1      34.597 -23.792 -15.546  0.00  0.00    +0.207 C 
ATOM     10  C   UNL     1      31.125 -23.695 -14.519  0.00  0.00    +0.203 C 
ATOM     11  C   UNL     1      30.273 -23.089 -15.464  0.00  0.00    +0.116 C 
ATOM     12  H   UNL     1      32.044 -21.893 -18.543  0.00  0.00    +0.150 HD
ATOM     13  H   UNL     1      36.475 -24.414 -15.949  0.00  0.00    +0.166 HD
ENDROOT
BRANCH   6  14
ATOM     14  C   UNL     1      36.402 -24.266 -13.922  0.00  0.00    +0.058 C 
ATOM     15  C   UNL     1      36.681 -25.516 -13.368  0.00  0.00    +0.015 C 
ATOM     16  C   UNL     1      36.656 -23.107 -13.189  0.00  0.00    +0.015 C 
ATOM     17  C   UNL     1      37.212 -25.606 -12.082  0.00  0.00    +0.001 C 
ATOM     18  C   UNL     1      37.186 -23.197 -11.903  0.00  0.00    +0.001 C 
ATOM     19  C   UNL     1      37.464 -24.447 -11.349  0.00  0.00    +0.000 C 
ENDBRANCH   6  14
BRANCH  10  21
ATOM     20  N   UNL     1      30.519 -24.707 -12.223  0.00  0.00    -0.195 NA
ATOM     21  C   UNL     1      30.792 -24.252 -13.255  0.00  0.00    +0.087 C 
ENDBRANCH  10  21
BRANCH   1  22
ATOM     22  C   UNL     1      33.989 -21.850 -19.311  0.00  0.00    +0.096 C 
BRANCH  22  23
ATOM     23  C   UNL     1      33.665 -20.562 -20.066  0.00  0.00    +0.063 C 
BRANCH  23  26
ATOM     24  N   UNL     1      36.096 -19.901 -19.916  0.00  0.00    -0.319 N 
ATOM     25  N   UNL     1      36.418 -18.592 -21.681  0.00  0.00    -0.315 N 
ATOM     26  C   UNL     1      34.893 -19.839 -20.560  0.00  0.00    +0.039 C 
ATOM     27  C   UNL     1      35.116 -19.024 -21.645  0.00  0.00    +0.069 C 
ATOM     28  C   UNL     1      36.981 -19.137 -20.626  0.00  0.00    +0.182 C 
ATOM     29  H   UNL     1      36.291 -20.404 -19.092  0.00  0.00    +0.148 HD
ATOM     30  H   UNL     1      36.838 -18.003 -22.348  0.00  0.00    +0.148 HD
ENDBRANCH  23  26
ENDBRANCH  22  23
ENDBRANCH   1  22
TORSDOF 5
ENDMDL
MODEL 2
REMARK VINA RESULT:     -10.6      2.040      7.207
REMARK  Name = 24779678
REMARK  5 active torsions:
REMARK  status: ('A' for Active; 'I' for Inactive)
REMARK    1  A    between atoms: N_1  and  C_22
REMARK    2  A    between atoms: N_6  and  C_14
REMARK    3  A    between atoms: C_10  and  C_21
REMARK    4  A    between atoms: C_22  and  C_23
REMARK    5  A    between atoms: C_23  and  C_26
REMARK                            x       y       z     vdW  Elec       q    Type
REMARK                         _______ _______ _______ _____ _____    ______ ____
ROOT
ATOM      1  N   UNL     1      31.640 -24.295 -13.993  0.00  0.00    -0.294 N 
ATOM      2  N   UNL     1      33.926 -23.940 -14.464  0.00  0.00    -0.123 N 
ATOM      3  N   UNL     1      32.385 -23.512 -16.102  0.00  0.00    -0.295 NA
ATOM      4  N   UNL     1      34.707 -23.163 -16.543  0.00  0.00    -0.314 NA
ATOM      5  N   UNL     1      34.306 -24.328 -13.234  0.00  0.00    -0.170 NA
ATOM      6  N   UNL     1      33.139 -22.733 -18.200  0.00  0.00    -0.238 N 
ATOM      7  C   UNL     1      32.605 -23.910 -14.883  0.00  0.00    +0.276 C 
ATOM      8  C   UNL     1      34.957 -23.573 -15.280  0.00  0.00    +0.219 C 
ATOM      9  C   UNL     1      33.448 -23.141 -16.923  0.00  0.00    +0.207 C 
ATOM     10  C   UNL     1      36.097 -23.733 -14.525  0.00  0.00    +0.203 C 
ATOM     11  C   UNL     1      35.636 -24.200 -13.277  0.00  0.00    +0.116 C 
ATOM     12  H   UNL     1      31.911 -24.580 -13.092  0.00  0.00    +0.150 HD
ATOM     13  H   UNL     1      32.336 -23.128 -18.608  0.00  0.00    +0.166 HD
ENDROOT
BRANCH   6  14
ATOM     14  C   UNL     1      33.847 -21.817 -18.975  0.00  0.00    +0.058 C 
ATOM     15  C   UNL     1      33.164 -20.836 -19.693  0.00  0.00    +0.015 C 
ATOM     16  C   UNL     1      35.239 -21.880 -19.030  0.00  0.00    +0.015 C 
ATOM     17  C   UNL     1      33.873 -19.919 -20.468  0.00  0.00    +0.001 C 
ATOM     18  C   UNL     1      35.948 -20.962 -19.805  0.00  0.00    +0.001 C 
ATOM     19  C   UNL     1      35.265 -19.982 -20.525  0.00  0.00    +0.000 C 
ENDBRANCH   6  14
BRANCH  10  21
ATOM     20  N   UNL     1      38.523 -23.268 -15.272  0.00  0.00    -0.195 NA
ATOM     21  C   UNL     1      37.432 -23.478 -14.936  0.00  0.00    +0.087 C 
ENDBRANCH  10  21
BRANCH   1  22
ATOM     22  C   UNL     1      30.248 -24.297 -14.327  0.00  0.00    +0.096 C 
BRANCH  22  23
ATOM     23  C   UNL     1      29.685 -22.876 -14.331  0.00  0.00    +0.063 C 
BRANCH  23  26
ATOM     24  N   UNL     1      28.636 -22.949 -16.626  0.00  0.00    -0.319 N 
ATOM     25  N   UNL     1      26.544 -22.282 -16.293  0.00  0.00    -0.315 N 
ATOM     26  C   UNL     1      28.532 -22.697 -15.287  0.00  0.00    +0.039 C 
ATOM     27  C   UNL     1      27.232 -22.286 -15.105  0.00  0.00    +0.069 C 
ATOM     28  C   UNL     1      27.418 -22.685 -17.188  0.00  0.00    +0.182 C 
ATOM     29  H   UNL     1      29.440 -23.262 -17.099  0.00  0.00    +0.148 HD
ATOM     30  H   UNL     1      25.604 -22.031 -16.441  0.00  0.00    +0.148 HD
ENDBRANCH  23  26
ENDBRANCH  22  23
ENDBRANCH   1  22
TORSDOF 5
ENDMDL
MODEL 3
REMARK VINA RESULT:     -10.1      2.393      7.394
REMARK  Name = 24779678
REMARK  5 active torsions:
REMARK  status: ('A' for Active; 'I' for Inactive)
REMARK    1  A    between atoms: N_1  and  C_22
REMARK    2  A    between atoms: N_6  and  C_14
REMARK    3  A    between atoms: C_10  and  C_21
REMARK    4  A    between atoms: C_22  and  C_23
REMARK    5  A    between atoms: C_23  and  C_26
REMARK                            x       y       z     vdW  Elec       q    Type
REMARK                         _______ _______ _______ _____ _____    ______ ____
ROOT
ATOM      1  N   UNL     1      36.958 -22.925 -12.933  0.00  0.00    -0.294 N 
ATOM      2  N   UNL     1      35.885 -22.795 -15.032  0.00  0.00    -0.123 N 
ATOM      3  N   UNL     1      34.749 -23.714 -13.270  0.00  0.00    -0.295 NA
ATOM      4  N   UNL     1      33.694 -23.565 -15.409  0.00  0.00    -0.314 NA
ATOM      5  N   UNL     1      36.952 -22.218 -15.613  0.00  0.00    -0.170 NA
ATOM      6  N   UNL     1      32.548 -24.496 -13.619  0.00  0.00    -0.238 N 
ATOM      7  C   UNL     1      35.848 -23.164 -13.697  0.00  0.00    +0.276 C 
ATOM      8  C   UNL     1      34.827 -22.992 -15.872  0.00  0.00    +0.219 C 
ATOM      9  C   UNL     1      33.677 -23.909 -14.140  0.00  0.00    +0.207 C 
ATOM     10  C   UNL     1      35.234 -22.505 -17.094  0.00  0.00    +0.203 C 
ATOM     11  C   UNL     1      36.547 -22.043 -16.875  0.00  0.00    +0.116 C 
ATOM     12  H   UNL     1      37.741 -22.503 -13.352  0.00  0.00    +0.150 HD
ATOM     13  H   UNL     1      32.681 -25.128 -12.876  0.00  0.00    +0.166 HD
ENDROOT
BRANCH   6  14
ATOM     14  C   UNL     1      31.235 -24.290 -14.034  0.00  0.00    +0.058 C 
ATOM     15  C   UNL     1      30.358 -25.370 -14.134  0.00  0.00    +0.015 C 
ATOM     16  C   UNL     1      30.796 -23.004 -14.349  0.00  0.00    +0.015 C 
ATOM     17  C   UNL     1      29.042 -25.163 -14.549  0.00  0.00    +0.001 C 
ATOM     18  C   UNL     1      29.481 -22.798 -14.764  0.00  0.00    +0.001 C 
ATOM     19  C   UNL     1      28.604 -23.878 -14.865  0.00  0.00    +0.000 C 
ENDBRANCH   6  14
BRANCH  10  21
ATOM     20  N   UNL     1      33.858 -22.472 -19.278  0.00  0.00    -0.195 NA
ATOM     21  C   UNL     1      34.476 -22.486 -18.296  0.00  0.00    +0.087 C 
ENDBRANCH  10  21
BRANCH   1  22
ATOM     22  C   UNL     1      37.019 -23.267 -11.544  0.00  0.00    +0.096 C 
BRANCH  22  23
ATOM     23  C   UNL     1      38.029 -24.388 -11.302  0.00  0.00    +0.063 C 
BRANCH  23  26
ATOM     24  N   UNL     1      36.952 -26.268 -12.598  0.00  0.00    -0.319 N 
ATOM     25  N   UNL     1      38.480 -26.840 -14.105  0.00  0.00    -0.315 N 
ATOM     26  C   UNL     1      38.018 -25.440 -12.383  0.00  0.00    +0.039 C 
ATOM     27  C   UNL     1      38.949 -25.813 -13.324  0.00  0.00    +0.069 C 
ATOM     28  C   UNL     1      37.275 -27.090 -13.641  0.00  0.00    +0.182 C 
ATOM     29  H   UNL     1      36.106 -26.272 -12.094  0.00  0.00    +0.148 HD
ATOM     30  H   UNL     1      38.943 -27.290 -14.847  0.00  0.00    +0.148 HD
ENDBRANCH  23  26
ENDBRANCH  22  23
ENDBRANCH   1  22
TORSDOF 5
ENDMDL
MODEL 4
REMARK VINA RESULT:     -10.0      2.320      6.560
REMARK  Name = 24779678
REMARK  5 active torsions:
REMARK  status: ('A' for Active; 'I' for Inactive)
REMARK    1  A    between atoms: N_1  and  C_22
REMARK    2  A    between atoms: N_6  and  C_14
REMARK    3  A    between atoms: C_10  and  C_21
REMARK    4  A    between atoms: C_22  and  C_23
REMARK    5  A    between atoms: C_23  and  C_26
REMARK                            x       y       z     vdW  Elec       q    Type
REMARK                         _______ _______ _______ _____ _____    ______ ____
ROOT
ATOM      1  N   UNL     1      35.094 -25.027 -12.057  0.00  0.00    -0.294 N 
ATOM      2  N   UNL     1      33.329 -24.331 -13.462  0.00  0.00    -0.123 N 
ATOM      3  N   UNL     1      35.457 -23.642 -13.945  0.00  0.00    -0.295 NA
ATOM      4  N   UNL     1      33.647 -22.957 -15.346  0.00  0.00    -0.314 NA
ATOM      5  N   UNL     1      32.407 -24.990 -12.738  0.00  0.00    -0.170 NA
ATOM      6  N   UNL     1      35.807 -22.260 -15.829  0.00  0.00    -0.238 N 
ATOM      7  C   UNL     1      34.680 -24.324 -13.156  0.00  0.00    +0.276 C 
ATOM      8  C   UNL     1      32.822 -23.660 -14.538  0.00  0.00    +0.219 C 
ATOM      9  C   UNL     1      34.926 -22.961 -15.039  0.00  0.00    +0.207 C 
ATOM     10  C   UNL     1      31.467 -23.900 -14.515  0.00  0.00    +0.203 C 
ATOM     11  C   UNL     1      31.270 -24.722 -13.387  0.00  0.00    +0.116 C 
ATOM     12  H   UNL     1      34.425 -25.512 -11.524  0.00  0.00    +0.150 HD
ATOM     13  H   UNL     1      36.607 -21.898 -15.384  0.00  0.00    +0.166 HD
ENDROOT
BRANCH   6  14
ATOM     14  C   UNL     1      35.684 -22.010 -17.193  0.00  0.00    +0.058 C 
ATOM     15  C   UNL     1      34.540 -22.419 -17.877  0.00  0.00    +0.015 C 
ATOM     16  C   UNL     1      36.704 -21.347 -17.875  0.00  0.00    +0.015 C 
ATOM     17  C   UNL     1      34.416 -22.166 -19.243  0.00  0.00    +0.001 C 
ATOM     18  C   UNL     1      36.581 -21.095 -19.241  0.00  0.00    +0.001 C 
ATOM     19  C   UNL     1      35.436 -21.505 -19.925  0.00  0.00    +0.000 C 
ENDBRANCH   6  14
BRANCH  10  21
ATOM     20  N   UNL     1      29.712 -23.017 -16.189  0.00  0.00    -0.195 NA
ATOM     21  C   UNL     1      30.501 -23.413 -15.436  0.00  0.00    +0.087 C 
ENDBRANCH  10  21
BRANCH   1  22
ATOM     22  C   UNL     1      36.467 -25.084 -11.658  0.00  0.00    +0.096 C 
BRANCH  22  23
ATOM     23  C   UNL     1      37.170 -26.287 -12.288  0.00  0.00    +0.063 C 
BRANCH  23  26
ATOM     24  N   UNL     1      39.553 -26.263 -13.119  0.00  0.00    -0.319 N 
ATOM     25  N   UNL     1      39.469 -25.075 -14.993  0.00  0.00    -0.315 N 
ATOM     26  C   UNL     1      38.246 -25.897 -13.271  0.00  0.00    +0.039 C 
ATOM     27  C   UNL     1      38.218 -25.163 -14.434  0.00  0.00    +0.069 C 
ATOM     28  C   UNL     1      40.249 -25.747 -14.177  0.00  0.00    +0.182 C 
ATOM     29  H   UNL     1      39.926 -26.800 -12.383  0.00  0.00    +0.148 HD
ATOM     30  H   UNL     1      39.724 -24.609 -15.822  0.00  0.00    +0.148 HD
ENDBRANCH  23  26
ENDBRANCH  22  23
ENDBRANCH   1  22
TORSDOF 5
ENDMDL
MODEL 5
REMARK VINA RESULT:      -9.9      2.163      7.143
REMARK  Name = 24779678
REMARK  5 active torsions:
REMARK  status: ('A' for Active; 'I' for Inactive)
REMARK    1  A    between atoms: N_1  and  C_22
REMARK    2  A    between atoms: N_6  and  C_14
REMARK    3  A    between atoms: C_10  and  C_21
REMARK    4  A    between atoms: C_22  and  C_23
REMARK    5  A    between atoms: C_23  and  C_26
REMARK                            x       y       z     vdW  Elec       q    Type
REMARK                         _______ _______ _______ _____ _____    ______ ____
ROOT
ATOM      1  N   UNL     1      32.181 -24.039 -12.907  0.00  0.00    -0.294 N 
ATOM      2  N   UNL     1      34.390 -23.917 -13.730  0.00  0.00    -0.123 N 
ATOM      3  N   UNL     1      32.658 -23.473 -15.159  0.00  0.00    -0.295 NA
ATOM      4  N   UNL     1      34.907 -23.358 -15.957  0.00  0.00    -0.314 NA
ATOM      5  N   UNL     1      34.921 -24.249 -12.540  0.00  0.00    -0.170 NA
ATOM      6  N   UNL     1      33.145 -22.911 -17.400  0.00  0.00    -0.238 N 
ATOM      7  C   UNL     1      33.028 -23.802 -13.956  0.00  0.00    +0.276 C 
ATOM      8  C   UNL     1      35.312 -23.699 -14.713  0.00  0.00    +0.219 C 
ATOM      9  C   UNL     1      33.610 -23.254 -16.152  0.00  0.00    +0.207 C 
ATOM     10  C   UNL     1      36.537 -23.903 -14.119  0.00  0.00    +0.203 C 
ATOM     11  C   UNL     1      36.235 -24.239 -12.785  0.00  0.00    +0.116 C 
ATOM     12  H   UNL     1      32.563 -24.282 -12.034  0.00  0.00    +0.150 HD
ATOM     13  H   UNL     1      32.262 -23.264 -17.655  0.00  0.00    +0.166 HD
ENDROOT
BRANCH   6  14
ATOM     14  C   UNL     1      33.795 -22.118 -18.342  0.00  0.00    +0.058 C 
ATOM     15  C   UNL     1      33.062 -21.237 -19.137  0.00  0.00    +0.015 C 
ATOM     16  C   UNL     1      35.179 -22.201 -18.488  0.00  0.00    +0.015 C 
ATOM     17  C   UNL     1      33.712 -20.441 -20.078  0.00  0.00    +0.001 C 
ATOM     18  C   UNL     1      35.830 -21.405 -19.430  0.00  0.00    +0.001 C 
ATOM     19  C   UNL     1      35.097 -20.525 -20.226  0.00  0.00    +0.000 C 
ENDBRANCH   6  14
BRANCH  10  21
ATOM     20  N   UNL     1      38.852 -23.703 -15.243  0.00  0.00    -0.195 NA
ATOM     21  C   UNL     1      37.811 -23.793 -14.739  0.00  0.00    +0.087 C 
ENDBRANCH  10  21
BRANCH   1  22
ATOM     22  C   UNL     1      30.759 -23.944 -13.036  0.00  0.00    +0.096 C 
BRANCH  22  23
ATOM     23  C   UNL     1      30.245 -24.890 -14.122  0.00  0.00    +0.063 C 
BRANCH  23  26
ATOM     24  N   UNL     1      29.321 -22.842 -15.272  0.00  0.00    -0.319 N 
ATOM     25  N   UNL     1      27.952 -23.654 -16.821  0.00  0.00    -0.315 N 
ATOM     26  C   UNL     1      29.381 -24.201 -15.148  0.00  0.00    +0.039 C 
ATOM     27  C   UNL     1      28.527 -24.681 -16.114  0.00  0.00    +0.069 C 
ATOM     28  C   UNL     1      28.451 -22.561 -16.288  0.00  0.00    +0.182 C 
ATOM     29  H   UNL     1      29.814 -22.185 -14.729  0.00  0.00    +0.148 HD
ATOM     30  H   UNL     1      27.308 -23.722 -17.562  0.00  0.00    +0.148 HD
ENDBRANCH  23  26
ENDBRANCH  22  23
ENDBRANCH   1  22
TORSDOF 5
ENDMDL
MODEL 6
REMARK VINA RESULT:      -9.6      1.885      5.102
REMARK  Name = 24779678
REMARK  5 active torsions:
REMARK  status: ('A' for Active; 'I' for Inactive)
REMARK    1  A    between atoms: N_1  and  C_22
REMARK    2  A    between atoms: N_6  and  C_14
REMARK    3  A    between atoms: C_10  and  C_21
REMARK    4  A    between atoms: C_22  and  C_23
REMARK    5  A    between atoms: C_23  and  C_26
REMARK                            x       y       z     vdW  Elec       q    Type
REMARK                         _______ _______ _______ _____ _____    ______ ____
ROOT
ATOM      1  N   UNL     1      37.419 -21.827 -16.838  0.00  0.00    -0.294 N 
ATOM      2  N   UNL     1      37.172 -23.362 -15.061  0.00  0.00    -0.123 N 
ATOM      3  N   UNL     1      35.315 -22.277 -15.844  0.00  0.00    -0.295 NA
ATOM      4  N   UNL     1      35.103 -23.838 -14.048  0.00  0.00    -0.314 NA
ATOM      5  N   UNL     1      38.485 -23.651 -15.043  0.00  0.00    -0.170 NA
ATOM      6  N   UNL     1      33.224 -22.733 -14.846  0.00  0.00    -0.238 N 
ATOM      7  C   UNL     1      36.600 -22.457 -15.941  0.00  0.00    +0.276 C 
ATOM      8  C   UNL     1      36.436 -24.040 -14.132  0.00  0.00    +0.219 C 
ATOM      9  C   UNL     1      34.577 -22.976 -14.890  0.00  0.00    +0.207 C 
ATOM     10  C   UNL     1      37.338 -24.832 -13.457  0.00  0.00    +0.203 C 
ATOM     11  C   UNL     1      38.580 -24.551 -14.059  0.00  0.00    +0.116 C 
ATOM     12  H   UNL     1      38.380 -22.034 -16.829  0.00  0.00    +0.150 HD
ATOM     13  H   UNL     1      32.927 -21.834 -15.114  0.00  0.00    +0.166 HD
ENDROOT
BRANCH   6  14
ATOM     14  C   UNL     1      32.230 -23.628 -14.458  0.00  0.00    +0.058 C 
ATOM     15  C   UNL     1      31.249 -24.018 -15.369  0.00  0.00    +0.015 C 
ATOM     16  C   UNL     1      32.218 -24.138 -13.160  0.00  0.00    +0.015 C 
ATOM     17  C   UNL     1      30.254 -24.916 -14.982  0.00  0.00    +0.001 C 
ATOM     18  C   UNL     1      31.223 -25.036 -12.773  0.00  0.00    +0.001 C 
ATOM     19  C   UNL     1      30.241 -25.424 -13.684  0.00  0.00    +0.000 C 
ENDBRANCH   6  14
BRANCH  10  21
ATOM     20  N   UNL     1      36.819 -26.458 -11.521  0.00  0.00    -0.195 NA
ATOM     21  C   UNL     1      37.052 -25.726 -12.391  0.00  0.00    +0.087 C 
ENDBRANCH  10  21
BRANCH   1  22
ATOM     22  C   UNL     1      36.925 -20.877 -17.788  0.00  0.00    +0.096 C 
BRANCH  22  23
ATOM     23  C   UNL     1      36.469 -21.575 -19.069  0.00  0.00    +0.063 C 
BRANCH  23  26
ATOM     24  N   UNL     1      34.460 -20.359 -19.997  0.00  0.00    -0.319 N 
ATOM     25  N   UNL     1      32.739 -21.659 -19.468  0.00  0.00    -0.315 N 
ATOM     26  C   UNL     1      34.990 -21.427 -19.330  0.00  0.00    +0.039 C 
ATOM     27  C   UNL     1      33.909 -22.215 -19.012  0.00  0.00    +0.069 C 
ATOM     28  C   UNL     1      33.107 -20.542 -20.055  0.00  0.00    +0.182 C 
ATOM     29  H   UNL     1      34.961 -19.596 -20.368  0.00  0.00    +0.148 HD
ATOM     30  H   UNL     1      31.827 -22.017 -19.374  0.00  0.00    +0.148 HD
ENDBRANCH  23  26
ENDBRANCH  22  23
ENDBRANCH   1  22
TORSDOF 5
ENDMDL
MODEL 7
REMARK VINA RESULT:      -9.3      1.957      7.044
REMARK  Name = 24779678
REMARK  5 active torsions:
REMARK  status: ('A' for Active; 'I' for Inactive)
REMARK    1  A    between atoms: N_1  and  C_22
REMARK    2  A    between atoms: N_6  and  C_14
REMARK    3  A    between atoms: C_10  and  C_21
REMARK    4  A    between atoms: C_22  and  C_23
REMARK    5  A    between atoms: C_23  and  C_26
REMARK                            x       y       z     vdW  Elec       q    Type
REMARK                         _______ _______ _______ _____ _____    ______ ____
ROOT
ATOM      1  N   UNL     1      35.675 -25.834 -13.917  0.00  0.00    -0.294 N 
ATOM      2  N   UNL     1      33.722 -24.574 -14.332  0.00  0.00    -0.123 N 
ATOM      3  N   UNL     1      35.620 -24.084 -15.515  0.00  0.00    -0.295 NA
ATOM      4  N   UNL     1      33.624 -22.831 -15.910  0.00  0.00    -0.314 NA
ATOM      5  N   UNL     1      33.008 -25.260 -13.422  0.00  0.00    -0.170 NA
ATOM      6  N   UNL     1      35.552 -22.338 -17.104  0.00  0.00    -0.238 N 
ATOM      7  C   UNL     1      35.056 -24.828 -14.609  0.00  0.00    +0.276 C 
ATOM      8  C   UNL     1      33.020 -23.593 -14.971  0.00  0.00    +0.219 C 
ATOM      9  C   UNL     1      34.890 -23.086 -16.159  0.00  0.00    +0.207 C 
ATOM     10  C   UNL     1      31.751 -23.644 -14.439  0.00  0.00    +0.203 C 
ATOM     11  C   UNL     1      31.803 -24.686 -13.492  0.00  0.00    +0.116 C 
ATOM     12  H   UNL     1      35.159 -26.339 -13.250  0.00  0.00    +0.150 HD
ATOM     13  H   UNL     1      36.519 -22.211 -16.969  0.00  0.00    +0.166 HD
ENDROOT
BRANCH   6  14
ATOM     14  C   UNL     1      34.996 -21.741 -18.232  0.00  0.00    +0.058 C 
ATOM     15  C   UNL     1      35.804 -21.016 -19.108  0.00  0.00    +0.015 C 
ATOM     16  C   UNL     1      33.631 -21.869 -18.488  0.00  0.00    +0.015 C 
ATOM     17  C   UNL     1      35.247 -20.419 -20.238  0.00  0.00    +0.001 C 
ATOM     18  C   UNL     1      33.074 -21.272 -19.618  0.00  0.00    +0.001 C 
ATOM     19  C   UNL     1      33.882 -20.546 -20.493  0.00  0.00    +0.000 C 
ENDBRANCH   6  14
BRANCH  10  21
ATOM     20  N   UNL     1      29.752 -22.137 -15.068  0.00  0.00    -0.195 NA
ATOM     21  C   UNL     1      30.651 -22.815 -14.785  0.00  0.00    +0.087 C 
ENDBRANCH  10  21
BRANCH   1  22
ATOM     22  C   UNL     1      37.049 -26.175 -14.131  0.00  0.00    +0.096 C 
BRANCH  22  23
ATOM     23  C   UNL     1      37.837 -26.110 -12.823  0.00  0.00    +0.063 C 
BRANCH  23  26
ATOM     24  N   UNL     1      37.776 -23.676 -12.159  0.00  0.00    -0.319 N 
ATOM     25  N   UNL     1      36.529 -23.640 -10.322  0.00  0.00    -0.315 N 
ATOM     26  C   UNL     1      37.411 -24.972 -11.930  0.00  0.00    +0.039 C 
ATOM     27  C   UNL     1      36.642 -24.925 -10.790  0.00  0.00    +0.069 C 
ATOM     28  C   UNL     1      37.224 -22.913 -11.168  0.00  0.00    +0.182 C 
ATOM     29  H   UNL     1      38.335 -23.350 -12.901  0.00  0.00    +0.148 HD
ATOM     30  H   UNL     1      36.037 -23.332  -9.527  0.00  0.00    +0.148 HD
ENDBRANCH  23  26
ENDBRANCH  22  23
ENDBRANCH   1  22
TORSDOF 5
ENDMDL
MODEL 8
REMARK VINA RESULT:      -9.2      1.741      4.770
REMARK  Name = 24779678
REMARK  5 active torsions:
REMARK  status: ('A' for Active; 'I' for Inactive)
REMARK    1  A    between atoms: N_1  and  C_22
REMARK    2  A    between atoms: N_6  and  C_14
REMARK    3  A    between atoms: C_10  and  C_21
REMARK    4  A    between atoms: C_22  and  C_23
REMARK    5  A    between atoms: C_23  and  C_26
REMARK                            x       y       z     vdW  Elec       q    Type
REMARK                         _______ _______ _______ _____ _____    ______ ____
ROOT
ATOM      1  N   UNL     1      35.791 -22.144 -18.534  0.00  0.00    -0.294 N 
ATOM      2  N   UNL     1      35.519 -22.737 -16.264  0.00  0.00    -0.123 N 
ATOM      3  N   UNL     1      33.652 -22.442 -17.556  0.00  0.00    -0.295 NA
ATOM      4  N   UNL     1      33.415 -23.043 -15.256  0.00  0.00    -0.314 NA
ATOM      5  N   UNL     1      36.845 -22.764 -16.046  0.00  0.00    -0.170 NA
ATOM      6  N   UNL     1      31.527 -22.741 -16.572  0.00  0.00    -0.238 N 
ATOM      7  C   UNL     1      34.952 -22.431 -17.491  0.00  0.00    +0.276 C 
ATOM      8  C   UNL     1      34.764 -23.037 -15.167  0.00  0.00    +0.219 C 
ATOM      9  C   UNL     1      32.894 -22.750 -16.428  0.00  0.00    +0.207 C 
ATOM     10  C   UNL     1      35.666 -23.281 -14.157  0.00  0.00    +0.203 C 
ATOM     11  C   UNL     1      36.929 -23.098 -14.754  0.00  0.00    +0.116 C 
ATOM     12  H   UNL     1      36.762 -22.163 -18.380  0.00  0.00    +0.150 HD
ATOM     13  H   UNL     1      31.157 -22.121 -17.240  0.00  0.00    +0.166 HD
ENDROOT
BRANCH   6  14
ATOM     14  C   UNL     1      30.611 -23.518 -15.868  0.00  0.00    +0.058 C 
ATOM     15  C   UNL     1      31.050 -24.619 -15.132  0.00  0.00    +0.015 C 
ATOM     16  C   UNL     1      29.255 -23.195 -15.895  0.00  0.00    +0.015 C 
ATOM     17  C   UNL     1      30.133 -25.397 -14.426  0.00  0.00    +0.001 C 
ATOM     18  C   UNL     1      28.338 -23.973 -15.189  0.00  0.00    +0.001 C 
ATOM     19  C   UNL     1      28.777 -25.075 -14.455  0.00  0.00    +0.000 C 
ENDBRANCH   6  14
BRANCH  10  21
ATOM     20  N   UNL     1      35.117 -23.928 -11.719  0.00  0.00    -0.195 NA
ATOM     21  C   UNL     1      35.363 -23.636 -12.815  0.00  0.00    +0.087 C 
ENDBRANCH  10  21
BRANCH   1  22
ATOM     22  C   UNL     1      35.305 -21.818 -19.839  0.00  0.00    +0.096 C 
BRANCH  22  23
ATOM     23  C   UNL     1      34.685 -20.421 -19.858  0.00  0.00    +0.063 C 
BRANCH  23  26
ATOM     24  N   UNL     1      34.617 -19.434 -22.181  0.00  0.00    -0.319 N 
ATOM     25  N   UNL     1      36.411 -18.129 -22.275  0.00  0.00    -0.315 N 
ATOM     26  C   UNL     1      35.226 -19.547 -20.963  0.00  0.00    +0.039 C 
ATOM     27  C   UNL     1      36.332 -18.734 -21.045  0.00  0.00    +0.069 C 
ATOM     28  C   UNL     1      35.364 -18.572 -22.935  0.00  0.00    +0.182 C 
ATOM     29  H   UNL     1      33.791 -19.890 -22.464  0.00  0.00    +0.148 HD
ATOM     30  H   UNL     1      37.100 -17.502 -22.593  0.00  0.00    +0.148 HD
ENDBRANCH  23  26
ENDBRANCH  22  23
ENDBRANCH   1  22
TORSDOF 5
ENDMDL
MODEL 9
REMARK VINA RESULT:      -8.8      9.591     14.407
REMARK  Name = 24779678
REMARK  5 active torsions:
REMARK  status: ('A' for Active; 'I' for Inactive)
REMARK    1  A    between atoms: N_1  and  C_22
REMARK    2  A    between atoms: N_6  and  C_14
REMARK    3  A    between atoms: C_10  and  C_21
REMARK    4  A    between atoms: C_22  and  C_23
REMARK    5  A    between atoms: C_23  and  C_26
REMARK                            x       y       z     vdW  Elec       q    Type
REMARK                         _______ _______ _______ _____ _____    ______ ____
ROOT
ATOM      1  N   UNL     1      32.931 -13.938 -23.629  0.00  0.00    -0.294 N 
ATOM      2  N   UNL     1      32.522 -12.540 -21.771  0.00  0.00    -0.123 N 
ATOM      3  N   UNL     1      33.052 -11.576 -23.778  0.00  0.00    -0.295 NA
ATOM      4  N   UNL     1      32.630 -10.192 -21.877  0.00  0.00    -0.314 NA
ATOM      5  N   UNL     1      32.285 -13.583 -20.956  0.00  0.00    -0.170 NA
ATOM      6  N   UNL     1      33.169  -9.221 -23.915  0.00  0.00    -0.238 N 
ATOM      7  C   UNL     1      32.848 -12.674 -23.111  0.00  0.00    +0.276 C 
ATOM      8  C   UNL     1      32.415 -11.320 -21.166  0.00  0.00    +0.219 C 
ATOM      9  C   UNL     1      32.939 -10.338 -23.147  0.00  0.00    +0.207 C 
ATOM     10  C   UNL     1      32.081 -11.589 -19.857  0.00  0.00    +0.203 C 
ATOM     11  C   UNL     1      32.015 -12.994 -19.787  0.00  0.00    +0.116 C 
ATOM     12  H   UNL     1      32.758 -14.705 -23.038  0.00  0.00    +0.150 HD
ATOM     13  H   UNL     1      33.803  -9.320 -24.660  0.00  0.00    +0.166 HD
ENDROOT
BRANCH   6  14
ATOM     14  C   UNL     1      32.597  -7.963 -23.746  0.00  0.00    +0.058 C 
ATOM     15  C   UNL     1      33.306  -6.958 -23.087  0.00  0.00    +0.015 C 
ATOM     16  C   UNL     1      31.318  -7.706 -24.237  0.00  0.00    +0.015 C 
ATOM     17  C   UNL     1      32.734  -5.697 -22.918  0.00  0.00    +0.001 C 
ATOM     18  C   UNL     1      30.746  -6.445 -24.069  0.00  0.00    +0.001 C 
ATOM     19  C   UNL     1      31.454  -5.441 -23.409  0.00  0.00    +0.000 C 
ENDBRANCH   6  14
BRANCH  10  21
ATOM     20  N   UNL     1      31.677  -9.863 -17.981  0.00  0.00    -0.195 NA
ATOM     21  C   UNL     1      31.858 -10.638 -18.825  0.00  0.00    +0.087 C 
ENDBRANCH  10  21
BRANCH   1  22
ATOM     22  C   UNL     1      33.259 -14.182 -25.000  0.00  0.00    +0.096 C 
BRANCH  22  23
ATOM     23  C   UNL     1      33.443 -15.677 -25.259  0.00  0.00    +0.063 C 
BRANCH  23  26
ATOM     24  N   UNL     1      34.397 -17.715 -24.115  0.00  0.00    -0.319 N 
ATOM     25  N   UNL     1      35.721 -16.888 -22.536  0.00  0.00    -0.315 N 
ATOM     26  C   UNL     1      34.307 -16.357 -24.226  0.00  0.00    +0.039 C 
ATOM     27  C   UNL     1      35.132 -15.868 -23.240  0.00  0.00    +0.069 C 
ATOM     28  C   UNL     1      35.256 -17.987 -23.087  0.00  0.00    +0.182 C 
ATOM     29  H   UNL     1      33.928 -18.378 -24.673  0.00  0.00    +0.148 HD
ATOM     30  H   UNL     1      36.350 -16.813 -21.783  0.00  0.00    +0.148 HD
ENDBRANCH  23  26
ENDBRANCH  22  23
ENDBRANCH   1  22
TORSDOF 5
ENDMDL
