MODEL 1
REMARK VINA RESULT:     -12.8      0.000      0.000
REMARK  Name = 208951
REMARK  4 active torsions:
REMARK  status: ('A' for Active; 'I' for Inactive)
REMARK    1  A    between atoms: N_1  and  C_19
REMARK    2  A    between atoms: N_2  and  C_11
REMARK    3  A    between atoms: C_19  and  C_20
REMARK    4  A    between atoms: C_23  and  C_26
REMARK                            x       y       z     vdW  Elec       q    Type
REMARK                         _______ _______ _______ _____ _____    ______ ____
ROOT
ATOM      1  N   UNL     1      34.433 -22.250 -17.503  0.00  0.00    +0.392 N 
ATOM      2  N   UNL     1      35.224 -23.549 -15.084  0.00  0.00    -0.309 N 
ATOM      3  C   UNL     1      35.854 -22.440 -17.191  0.00  0.00    -0.055 C 
ATOM      4  C   UNL     1      33.652 -23.375 -16.975  0.00  0.00    -0.055 C 
ATOM      5  C   UNL     1      36.082 -22.520 -15.680  0.00  0.00    +0.068 C 
ATOM      6  C   UNL     1      33.804 -23.485 -15.455  0.00  0.00    +0.068 C 
ATOM      7  H   UNL     1      34.111 -21.389 -17.059  0.00  0.00    -0.079 HD
ENDROOT
BRANCH   2  11
ATOM      8  O   UNL     1      37.482 -25.390 -14.655  0.00  0.00    -0.406 OA
ATOM      9  O   UNL     1      39.292 -26.821 -14.499  0.00  0.00    -0.223 OA
ATOM     10  N   UNL     1      38.034 -26.286 -12.612  0.00  0.00    -0.287 N 
ATOM     11  C   UNL     1      35.553 -24.091 -13.836  0.00  0.00    +0.084 C 
ATOM     12  C   UNL     1      36.623 -24.958 -13.656  0.00  0.00    +0.179 A 
ATOM     13  C   UNL     1      34.810 -23.784 -12.678  0.00  0.00    +0.018 C 
ATOM     14  C   UNL     1      36.938 -25.485 -12.423  0.00  0.00    +0.098 A 
ATOM     15  C   UNL     1      35.141 -24.330 -11.421  0.00  0.00    +0.003 C 
ATOM     16  C   UNL     1      36.226 -25.198 -11.281  0.00  0.00    +0.020 C 
ATOM     17  C   UNL     1      38.366 -26.232 -13.956  0.00  0.00    +0.419 A 
ATOM     18  H   UNL     1      38.500 -26.805 -11.918  0.00  0.00    +0.172 HD
ENDBRANCH   2  11
BRANCH   1  19
ATOM     19  C   UNL     1      34.236 -22.122 -18.945  0.00  0.00    -0.050 C 
BRANCH  19  20
ATOM     20  C   UNL     1      35.164 -21.092 -19.529  0.00  0.00    -0.043 C 
ATOM     21  C   UNL     1      34.737 -20.312 -20.596  0.00  0.00    -0.006 C 
ATOM     22  C   UNL     1      36.435 -20.933 -18.994  0.00  0.00    -0.006 C 
ATOM     23  C   UNL     1      35.598 -19.356 -21.136  0.00  0.00    -0.000 C 
ATOM     24  C   UNL     1      37.295 -19.978 -19.534  0.00  0.00    -0.000 C 
ATOM     25  C   UNL     1      36.877 -19.190 -20.606  0.00  0.00    -0.000 C 
BRANCH  23  26
ATOM     26  C   UNL     1      35.163 -18.536 -22.247  0.00  0.00    -0.000 C 
ATOM     27  C   UNL     1      35.362 -17.156 -22.215  0.00  0.00    -0.000 C 
ATOM     28  C   UNL     1      34.545 -19.127 -23.350  0.00  0.00    -0.000 C 
ATOM     29  C   UNL     1      34.944 -16.366 -23.286  0.00  0.00    -0.000 C 
ATOM     30  C   UNL     1      34.127 -18.336 -24.420  0.00  0.00    -0.000 C 
ATOM     31  C   UNL     1      34.327 -16.956 -24.388  0.00  0.00    +0.000 C 
ENDBRANCH  23  26
ENDBRANCH  19  20
ENDBRANCH   1  19
TORSDOF 4
ENDMDL
MODEL 2
REMARK VINA RESULT:     -12.5      7.524     12.430
REMARK  Name = 208951
REMARK  4 active torsions:
REMARK  status: ('A' for Active; 'I' for Inactive)
REMARK    1  A    between atoms: N_1  and  C_19
REMARK    2  A    between atoms: N_2  and  C_11
REMARK    3  A    between atoms: C_19  and  C_20
REMARK    4  A    between atoms: C_23  and  C_26
REMARK                            x       y       z     vdW  Elec       q    Type
REMARK                         _______ _______ _______ _____ _____    ______ ____
ROOT
ATOM      1  N   UNL     1      34.225 -14.798 -22.579  0.00  0.00    +0.392 N 
ATOM      2  N   UNL     1      33.104 -12.491 -21.322  0.00  0.00    -0.309 N 
ATOM      3  C   UNL     1      33.946 -13.588 -23.360  0.00  0.00    -0.055 C 
ATOM      4  C   UNL     1      34.621 -14.431 -21.214  0.00  0.00    -0.055 C 
ATOM      5  C   UNL     1      32.812 -12.775 -22.730  0.00  0.00    +0.068 C 
ATOM      6  C   UNL     1      33.509 -13.647 -20.511  0.00  0.00    +0.068 C 
ATOM      7  H   UNL     1      33.378 -15.365 -22.535  0.00  0.00    -0.079 HD
ENDROOT
BRANCH   2  11
ATOM      8  O   UNL     1      32.561  -9.895 -22.600  0.00  0.00    -0.406 OA
ATOM      9  O   UNL     1      32.216  -7.922 -23.758  0.00  0.00    -0.223 OA
ATOM     10  N   UNL     1      31.493  -8.149 -21.554  0.00  0.00    -0.287 N 
ATOM     11  C   UNL     1      32.454 -11.433 -20.677  0.00  0.00    +0.084 C 
ATOM     12  C   UNL     1      32.207 -10.215 -21.299  0.00  0.00    +0.179 A 
ATOM     13  C   UNL     1      32.005 -11.542 -19.345  0.00  0.00    +0.018 C 
ATOM     14  C   UNL     1      31.565  -9.181 -20.655  0.00  0.00    +0.098 A 
ATOM     15  C   UNL     1      31.350 -10.476 -18.695  0.00  0.00    +0.003 C 
ATOM     16  C   UNL     1      31.120  -9.268 -19.356  0.00  0.00    +0.020 C 
ATOM     17  C   UNL     1      32.092  -8.574 -22.728  0.00  0.00    +0.419 A 
ATOM     18  H   UNL     1      31.089  -7.266 -21.394  0.00  0.00    +0.172 HD
ENDBRANCH   2  11
BRANCH   1  19
ATOM     19  C   UNL     1      35.272 -15.593 -23.220  0.00  0.00    -0.050 C 
BRANCH  19  20
ATOM     20  C   UNL     1      34.916 -17.054 -23.226  0.00  0.00    -0.043 C 
ATOM     21  C   UNL     1      35.128 -17.815 -22.084  0.00  0.00    -0.006 C 
ATOM     22  C   UNL     1      34.379 -17.623 -24.373  0.00  0.00    -0.006 C 
ATOM     23  C   UNL     1      34.797 -19.171 -22.091  0.00  0.00    -0.000 C 
ATOM     24  C   UNL     1      34.048 -18.977 -24.379  0.00  0.00    -0.000 C 
ATOM     25  C   UNL     1      34.257 -19.751 -23.239  0.00  0.00    -0.000 C 
BRANCH  23  26
ATOM     26  C   UNL     1      35.012 -19.974 -20.906  0.00  0.00    -0.000 C 
ATOM     27  C   UNL     1      36.297 -20.116 -20.384  0.00  0.00    -0.000 C 
ATOM     28  C   UNL     1      33.932 -20.606 -20.286  0.00  0.00    -0.000 C 
ATOM     29  C   UNL     1      36.504 -20.890 -19.242  0.00  0.00    -0.000 C 
ATOM     30  C   UNL     1      34.140 -21.380 -19.145  0.00  0.00    -0.000 C 
ATOM     31  C   UNL     1      35.426 -21.522 -18.623  0.00  0.00    +0.000 C 
ENDBRANCH  23  26
ENDBRANCH  19  20
ENDBRANCH   1  19
TORSDOF 4
ENDMDL
MODEL 3
REMARK VINA RESULT:     -12.1      7.470     12.958
REMARK  Name = 208951
REMARK  4 active torsions:
REMARK  status: ('A' for Active; 'I' for Inactive)
REMARK    1  A    between atoms: N_1  and  C_19
REMARK    2  A    between atoms: N_2  and  C_11
REMARK    3  A    between atoms: C_19  and  C_20
REMARK    4  A    between atoms: C_23  and  C_26
REMARK                            x       y       z     vdW  Elec       q    Type
REMARK                         _______ _______ _______ _____ _____    ______ ____
ROOT
ATOM      1  N   UNL     1      34.438 -14.906 -22.227  0.00  0.00    +0.392 N 
ATOM      2  N   UNL     1      33.178 -12.351 -22.439  0.00  0.00    -0.309 N 
ATOM      3  C   UNL     1      34.604 -14.093 -23.438  0.00  0.00    -0.055 C 
ATOM      4  C   UNL     1      34.327 -14.034 -21.052  0.00  0.00    -0.055 C 
ATOM      5  C   UNL     1      33.410 -13.158 -23.641  0.00  0.00    +0.068 C 
ATOM      6  C   UNL     1      33.123 -13.097 -21.175  0.00  0.00    +0.068 C 
ATOM      7  H   UNL     1      33.581 -15.454 -22.313  0.00  0.00    -0.079 HD
ENDROOT
BRANCH   2  11
ATOM      8  O   UNL     1      34.364  -9.777 -23.239  0.00  0.00    -0.406 OA
ATOM      9  O   UNL     1      35.459  -7.844 -23.885  0.00  0.00    -0.223 OA
ATOM     10  N   UNL     1      33.180  -7.813 -23.396  0.00  0.00    -0.287 N 
ATOM     11  C   UNL     1      32.450 -11.159 -22.531  0.00  0.00    +0.084 C 
ATOM     12  C   UNL     1      33.030  -9.956 -22.911  0.00  0.00    +0.179 A 
ATOM     13  C   UNL     1      31.071 -11.112 -22.242  0.00  0.00    +0.018 C 
ATOM     14  C   UNL     1      32.302  -8.789 -22.999  0.00  0.00    +0.098 A 
ATOM     15  C   UNL     1      30.337  -9.912 -22.335  0.00  0.00    +0.003 C 
ATOM     16  C   UNL     1      30.956  -8.722 -22.721  0.00  0.00    +0.020 C 
ATOM     17  C   UNL     1      34.424  -8.404 -23.542  0.00  0.00    +0.419 A 
ATOM     18  H   UNL     1      32.965  -6.866 -23.549  0.00  0.00    +0.172 HD
ENDBRANCH   2  11
BRANCH   1  19
ATOM     19  C   UNL     1      35.558 -15.833 -22.074  0.00  0.00    -0.050 C 
BRANCH  19  20
ATOM     20  C   UNL     1      35.123 -17.253 -22.316  0.00  0.00    -0.043 C 
ATOM     21  C   UNL     1      35.077 -18.145 -21.252  0.00  0.00    -0.006 C 
ATOM     22  C   UNL     1      34.772 -17.653 -23.598  0.00  0.00    -0.006 C 
ATOM     23  C   UNL     1      34.673 -19.462 -21.477  0.00  0.00    -0.000 C 
ATOM     24  C   UNL     1      34.368 -18.968 -23.822  0.00  0.00    -0.000 C 
ATOM     25  C   UNL     1      34.319 -19.873 -22.762  0.00  0.00    -0.000 C 
BRANCH  23  26
ATOM     26  C   UNL     1      34.620 -20.400 -20.377  0.00  0.00    -0.000 C 
ATOM     27  C   UNL     1      33.388 -20.830 -19.885  0.00  0.00    -0.000 C 
ATOM     28  C   UNL     1      35.802 -20.876 -19.808  0.00  0.00    -0.000 C 
ATOM     29  C   UNL     1      33.337 -21.736 -18.825  0.00  0.00    -0.000 C 
ATOM     30  C   UNL     1      35.751 -21.781 -18.748  0.00  0.00    -0.000 C 
ATOM     31  C   UNL     1      34.518 -22.211 -18.257  0.00  0.00    +0.000 C 
ENDBRANCH  23  26
ENDBRANCH  19  20
ENDBRANCH   1  19
TORSDOF 4
ENDMDL
MODEL 4
REMARK VINA RESULT:     -12.1      4.093      9.879
REMARK  Name = 208951
REMARK  4 active torsions:
REMARK  status: ('A' for Active; 'I' for Inactive)
REMARK    1  A    between atoms: N_1  and  C_19
REMARK    2  A    between atoms: N_2  and  C_11
REMARK    3  A    between atoms: C_19  and  C_20
REMARK    4  A    between atoms: C_23  and  C_26
REMARK                            x       y       z     vdW  Elec       q    Type
REMARK                         _______ _______ _______ _____ _____    ______ ____
ROOT
ATOM      1  N   UNL     1      35.115 -21.505 -18.825  0.00  0.00    +0.392 N 
ATOM      2  N   UNL     1      34.942 -19.704 -21.035  0.00  0.00    -0.309 N 
ATOM      3  C   UNL     1      33.935 -21.510 -19.698  0.00  0.00    -0.055 C 
ATOM      4  C   UNL     1      36.312 -21.172 -19.606  0.00  0.00    -0.055 C 
ATOM      5  C   UNL     1      33.724 -20.140 -20.346  0.00  0.00    +0.068 C 
ATOM      6  C   UNL     1      36.181 -19.790 -20.251  0.00  0.00    +0.068 C 
ATOM      7  H   UNL     1      34.986 -20.797 -18.102  0.00  0.00    -0.079 HD
ENDROOT
BRANCH   2  11
ATOM      8  O   UNL     1      34.914 -16.811 -20.482  0.00  0.00    -0.406 OA
ATOM      9  O   UNL     1      34.904 -14.581 -19.866  0.00  0.00    -0.223 OA
ATOM     10  N   UNL     1      34.787 -15.195 -22.111  0.00  0.00    -0.287 N 
ATOM     11  C   UNL     1      34.864 -18.726 -22.034  0.00  0.00    +0.084 C 
ATOM     12  C   UNL     1      34.852 -17.366 -21.750  0.00  0.00    +0.179 A 
ATOM     13  C   UNL     1      34.793 -19.068 -23.399  0.00  0.00    +0.018 C 
ATOM     14  C   UNL     1      34.776 -16.412 -22.742  0.00  0.00    +0.098 A 
ATOM     15  C   UNL     1      34.714 -18.084 -24.406  0.00  0.00    +0.003 C 
ATOM     16  C   UNL     1      34.706 -16.726 -24.080  0.00  0.00    +0.020 C 
ATOM     17  C   UNL     1      34.870 -15.430 -20.749  0.00  0.00    +0.419 A 
ATOM     18  H   UNL     1      34.744 -14.315 -22.548  0.00  0.00    +0.172 HD
ENDBRANCH   2  11
BRANCH   1  19
ATOM     19  C   UNL     1      35.274 -22.803 -18.171  0.00  0.00    -0.050 C 
BRANCH  19  20
ATOM     20  C   UNL     1      34.557 -22.835 -16.848  0.00  0.00    -0.043 C 
ATOM     21  C   UNL     1      33.198 -23.117 -16.814  0.00  0.00    -0.006 C 
ATOM     22  C   UNL     1      35.264 -22.583 -15.680  0.00  0.00    -0.006 C 
ATOM     23  C   UNL     1      32.534 -23.147 -15.587  0.00  0.00    -0.000 C 
ATOM     24  C   UNL     1      34.600 -22.613 -14.455  0.00  0.00    -0.000 C 
ATOM     25  C   UNL     1      33.235 -22.895 -14.408  0.00  0.00    -0.000 C 
BRANCH  23  26
ATOM     26  C   UNL     1      31.118 -23.441 -15.538  0.00  0.00    -0.000 C 
ATOM     27  C   UNL     1      30.214 -22.640 -16.236  0.00  0.00    -0.000 C 
ATOM     28  C   UNL     1      30.656 -24.527 -14.793  0.00  0.00    -0.000 C 
ATOM     29  C   UNL     1      28.849 -22.924 -16.189  0.00  0.00    -0.000 C 
ATOM     30  C   UNL     1      29.291 -24.810 -14.745  0.00  0.00    -0.000 C 
ATOM     31  C   UNL     1      28.388 -24.009 -15.444  0.00  0.00    +0.000 C 
ENDBRANCH  23  26
ENDBRANCH  19  20
ENDBRANCH   1  19
TORSDOF 4
ENDMDL
MODEL 5
REMARK VINA RESULT:     -12.1      1.969      4.339
REMARK  Name = 208951
REMARK  4 active torsions:
REMARK  status: ('A' for Active; 'I' for Inactive)
REMARK    1  A    between atoms: N_1  and  C_19
REMARK    2  A    between atoms: N_2  and  C_11
REMARK    3  A    between atoms: C_19  and  C_20
REMARK    4  A    between atoms: C_23  and  C_26
REMARK                            x       y       z     vdW  Elec       q    Type
REMARK                         _______ _______ _______ _____ _____    ______ ____
ROOT
ATOM      1  N   UNL     1      35.705 -20.359 -20.474  0.00  0.00    +0.392 N 
ATOM      2  N   UNL     1      34.387 -21.663 -18.301  0.00  0.00    -0.309 N 
ATOM      3  C   UNL     1      34.340 -19.975 -20.094  0.00  0.00    -0.055 C 
ATOM      4  C   UNL     1      36.460 -20.761 -19.282  0.00  0.00    -0.055 C 
ATOM      5  C   UNL     1      33.606 -21.141 -19.427  0.00  0.00    +0.068 C 
ATOM      6  C   UNL     1      35.798 -21.953 -18.587  0.00  0.00    +0.068 C 
ATOM      7  H   UNL     1      35.658 -21.150 -21.116  0.00  0.00    -0.079 HD
ENDROOT
BRANCH   2  11
ATOM      8  O   UNL     1      35.834 -23.101 -16.177  0.00  0.00    -0.406 OA
ATOM      9  O   UNL     1      37.129 -24.166 -14.584  0.00  0.00    -0.223 OA
ATOM     10  N   UNL     1      34.804 -24.330 -14.530  0.00  0.00    -0.287 N 
ATOM     11  C   UNL     1      33.752 -22.410 -17.302  0.00  0.00    +0.084 C 
ATOM     12  C   UNL     1      34.455 -23.081 -16.309  0.00  0.00    +0.179 A 
ATOM     13  C   UNL     1      32.348 -22.526 -17.245  0.00  0.00    +0.018 C 
ATOM     14  C   UNL     1      33.819 -23.813 -15.330  0.00  0.00    +0.098 A 
ATOM     15  C   UNL     1      31.708 -23.278 -16.239  0.00  0.00    +0.003 C 
ATOM     16  C   UNL     1      32.450 -23.937 -15.257  0.00  0.00    +0.020 C 
ATOM     17  C   UNL     1      36.021 -23.904 -15.037  0.00  0.00    +0.419 A 
ATOM     18  H   UNL     1      34.672 -24.900 -13.740  0.00  0.00    +0.172 HD
ENDBRANCH   2  11
BRANCH   1  19
ATOM     19  C   UNL     1      36.376 -19.255 -21.159  0.00  0.00    -0.050 C 
BRANCH  19  20
ATOM     20  C   UNL     1      35.559 -18.762 -22.322  0.00  0.00    -0.043 C 
ATOM     21  C   UNL     1      35.285 -17.406 -22.440  0.00  0.00    -0.006 C 
ATOM     22  C   UNL     1      35.092 -19.669 -23.264  0.00  0.00    -0.006 C 
ATOM     23  C   UNL     1      34.528 -16.950 -23.520  0.00  0.00    -0.000 C 
ATOM     24  C   UNL     1      34.336 -19.213 -24.342  0.00  0.00    -0.000 C 
ATOM     25  C   UNL     1      34.054 -17.853 -24.471  0.00  0.00    -0.000 C 
BRANCH  23  26
ATOM     26  C   UNL     1      34.237 -15.539 -23.655  0.00  0.00    -0.000 C 
ATOM     27  C   UNL     1      33.566 -15.069 -24.784  0.00  0.00    -0.000 C 
ATOM     28  C   UNL     1      34.628 -14.647 -22.654  0.00  0.00    -0.000 C 
ATOM     29  C   UNL     1      33.284 -13.709 -24.913  0.00  0.00    -0.000 C 
ATOM     30  C   UNL     1      34.347 -13.287 -22.785  0.00  0.00    -0.000 C 
ATOM     31  C   UNL     1      33.674 -12.819 -23.914  0.00  0.00    +0.000 C 
ENDBRANCH  23  26
ENDBRANCH  19  20
ENDBRANCH   1  19
TORSDOF 4
ENDMDL
MODEL 6
REMARK VINA RESULT:     -11.7      9.857     14.477
REMARK  Name = 208951
REMARK  4 active torsions:
REMARK  status: ('A' for Active; 'I' for Inactive)
REMARK    1  A    between atoms: N_1  and  C_19
REMARK    2  A    between atoms: N_2  and  C_11
REMARK    3  A    between atoms: C_19  and  C_20
REMARK    4  A    between atoms: C_23  and  C_26
REMARK                            x       y       z     vdW  Elec       q    Type
REMARK                         _______ _______ _______ _____ _____    ______ ____
ROOT
ATOM      1  N   UNL     1      31.586  -9.480 -22.525  0.00  0.00    +0.392 N 
ATOM      2  N   UNL     1      32.810 -12.047 -22.258  0.00  0.00    -0.309 N 
ATOM      3  C   UNL     1      32.383 -10.041 -23.622  0.00  0.00    -0.055 C 
ATOM      4  C   UNL     1      30.898 -10.559 -21.806  0.00  0.00    -0.055 C 
ATOM      5  C   UNL     1      33.437 -11.018 -23.094  0.00  0.00    +0.068 C 
ATOM      6  C   UNL     1      31.902 -11.553 -21.215  0.00  0.00    +0.068 C 
ATOM      7  H   UNL     1      32.209  -8.998 -21.877  0.00  0.00    -0.079 HD
ENDROOT
BRANCH   2  11
ATOM      8  O   UNL     1      33.212 -14.099 -24.332  0.00  0.00    -0.406 OA
ATOM      9  O   UNL     1      33.439 -15.599 -26.079  0.00  0.00    -0.223 OA
ATOM     10  N   UNL     1      34.305 -16.089 -23.971  0.00  0.00    -0.287 N 
ATOM     11  C   UNL     1      33.476 -13.257 -22.030  0.00  0.00    +0.084 C 
ATOM     12  C   UNL     1      33.655 -14.212 -23.023  0.00  0.00    +0.179 A 
ATOM     13  C   UNL     1      34.011 -13.579 -20.766  0.00  0.00    +0.018 C 
ATOM     14  C   UNL     1      34.313 -15.399 -22.787  0.00  0.00    +0.098 A 
ATOM     15  C   UNL     1      34.682 -14.798 -20.536  0.00  0.00    +0.003 C 
ATOM     16  C   UNL     1      34.841 -15.732 -21.561  0.00  0.00    +0.020 C 
ATOM     17  C   UNL     1      33.642 -15.310 -24.905  0.00  0.00    +0.419 A 
ATOM     18  H   UNL     1      34.698 -16.977 -24.128  0.00  0.00    +0.172 HD
ENDBRANCH   2  11
BRANCH   1  19
ATOM     19  C   UNL     1      30.621  -8.509 -23.037  0.00  0.00    -0.050 C 
BRANCH  19  20
ATOM     20  C   UNL     1      31.174  -7.111 -22.976  0.00  0.00    -0.043 C 
ATOM     21  C   UNL     1      32.107  -6.702 -23.919  0.00  0.00    -0.006 C 
ATOM     22  C   UNL     1      30.743  -6.248 -21.977  0.00  0.00    -0.006 C 
ATOM     23  C   UNL     1      32.618  -5.405 -23.862  0.00  0.00    -0.000 C 
ATOM     24  C   UNL     1      31.255  -4.952 -21.920  0.00  0.00    -0.000 C 
ATOM     25  C   UNL     1      32.193  -4.531 -22.862  0.00  0.00    -0.000 C 
BRANCH  23  26
ATOM     26  C   UNL     1      33.590  -4.967 -24.841  0.00  0.00    -0.000 C 
ATOM     27  C   UNL     1      33.340  -3.832 -25.612  0.00  0.00    -0.000 C 
ATOM     28  C   UNL     1      34.778  -5.679 -25.012  0.00  0.00    -0.000 C 
ATOM     29  C   UNL     1      34.277  -3.409 -26.555  0.00  0.00    -0.000 C 
ATOM     30  C   UNL     1      35.714  -5.257 -25.955  0.00  0.00    -0.000 C 
ATOM     31  C   UNL     1      35.464  -4.121 -26.726  0.00  0.00    +0.000 C 
ENDBRANCH  23  26
ENDBRANCH  19  20
ENDBRANCH   1  19
TORSDOF 4
ENDMDL
MODEL 7
REMARK VINA RESULT:     -11.7      5.818      9.882
REMARK  Name = 208951
REMARK  4 active torsions:
REMARK  status: ('A' for Active; 'I' for Inactive)
REMARK    1  A    between atoms: N_1  and  C_19
REMARK    2  A    between atoms: N_2  and  C_11
REMARK    3  A    between atoms: C_19  and  C_20
REMARK    4  A    between atoms: C_23  and  C_26
REMARK                            x       y       z     vdW  Elec       q    Type
REMARK                         _______ _______ _______ _____ _____    ______ ____
ROOT
ATOM      1  N   UNL     1      34.017 -15.043 -23.559  0.00  0.00    +0.392 N 
ATOM      2  N   UNL     1      35.313 -17.166 -22.154  0.00  0.00    -0.309 N 
ATOM      3  C   UNL     1      34.765 -14.770 -22.326  0.00  0.00    -0.055 C 
ATOM      4  C   UNL     1      34.653 -16.141 -24.296  0.00  0.00    -0.055 C 
ATOM      5  C   UNL     1      34.802 -16.003 -21.420  0.00  0.00    +0.068 C 
ATOM      6  C   UNL     1      34.684 -17.421 -23.457  0.00  0.00    +0.068 C 
ATOM      7  H   UNL     1      33.066 -15.318 -23.313  0.00  0.00    -0.079 HD
ENDROOT
BRANCH   2  11
ATOM      8  O   UNL     1      33.638 -19.193 -20.828  0.00  0.00    -0.406 OA
ATOM      9  O   UNL     1      32.174 -20.692 -19.846  0.00  0.00    -0.223 OA
ATOM     10  N   UNL     1      34.479 -20.993 -19.671  0.00  0.00    -0.287 N 
ATOM     11  C   UNL     1      35.833 -18.258 -21.450  0.00  0.00    +0.084 C 
ATOM     12  C   UNL     1      35.024 -19.204 -20.832  0.00  0.00    +0.179 A 
ATOM     13  C   UNL     1      37.222 -18.466 -21.329  0.00  0.00    +0.018 C 
ATOM     14  C   UNL     1      35.547 -20.276 -20.143  0.00  0.00    +0.098 A 
ATOM     15  C   UNL     1      37.746 -19.566 -20.621  0.00  0.00    +0.003 C 
ATOM     16  C   UNL     1      36.900 -20.495 -20.013  0.00  0.00    +0.020 C 
ATOM     17  C   UNL     1      33.325 -20.344 -20.081  0.00  0.00    +0.419 A 
ATOM     18  H   UNL     1      34.523 -21.818 -19.137  0.00  0.00    +0.172 HD
ENDBRANCH   2  11
BRANCH   1  19
ATOM     19  C   UNL     1      33.943 -13.842 -24.390  0.00  0.00    -0.050 C 
BRANCH  19  20
ATOM     20  C   UNL     1      33.301 -12.705 -23.643  0.00  0.00    -0.043 C 
ATOM     21  C   UNL     1      33.727 -11.404 -23.879  0.00  0.00    -0.006 C 
ATOM     22  C   UNL     1      32.291 -12.970 -22.728  0.00  0.00    -0.006 C 
ATOM     23  C   UNL     1      33.130 -10.350 -23.187  0.00  0.00    -0.000 C 
ATOM     24  C   UNL     1      31.695 -11.916 -22.037  0.00  0.00    -0.000 C 
ATOM     25  C   UNL     1      32.114 -10.606 -22.266  0.00  0.00    -0.000 C 
BRANCH  23  26
ATOM     26  C   UNL     1      33.563  -8.990 -23.426  0.00  0.00    -0.000 C 
ATOM     27  C   UNL     1      34.913  -8.658 -23.312  0.00  0.00    -0.000 C 
ATOM     28  C   UNL     1      32.631  -8.011 -23.772  0.00  0.00    -0.000 C 
ATOM     29  C   UNL     1      35.331  -7.347 -23.542  0.00  0.00    -0.000 C 
ATOM     30  C   UNL     1      33.049  -6.700 -24.002  0.00  0.00    -0.000 C 
ATOM     31  C   UNL     1      34.400  -6.369 -23.888  0.00  0.00    +0.000 C 
ENDBRANCH  23  26
ENDBRANCH  19  20
ENDBRANCH   1  19
TORSDOF 4
ENDMDL
MODEL 8
REMARK VINA RESULT:     -11.6      4.029     10.578
REMARK  Name = 208951
REMARK  4 active torsions:
REMARK  status: ('A' for Active; 'I' for Inactive)
REMARK    1  A    between atoms: N_1  and  C_19
REMARK    2  A    between atoms: N_2  and  C_11
REMARK    3  A    between atoms: C_19  and  C_20
REMARK    4  A    between atoms: C_23  and  C_26
REMARK                            x       y       z     vdW  Elec       q    Type
REMARK                         _______ _______ _______ _____ _____    ______ ____
ROOT
ATOM      1  N   UNL     1      35.959 -20.496 -19.370  0.00  0.00    +0.392 N 
ATOM      2  N   UNL     1      35.319 -18.680 -21.480  0.00  0.00    -0.309 N 
ATOM      3  C   UNL     1      34.781 -20.724 -20.216  0.00  0.00    -0.055 C 
ATOM      4  C   UNL     1      37.026 -19.870 -20.159  0.00  0.00    -0.055 C 
ATOM      5  C   UNL     1      34.251 -19.408 -20.788  0.00  0.00    +0.068 C 
ATOM      6  C   UNL     1      36.572 -18.524 -20.729  0.00  0.00    +0.068 C 
ATOM      7  H   UNL     1      35.701 -19.868 -18.609  0.00  0.00    -0.079 HD
ENDROOT
BRANCH   2  11
ATOM      8  O   UNL     1      34.959 -15.834 -20.815  0.00  0.00    -0.406 OA
ATOM      9  O   UNL     1      34.715 -13.642 -20.115  0.00  0.00    -0.223 OA
ATOM     10  N   UNL     1      34.427 -14.214 -22.356  0.00  0.00    -0.287 N 
ATOM     11  C   UNL     1      34.994 -17.700 -22.425  0.00  0.00    +0.084 C 
ATOM     12  C   UNL     1      34.829 -16.362 -22.089  0.00  0.00    +0.179 A 
ATOM     13  C   UNL     1      34.814 -18.017 -23.787  0.00  0.00    +0.018 C 
ATOM     14  C   UNL     1      34.510 -15.406 -23.029  0.00  0.00    +0.098 A 
ATOM     15  C   UNL     1      34.487 -17.031 -24.739  0.00  0.00    +0.003 C 
ATOM     16  C   UNL     1      34.330 -15.696 -24.362  0.00  0.00    +0.020 C 
ATOM     17  C   UNL     1      34.697 -14.467 -21.021  0.00  0.00    +0.419 A 
ATOM     18  H   UNL     1      34.214 -13.339 -22.751  0.00  0.00    +0.172 HD
ENDBRANCH   2  11
BRANCH   1  19
ATOM     19  C   UNL     1      36.423 -21.754 -18.787  0.00  0.00    -0.050 C 
BRANCH  19  20
ATOM     20  C   UNL     1      35.445 -22.272 -17.767  0.00  0.00    -0.043 C 
ATOM     21  C   UNL     1      35.884 -22.552 -16.479  0.00  0.00    -0.006 C 
ATOM     22  C   UNL     1      34.117 -22.461 -18.125  0.00  0.00    -0.006 C 
ATOM     23  C   UNL     1      34.977 -23.031 -15.534  0.00  0.00    -0.000 C 
ATOM     24  C   UNL     1      33.211 -22.940 -17.180  0.00  0.00    -0.000 C 
ATOM     25  C   UNL     1      33.641 -23.225 -15.885  0.00  0.00    -0.000 C 
BRANCH  23  26
ATOM     26  C   UNL     1      35.421 -23.325 -14.188  0.00  0.00    -0.000 C 
ATOM     27  C   UNL     1      34.542 -23.903 -13.273  0.00  0.00    -0.000 C 
ATOM     28  C   UNL     1      36.731 -23.031 -13.806  0.00  0.00    -0.000 C 
ATOM     29  C   UNL     1      34.970 -24.187 -11.977  0.00  0.00    -0.000 C 
ATOM     30  C   UNL     1      37.159 -23.314 -12.510  0.00  0.00    -0.000 C 
ATOM     31  C   UNL     1      36.279 -23.893 -11.595  0.00  0.00    +0.000 C 
ENDBRANCH  23  26
ENDBRANCH  19  20
ENDBRANCH   1  19
TORSDOF 4
ENDMDL
MODEL 9
REMARK VINA RESULT:     -11.6      7.033     12.452
REMARK  Name = 208951
REMARK  4 active torsions:
REMARK  status: ('A' for Active; 'I' for Inactive)
REMARK    1  A    between atoms: N_1  and  C_19
REMARK    2  A    between atoms: N_2  and  C_11
REMARK    3  A    between atoms: C_19  and  C_20
REMARK    4  A    between atoms: C_23  and  C_26
REMARK                            x       y       z     vdW  Elec       q    Type
REMARK                         _______ _______ _______ _____ _____    ______ ____
ROOT
ATOM      1  N   UNL     1      34.433 -14.794 -22.811  0.00  0.00    +0.392 N 
ATOM      2  N   UNL     1      33.259 -12.206 -22.521  0.00  0.00    -0.309 N 
ATOM      3  C   UNL     1      34.486 -13.826 -23.913  0.00  0.00    -0.055 C 
ATOM      4  C   UNL     1      34.497 -14.090 -21.524  0.00  0.00    -0.055 C 
ATOM      5  C   UNL     1      33.315 -12.843 -23.840  0.00  0.00    +0.068 C 
ATOM      6  C   UNL     1      33.325 -13.117 -21.371  0.00  0.00    +0.068 C 
ATOM      7  H   UNL     1      33.550 -15.304 -22.863  0.00  0.00    -0.079 HD
ENDROOT
BRANCH   2  11
ATOM      8  O   UNL     1      32.326 -11.194 -19.917  0.00  0.00    -0.406 OA
ATOM      9  O   UNL     1      31.667 -10.553 -17.795  0.00  0.00    -0.223 OA
ATOM     10  N   UNL     1      31.200  -9.210 -19.642  0.00  0.00    -0.287 N 
ATOM     11  C   UNL     1      32.573 -10.996 -22.362  0.00  0.00    +0.084 C 
ATOM     12  C   UNL     1      32.142 -10.537 -21.124  0.00  0.00    +0.179 A 
ATOM     13  C   UNL     1      32.279 -10.163 -23.461  0.00  0.00    +0.018 C 
ATOM     14  C   UNL     1      31.468  -9.344 -20.979  0.00  0.00    +0.098 A 
ATOM     15  C   UNL     1      31.588  -8.945 -23.301  0.00  0.00    +0.003 C 
ATOM     16  C   UNL     1      31.171  -8.518 -22.039  0.00  0.00    +0.020 C 
ATOM     17  C   UNL     1      31.715 -10.322 -18.997  0.00  0.00    +0.419 A 
ATOM     18  H   UNL     1      30.727  -8.459 -19.217  0.00  0.00    +0.172 HD
ENDBRANCH   2  11
BRANCH   1  19
ATOM     19  C   UNL     1      35.525 -15.759 -22.922  0.00  0.00    -0.050 C 
BRANCH  19  20
ATOM     20  C   UNL     1      34.999 -17.166 -23.007  0.00  0.00    -0.043 C 
ATOM     21  C   UNL     1      35.039 -17.980 -21.882  0.00  0.00    -0.006 C 
ATOM     22  C   UNL     1      34.479 -17.632 -24.207  0.00  0.00    -0.006 C 
ATOM     23  C   UNL     1      34.550 -19.285 -21.961  0.00  0.00    -0.000 C 
ATOM     24  C   UNL     1      33.991 -18.935 -24.286  0.00  0.00    -0.000 C 
ATOM     25  C   UNL     1      34.027 -19.762 -23.163  0.00  0.00    -0.000 C 
BRANCH  23  26
ATOM     26  C   UNL     1      34.585 -20.142 -20.797  0.00  0.00    -0.000 C 
ATOM     27  C   UNL     1      33.395 -20.583 -20.218  0.00  0.00    -0.000 C 
ATOM     28  C   UNL     1      35.810 -20.529 -20.252  0.00  0.00    -0.000 C 
ATOM     29  C   UNL     1      33.429 -21.410 -19.096  0.00  0.00    -0.000 C 
ATOM     30  C   UNL     1      35.844 -21.356 -19.129  0.00  0.00    -0.000 C 
ATOM     31  C   UNL     1      34.653 -21.797 -18.551  0.00  0.00    +0.000 C 
ENDBRANCH  23  26
ENDBRANCH  19  20
ENDBRANCH   1  19
TORSDOF 4
ENDMDL
