MODEL 1
REMARK VINA RESULT:     -10.8      0.000      0.000
REMARK  Name = 46851313
REMARK  4 active torsions:
REMARK  status: ('A' for Active; 'I' for Inactive)
REMARK    1  A    between atoms: C_3  and  C_19
REMARK    2  A    between atoms: C_6  and  S_21
REMARK    3  A    between atoms: S_21  and  N_24
REMARK    4  A    between atoms: N_24  and  C_27
REMARK                            x       y       z     vdW  Elec       q    Type
REMARK                         _______ _______ _______ _____ _____    ______ ____
ROOT
ATOM      1 CL   UNL     1      38.120 -18.626 -21.469  0.00  0.00    -0.082 Cl
ATOM      2  F   UNL     1      36.418 -21.654 -17.804  0.00  0.00    -0.203 F 
ATOM      3  C   UNL     1      35.604 -19.672 -21.336  0.00  0.00    +0.066 C 
ATOM      4  C   UNL     1      34.614 -20.445 -20.730  0.00  0.00    +0.028 C 
ATOM      5  C   UNL     1      36.866 -19.570 -20.749  0.00  0.00    +0.064 C 
ATOM      6  C   UNL     1      34.885 -21.115 -19.537  0.00  0.00    +0.153 C 
ATOM      7  C   UNL     1      37.137 -20.240 -19.556  0.00  0.00    +0.043 C 
ATOM      8  C   UNL     1      36.146 -21.013 -18.950  0.00  0.00    +0.160 C 
ENDROOT
BRANCH   3  19
ATOM      9  O   UNL     1      35.116 -19.700 -23.578  0.00  0.00    -0.270 OA
ATOM     10  N   UNL     1      34.246 -14.913 -22.509  0.00  0.00    +0.391 N 
ATOM     11  N   UNL     1      35.168 -17.590 -22.571  0.00  0.00    -0.280 N 
ATOM     12  C   UNL     1      34.372 -15.676 -21.265  0.00  0.00    -0.038 C 
ATOM     13  C   UNL     1      34.651 -14.567 -20.266  0.00  0.00    -0.021 C 
ATOM     14  C   UNL     1      33.351 -13.808 -22.187  0.00  0.00    -0.077 C 
ATOM     15  C   UNL     1      35.458 -16.732 -21.405  0.00  0.00    +0.073 C 
ATOM     16  C   UNL     1      33.805 -13.398 -20.784  0.00  0.00    -0.025 C 
ATOM     17  C   UNL     1      33.805 -15.770 -23.602  0.00  0.00    -0.055 C 
ATOM     18  C   UNL     1      34.846 -16.876 -23.815  0.00  0.00    +0.071 C 
ATOM     19  C   UNL     1      35.273 -18.984 -22.590  0.00  0.00    +0.250 C 
ATOM     20  H   UNL     1      35.130 -14.537 -22.850  0.00  0.00    -0.079 HD
ENDBRANCH   3  19
BRANCH   6  21
ATOM     21  S   UNL     1      33.642 -22.082 -18.781  0.00  0.00    +0.076 S 
ATOM     22  O   UNL     1      32.421 -21.287 -18.745  0.00  0.00    -0.150 OA
ATOM     23  O   UNL     1      33.610 -23.388 -19.430  0.00  0.00    -0.150 OA
BRANCH  21  24
ATOM     24  N   UNL     1      34.219 -22.252 -17.167  0.00  0.00    -0.213 N 
ATOM     25  H   UNL     1      35.103 -21.905 -16.906  0.00  0.00    +0.174 HD
BRANCH  24  27
ATOM     26  F   UNL     1      35.254 -23.468 -14.871  0.00  0.00    -0.203 F 
ATOM     27  C   UNL     1      33.374 -22.916 -16.213  0.00  0.00    +0.092 C 
ATOM     28  C   UNL     1      33.930 -23.509 -15.079  0.00  0.00    +0.155 C 
ATOM     29  C   UNL     1      31.995 -22.966 -16.420  0.00  0.00    +0.018 C 
ATOM     30  C   UNL     1      33.108 -24.154 -14.154  0.00  0.00    +0.031 C 
ATOM     31  C   UNL     1      31.174 -23.609 -15.495  0.00  0.00    +0.001 C 
ATOM     32  C   UNL     1      31.730 -24.203 -14.362  0.00  0.00    +0.002 C 
ENDBRANCH  24  27
ENDBRANCH  21  24
ENDBRANCH   6  21
TORSDOF 4
ENDMDL
MODEL 2
REMARK VINA RESULT:     -10.7      4.232      8.741
REMARK  Name = 46851313
REMARK  4 active torsions:
REMARK  status: ('A' for Active; 'I' for Inactive)
REMARK    1  A    between atoms: C_3  and  C_19
REMARK    2  A    between atoms: C_6  and  S_21
REMARK    3  A    between atoms: S_21  and  N_24
REMARK    4  A    between atoms: N_24  and  C_27
REMARK                            x       y       z     vdW  Elec       q    Type
REMARK                         _______ _______ _______ _____ _____    ______ ____
ROOT
ATOM      1 CL   UNL     1      35.410 -19.822 -23.961  0.00  0.00    -0.082 Cl
ATOM      2  F   UNL     1      33.365 -15.206 -24.061  0.00  0.00    -0.203 F 
ATOM      3  C   UNL     1      35.787 -17.894 -22.068  0.00  0.00    +0.066 C 
ATOM      4  C   UNL     1      35.580 -16.621 -21.537  0.00  0.00    +0.028 C 
ATOM      5  C   UNL     1      35.177 -18.257 -23.269  0.00  0.00    +0.064 C 
ATOM      6  C   UNL     1      34.763 -15.711 -22.207  0.00  0.00    +0.153 C 
ATOM      7  C   UNL     1      34.359 -17.347 -23.939  0.00  0.00    +0.043 C 
ATOM      8  C   UNL     1      34.152 -16.073 -23.408  0.00  0.00    +0.160 C 
ENDROOT
BRANCH   3  19
ATOM      9  O   UNL     1      37.854 -18.544 -21.311  0.00  0.00    -0.270 OA
ATOM     10  N   UNL     1      34.931 -21.758 -18.873  0.00  0.00    +0.391 N 
ATOM     11  N   UNL     1      36.066 -19.927 -20.712  0.00  0.00    -0.280 N 
ATOM     12  C   UNL     1      34.109 -20.692 -19.453  0.00  0.00    -0.038 C 
ATOM     13  C   UNL     1      32.735 -21.339 -19.434  0.00  0.00    -0.021 C 
ATOM     14  C   UNL     1      34.207 -22.193 -17.685  0.00  0.00    -0.077 C 
ATOM     15  C   UNL     1      34.643 -20.304 -20.823  0.00  0.00    +0.073 C 
ATOM     16  C   UNL     1      32.748 -22.172 -18.147  0.00  0.00    -0.025 C 
ATOM     17  C   UNL     1      36.292 -21.293 -18.634  0.00  0.00    -0.055 C 
ATOM     18  C   UNL     1      36.913 -20.873 -19.972  0.00  0.00    +0.071 C 
ATOM     19  C   UNL     1      36.655 -18.819 -21.328  0.00  0.00    +0.250 C 
ATOM     20  H   UNL     1      35.064 -22.556 -19.493  0.00  0.00    -0.079 HD
ENDBRANCH   3  19
BRANCH   6  21
ATOM     21  S   UNL     1      34.506 -14.117 -21.540  0.00  0.00    +0.076 S 
ATOM     22  O   UNL     1      35.282 -14.020 -20.310  0.00  0.00    -0.150 OA
ATOM     23  O   UNL     1      34.730 -13.131 -22.590  0.00  0.00    -0.150 OA
BRANCH  21  24
ATOM     24  N   UNL     1      32.836 -14.144 -21.119  0.00  0.00    -0.213 N 
ATOM     25  H   UNL     1      32.338 -14.993 -21.077  0.00  0.00    +0.174 HD
BRANCH  24  27
ATOM     26  F   UNL     1      31.377 -12.751 -23.057  0.00  0.00    -0.203 F 
ATOM     27  C   UNL     1      32.191 -12.892 -20.830  0.00  0.00    +0.092 C 
ATOM     28  C   UNL     1      31.472 -12.230 -21.825  0.00  0.00    +0.155 C 
ATOM     29  C   UNL     1      32.285 -12.339 -19.552  0.00  0.00    +0.018 C 
ATOM     30  C   UNL     1      30.847 -11.014 -21.543  0.00  0.00    +0.031 C 
ATOM     31  C   UNL     1      31.659 -11.125 -19.270  0.00  0.00    +0.001 C 
ATOM     32  C   UNL     1      30.941 -10.462 -20.266  0.00  0.00    +0.002 C 
ENDBRANCH  24  27
ENDBRANCH  21  24
ENDBRANCH   6  21
TORSDOF 4
ENDMDL
MODEL 3
REMARK VINA RESULT:     -10.6      4.118      9.607
REMARK  Name = 46851313
REMARK  4 active torsions:
REMARK  status: ('A' for Active; 'I' for Inactive)
REMARK    1  A    between atoms: C_3  and  C_19
REMARK    2  A    between atoms: C_6  and  S_21
REMARK    3  A    between atoms: S_21  and  N_24
REMARK    4  A    between atoms: N_24  and  C_27
REMARK                            x       y       z     vdW  Elec       q    Type
REMARK                         _______ _______ _______ _____ _____    ______ ____
ROOT
ATOM      1 CL   UNL     1      30.832 -23.540 -12.727  0.00  0.00    -0.082 Cl
ATOM      2  F   UNL     1      31.366 -22.155 -17.553  0.00  0.00    -0.203 F 
ATOM      3  C   UNL     1      33.096 -23.862 -14.214  0.00  0.00    +0.066 C 
ATOM      4  C   UNL     1      33.833 -23.742 -15.391  0.00  0.00    +0.028 C 
ATOM      5  C   UNL     1      31.779 -23.406 -14.165  0.00  0.00    +0.064 C 
ATOM      6  C   UNL     1      33.252 -23.165 -16.521  0.00  0.00    +0.153 C 
ATOM      7  C   UNL     1      31.198 -22.830 -15.295  0.00  0.00    +0.043 C 
ATOM      8  C   UNL     1      31.935 -22.709 -16.473  0.00  0.00    +0.160 C 
ENDROOT
BRANCH   3  19
ATOM      9  O   UNL     1      33.006 -25.003 -12.224  0.00  0.00    -0.270 OA
ATOM     10  N   UNL     1      37.922 -24.953 -13.032  0.00  0.00    +0.391 N 
ATOM     11  N   UNL     1      35.143 -24.407 -12.964  0.00  0.00    -0.280 N 
ATOM     12  C   UNL     1      37.222 -24.546 -14.253  0.00  0.00    -0.038 C 
ATOM     13  C   UNL     1      38.338 -23.854 -15.015  0.00  0.00    -0.021 C 
ATOM     14  C   UNL     1      39.157 -25.576 -13.493  0.00  0.00    -0.077 C 
ATOM     15  C   UNL     1      36.019 -23.683 -13.906  0.00  0.00    +0.073 C 
ATOM     16  C   UNL     1      39.581 -24.676 -14.656  0.00  0.00    -0.025 C 
ATOM     17  C   UNL     1      37.072 -25.800 -12.204  0.00  0.00    -0.055 C 
ATOM     18  C   UNL     1      35.822 -25.006 -11.805  0.00  0.00    +0.071 C 
ATOM     19  C   UNL     1      33.749 -24.475 -13.050  0.00  0.00    +0.250 C 
ATOM     20  H   UNL     1      38.151 -24.177 -12.413  0.00  0.00    -0.079 HD
ENDBRANCH   3  19
BRANCH   6  21
ATOM     21  S   UNL     1      34.178 -23.017 -17.995  0.00  0.00    +0.076 S 
ATOM     22  O   UNL     1      35.554 -22.709 -17.627  0.00  0.00    -0.150 OA
ATOM     23  O   UNL     1      33.919 -24.186 -18.827  0.00  0.00    -0.150 OA
BRANCH  21  24
ATOM     24  N   UNL     1      33.495 -21.619 -18.735  0.00  0.00    -0.213 N 
ATOM     25  H   UNL     1      32.556 -21.368 -18.574  0.00  0.00    +0.174 HD
BRANCH  24  27
ATOM     26  F   UNL     1      32.458 -20.161 -20.885  0.00  0.00    -0.203 F 
ATOM     27  C   UNL     1      34.335 -20.829 -19.593  0.00  0.00    +0.092 C 
ATOM     28  C   UNL     1      33.778 -20.116 -20.655  0.00  0.00    +0.155 C 
ATOM     29  C   UNL     1      35.711 -20.776 -19.364  0.00  0.00    +0.018 C 
ATOM     30  C   UNL     1      34.595 -19.351 -21.488  0.00  0.00    +0.031 C 
ATOM     31  C   UNL     1      36.527 -20.010 -20.196  0.00  0.00    +0.001 C 
ATOM     32  C   UNL     1      35.970 -19.298 -21.258  0.00  0.00    +0.002 C 
ENDBRANCH  24  27
ENDBRANCH  21  24
ENDBRANCH   6  21
TORSDOF 4
ENDMDL
MODEL 4
REMARK VINA RESULT:     -10.3      7.605     11.255
REMARK  Name = 46851313
REMARK  4 active torsions:
REMARK  status: ('A' for Active; 'I' for Inactive)
REMARK    1  A    between atoms: C_3  and  C_19
REMARK    2  A    between atoms: C_6  and  S_21
REMARK    3  A    between atoms: S_21  and  N_24
REMARK    4  A    between atoms: N_24  and  C_27
REMARK                            x       y       z     vdW  Elec       q    Type
REMARK                         _______ _______ _______ _____ _____    ______ ____
ROOT
ATOM      1 CL   UNL     1      34.468  -6.655 -22.929  0.00  0.00    -0.082 Cl
ATOM      2  F   UNL     1      35.004 -11.478 -24.324  0.00  0.00    -0.203 F 
ATOM      3  C   UNL     1      32.886  -8.717 -22.099  0.00  0.00    +0.066 C 
ATOM      4  C   UNL     1      32.511 -10.059 -22.077  0.00  0.00    +0.028 C 
ATOM      5  C   UNL     1      33.974  -8.308 -22.872  0.00  0.00    +0.064 C 
ATOM      6  C   UNL     1      33.224 -10.995 -22.826  0.00  0.00    +0.153 C 
ATOM      7  C   UNL     1      34.687  -9.244 -23.621  0.00  0.00    +0.043 C 
ATOM      8  C   UNL     1      34.313 -10.588 -23.598  0.00  0.00    +0.160 C 
ENDROOT
BRANCH   3  19
ATOM      9  O   UNL     1      32.125  -7.943 -20.077  0.00  0.00    -0.270 OA
ATOM     10  N   UNL     1      30.555  -4.307 -23.099  0.00  0.00    +0.391 N 
ATOM     11  N   UNL     1      31.406  -6.757 -21.959  0.00  0.00    -0.280 N 
ATOM     12  C   UNL     1      31.509  -5.159 -23.814  0.00  0.00    -0.038 C 
ATOM     13  C   UNL     1      31.193  -4.807 -25.257  0.00  0.00    -0.021 C 
ATOM     14  C   UNL     1      30.693  -2.990 -23.707  0.00  0.00    -0.077 C 
ATOM     15  C   UNL     1      31.306  -6.616 -23.425  0.00  0.00    +0.073 C 
ATOM     16  C   UNL     1      30.850  -3.314 -25.194  0.00  0.00    -0.025 C 
ATOM     17  C   UNL     1      30.792  -4.355 -21.662  0.00  0.00    -0.055 C 
ATOM     18  C   UNL     1      30.611  -5.799 -21.178  0.00  0.00    +0.071 C 
ATOM     19  C   UNL     1      32.106  -7.768 -21.294  0.00  0.00    +0.250 C 
ATOM     20  H   UNL     1      29.587  -4.614 -23.185  0.00  0.00    -0.079 HD
ENDBRANCH   3  19
BRANCH   6  21
ATOM     21  S   UNL     1      32.752 -12.676 -22.796  0.00  0.00    +0.076 S 
ATOM     22  O   UNL     1      31.607 -12.800 -21.902  0.00  0.00    -0.150 OA
ATOM     23  O   UNL     1      32.624 -13.148 -24.169  0.00  0.00    -0.150 OA
BRANCH  21  24
ATOM     24  N   UNL     1      34.102 -13.439 -22.046  0.00  0.00    -0.213 N 
ATOM     25  H   UNL     1      34.629 -12.973 -21.356  0.00  0.00    +0.174 HD
BRANCH  24  27
ATOM     26  F   UNL     1      34.985 -15.367 -20.222  0.00  0.00    -0.203 F 
ATOM     27  C   UNL     1      34.438 -14.775 -22.456  0.00  0.00    +0.092 C 
ATOM     28  C   UNL     1      34.874 -15.707 -21.514  0.00  0.00    +0.155 C 
ATOM     29  C   UNL     1      34.328 -15.140 -23.798  0.00  0.00    +0.018 C 
ATOM     30  C   UNL     1      35.201 -17.003 -21.914  0.00  0.00    +0.031 C 
ATOM     31  C   UNL     1      34.653 -16.436 -24.197  0.00  0.00    +0.001 C 
ATOM     32  C   UNL     1      35.090 -17.368 -23.256  0.00  0.00    +0.002 C 
ENDBRANCH  24  27
ENDBRANCH  21  24
ENDBRANCH   6  21
TORSDOF 4
ENDMDL
MODEL 5
REMARK VINA RESULT:     -10.2      3.458      8.685
REMARK  Name = 46851313
REMARK  4 active torsions:
REMARK  status: ('A' for Active; 'I' for Inactive)
REMARK    1  A    between atoms: C_3  and  C_19
REMARK    2  A    between atoms: C_6  and  S_21
REMARK    3  A    between atoms: S_21  and  N_24
REMARK    4  A    between atoms: N_24  and  C_27
REMARK                            x       y       z     vdW  Elec       q    Type
REMARK                         _______ _______ _______ _____ _____    ______ ____
ROOT
ATOM      1 CL   UNL     1      36.833 -23.150 -13.176  0.00  0.00    -0.082 Cl
ATOM      2  F   UNL     1      37.179 -21.331 -17.874  0.00  0.00    -0.203 F 
ATOM      3  C   UNL     1      34.917 -23.397 -15.103  0.00  0.00    +0.066 C 
ATOM      4  C   UNL     1      34.417 -23.185 -16.387  0.00  0.00    +0.028 C 
ATOM      5  C   UNL     1      36.179 -22.912 -14.757  0.00  0.00    +0.064 C 
ATOM      6  C   UNL     1      35.178 -22.488 -17.326  0.00  0.00    +0.153 C 
ATOM      7  C   UNL     1      36.940 -22.215 -15.696  0.00  0.00    +0.043 C 
ATOM      8  C   UNL     1      36.439 -22.003 -16.981  0.00  0.00    +0.160 C 
ENDROOT
BRANCH   3  19
ATOM      9  O   UNL     1      34.658 -24.605 -13.169  0.00  0.00    -0.270 OA
ATOM     10  N   UNL     1      29.899 -23.960 -14.493  0.00  0.00    +0.391 N 
ATOM     11  N   UNL     1      32.715 -24.256 -14.423  0.00  0.00    -0.280 N 
ATOM     12  C   UNL     1      30.752 -23.072 -15.288  0.00  0.00    -0.038 C 
ATOM     13  C   UNL     1      29.830 -22.740 -16.448  0.00  0.00    -0.021 C 
ATOM     14  C   UNL     1      28.619 -23.270 -14.398  0.00  0.00    -0.077 C 
ATOM     15  C   UNL     1      32.050 -23.778 -15.651  0.00  0.00    +0.073 C 
ATOM     16  C   UNL     1      28.444 -22.677 -15.797  0.00  0.00    -0.025 C 
ATOM     17  C   UNL     1      30.528 -24.281 -13.218  0.00  0.00    -0.055 C 
ATOM     18  C   UNL     1      31.857 -24.998 -13.488  0.00  0.00    +0.071 C 
ATOM     19  C   UNL     1      34.081 -24.136 -14.149  0.00  0.00    +0.250 C 
ATOM     20  H   UNL     1      29.753 -24.875 -14.917  0.00  0.00    -0.079 HD
ENDBRANCH   3  19
BRANCH   6  21
ATOM     21  S   UNL     1      34.548 -22.225 -18.934  0.00  0.00    +0.076 S 
ATOM     22  O   UNL     1      35.527 -22.736 -19.885  0.00  0.00    -0.150 OA
ATOM     23  O   UNL     1      33.183 -22.736 -18.988  0.00  0.00    -0.150 OA
BRANCH  21  24
ATOM     24  N   UNL     1      34.527 -20.507 -19.058  0.00  0.00    -0.213 N 
ATOM     25  H   UNL     1      34.151 -19.951 -18.336  0.00  0.00    +0.174 HD
BRANCH  24  27
ATOM     26  F   UNL     1      33.023 -20.228 -21.400  0.00  0.00    -0.203 F 
ATOM     27  C   UNL     1      35.073 -19.907 -20.245  0.00  0.00    +0.092 C 
ATOM     28  C   UNL     1      34.290 -19.787 -21.393  0.00  0.00    +0.155 C 
ATOM     29  C   UNL     1      36.390 -19.447 -20.249  0.00  0.00    +0.018 C 
ATOM     30  C   UNL     1      34.822 -19.206 -22.544  0.00  0.00    +0.031 C 
ATOM     31  C   UNL     1      36.922 -18.865 -21.399  0.00  0.00    +0.001 C 
ATOM     32  C   UNL     1      36.139 -18.745 -22.547  0.00  0.00    +0.002 C 
ENDBRANCH  24  27
ENDBRANCH  21  24
ENDBRANCH   6  21
TORSDOF 4
ENDMDL
MODEL 6
REMARK VINA RESULT:     -10.0      7.000     10.273
REMARK  Name = 46851313
REMARK  4 active torsions:
REMARK  status: ('A' for Active; 'I' for Inactive)
REMARK    1  A    between atoms: C_3  and  C_19
REMARK    2  A    between atoms: C_6  and  S_21
REMARK    3  A    between atoms: S_21  and  N_24
REMARK    4  A    between atoms: N_24  and  C_27
REMARK                            x       y       z     vdW  Elec       q    Type
REMARK                         _______ _______ _______ _____ _____    ______ ____
ROOT
ATOM      1 CL   UNL     1      31.531 -10.422 -17.477  0.00  0.00    -0.082 Cl
ATOM      2  F   UNL     1      32.319 -14.216 -20.715  0.00  0.00    -0.203 F 
ATOM      3  C   UNL     1      32.256 -10.134 -20.091  0.00  0.00    +0.066 C 
ATOM      4  C   UNL     1      32.590 -10.638 -21.347  0.00  0.00    +0.028 C 
ATOM      5  C   UNL     1      31.945 -11.007 -19.048  0.00  0.00    +0.064 C 
ATOM      6  C   UNL     1      32.611 -12.016 -21.562  0.00  0.00    +0.153 C 
ATOM      7  C   UNL     1      31.967 -12.385 -19.263  0.00  0.00    +0.043 C 
ATOM      8  C   UNL     1      32.300 -12.890 -20.520  0.00  0.00    +0.160 C 
ENDROOT
BRANCH   3  19
ATOM      9  O   UNL     1      32.470  -8.266 -18.774  0.00  0.00    -0.270 OA
ATOM     10  N   UNL     1      32.165  -6.177 -23.287  0.00  0.00    +0.391 N 
ATOM     11  N   UNL     1      31.981  -7.876 -21.027  0.00  0.00    -0.280 N 
ATOM     12  C   UNL     1      32.390  -7.618 -23.429  0.00  0.00    -0.038 C 
ATOM     13  C   UNL     1      31.947  -7.844 -24.864  0.00  0.00    -0.021 C 
ATOM     14  C   UNL     1      32.767  -5.580 -24.472  0.00  0.00    -0.077 C 
ATOM     15  C   UNL     1      31.613  -8.379 -22.365  0.00  0.00    +0.073 C 
ATOM     16  C   UNL     1      32.388  -6.564 -25.581  0.00  0.00    -0.025 C 
ATOM     17  C   UNL     1      32.687  -5.693 -22.015  0.00  0.00    -0.055 C 
ATOM     18  C   UNL     1      31.957  -6.414 -20.874  0.00  0.00    +0.071 C 
ATOM     19  C   UNL     1      32.246  -8.676 -19.912  0.00  0.00    +0.250 C 
ATOM     20  H   UNL     1      31.180  -5.919 -23.248  0.00  0.00    -0.079 HD
ENDBRANCH   3  19
BRANCH   6  21
ATOM     21  S   UNL     1      33.029 -12.644 -23.137  0.00  0.00    +0.076 S 
ATOM     22  O   UNL     1      32.094 -13.718 -23.450  0.00  0.00    -0.150 OA
ATOM     23  O   UNL     1      33.152 -11.527 -24.066  0.00  0.00    -0.150 OA
BRANCH  21  24
ATOM     24  N   UNL     1      34.580 -13.346 -22.869  0.00  0.00    -0.213 N 
ATOM     25  H   UNL     1      35.354 -12.786 -22.629  0.00  0.00    +0.174 HD
BRANCH  24  27
ATOM     26  F   UNL     1      35.086 -15.000 -20.671  0.00  0.00    -0.203 F 
ATOM     27  C   UNL     1      34.711 -14.771 -23.005  0.00  0.00    +0.092 C 
ATOM     28  C   UNL     1      34.962 -15.560 -21.883  0.00  0.00    +0.155 C 
ATOM     29  C   UNL     1      34.586 -15.365 -24.261  0.00  0.00    +0.018 C 
ATOM     30  C   UNL     1      35.090 -16.943 -22.017  0.00  0.00    +0.031 C 
ATOM     31  C   UNL     1      34.712 -16.747 -24.395  0.00  0.00    +0.001 C 
ATOM     32  C   UNL     1      34.965 -17.536 -23.273  0.00  0.00    +0.002 C 
ENDBRANCH  24  27
ENDBRANCH  21  24
ENDBRANCH   6  21
TORSDOF 4
ENDMDL
MODEL 7
REMARK VINA RESULT:      -9.7      6.330      8.365
REMARK  Name = 46851313
REMARK  4 active torsions:
REMARK  status: ('A' for Active; 'I' for Inactive)
REMARK    1  A    between atoms: C_3  and  C_19
REMARK    2  A    between atoms: C_6  and  S_21
REMARK    3  A    between atoms: S_21  and  N_24
REMARK    4  A    between atoms: N_24  and  C_27
REMARK                            x       y       z     vdW  Elec       q    Type
REMARK                         _______ _______ _______ _____ _____    ______ ____
ROOT
ATOM      1 CL   UNL     1      36.810 -20.891 -16.480  0.00  0.00    -0.082 Cl
ATOM      2  F   UNL     1      39.373 -24.638 -14.268  0.00  0.00    -0.203 F 
ATOM      3  C   UNL     1      35.844 -23.401 -16.023  0.00  0.00    +0.066 C 
ATOM      4  C   UNL     1      35.962 -24.707 -15.549  0.00  0.00    +0.028 C 
ATOM      5  C   UNL     1      36.915 -22.516 -15.903  0.00  0.00    +0.064 C 
ATOM      6  C   UNL     1      37.152 -25.129 -14.956  0.00  0.00    +0.153 C 
ATOM      7  C   UNL     1      38.105 -22.937 -15.310  0.00  0.00    +0.043 C 
ATOM      8  C   UNL     1      38.224 -24.244 -14.836  0.00  0.00    +0.160 C 
ENDROOT
BRANCH   3  19
ATOM      9  O   UNL     1      34.627 -22.643 -17.815  0.00  0.00    -0.270 OA
ATOM     10  N   UNL     1      30.966 -23.775 -14.632  0.00  0.00    +0.391 N 
ATOM     11  N   UNL     1      33.415 -23.052 -15.857  0.00  0.00    -0.280 N 
ATOM     12  C   UNL     1      32.227 -24.346 -14.150  0.00  0.00    -0.038 C 
ATOM     13  C   UNL     1      31.897 -24.593 -12.688  0.00  0.00    -0.021 C 
ATOM     14  C   UNL     1      29.928 -24.667 -14.127  0.00  0.00    -0.077 C 
ATOM     15  C   UNL     1      33.375 -23.386 -14.420  0.00  0.00    +0.073 C 
ATOM     16  C   UNL     1      30.420 -25.000 -12.717  0.00  0.00    -0.025 C 
ATOM     17  C   UNL     1      30.991 -23.609 -16.079  0.00  0.00    -0.055 C 
ATOM     18  C   UNL     1      32.130 -22.650 -16.448  0.00  0.00    +0.071 C 
ATOM     19  C   UNL     1      34.572 -23.002 -16.640  0.00  0.00    +0.250 C 
ATOM     20  H   UNL     1      30.787 -22.831 -14.292  0.00  0.00    -0.079 HD
ENDBRANCH   3  19
BRANCH   6  21
ATOM     21  S   UNL     1      37.297 -26.766 -14.364  0.00  0.00    +0.076 S 
ATOM     22  O   UNL     1      36.399 -27.603 -15.149  0.00  0.00    -0.150 OA
ATOM     23  O   UNL     1      38.711 -27.116 -14.306  0.00  0.00    -0.150 OA
BRANCH  21  24
ATOM     24  N   UNL     1      36.663 -26.651 -12.766  0.00  0.00    -0.213 N 
ATOM     25  H   UNL     1      36.281 -27.440 -12.315  0.00  0.00    +0.174 HD
BRANCH  24  27
ATOM     26  F   UNL     1      39.052 -25.581 -11.781  0.00  0.00    -0.203 F 
ATOM     27  C   UNL     1      36.709 -25.373 -12.110  0.00  0.00    +0.092 C 
ATOM     28  C   UNL     1      37.922 -24.875 -11.633  0.00  0.00    +0.155 C 
ATOM     29  C   UNL     1      35.539 -24.631 -11.949  0.00  0.00    +0.018 C 
ATOM     30  C   UNL     1      37.965 -23.635 -10.996  0.00  0.00    +0.031 C 
ATOM     31  C   UNL     1      35.582 -23.391 -11.313  0.00  0.00    +0.001 C 
ATOM     32  C   UNL     1      36.794 -22.893 -10.835  0.00  0.00    +0.002 C 
ENDBRANCH  24  27
ENDBRANCH  21  24
ENDBRANCH   6  21
TORSDOF 4
ENDMDL
MODEL 8
REMARK VINA RESULT:      -9.6      5.897      8.851
REMARK  Name = 46851313
REMARK  4 active torsions:
REMARK  status: ('A' for Active; 'I' for Inactive)
REMARK    1  A    between atoms: C_3  and  C_19
REMARK    2  A    between atoms: C_6  and  S_21
REMARK    3  A    between atoms: S_21  and  N_24
REMARK    4  A    between atoms: N_24  and  C_27
REMARK                            x       y       z     vdW  Elec       q    Type
REMARK                         _______ _______ _______ _____ _____    ______ ____
ROOT
ATOM      1 CL   UNL     1      31.655 -11.209 -19.131  0.00  0.00    -0.082 Cl
ATOM      2  F   UNL     1      34.362 -15.107 -20.856  0.00  0.00    -0.203 F 
ATOM      3  C   UNL     1      32.044 -11.811 -21.763  0.00  0.00    +0.066 C 
ATOM      4  C   UNL     1      32.577 -12.587 -22.791  0.00  0.00    +0.028 C 
ATOM      5  C   UNL     1      32.294 -12.147 -20.432  0.00  0.00    +0.064 C 
ATOM      6  C   UNL     1      33.360 -13.702 -22.488  0.00  0.00    +0.153 C 
ATOM      7  C   UNL     1      33.077 -13.261 -20.130  0.00  0.00    +0.043 C 
ATOM      8  C   UNL     1      33.610 -14.039 -21.158  0.00  0.00    +0.160 C 
ENDROOT
BRANCH   3  19
ATOM      9  O   UNL     1      30.041 -10.689 -21.798  0.00  0.00    -0.270 OA
ATOM     10  N   UNL     1      33.094  -7.170 -23.562  0.00  0.00    +0.391 N 
ATOM     11  N   UNL     1      31.840  -9.599 -22.820  0.00  0.00    -0.280 N 
ATOM     12  C   UNL     1      33.886  -8.263 -22.991  0.00  0.00    -0.038 C 
ATOM     13  C   UNL     1      35.238  -8.015 -23.638  0.00  0.00    -0.021 C 
ATOM     14  C   UNL     1      33.917  -5.978 -23.396  0.00  0.00    -0.077 C 
ATOM     15  C   UNL     1      33.235  -9.602 -23.302  0.00  0.00    +0.073 C 
ATOM     16  C   UNL     1      35.325  -6.487 -23.713  0.00  0.00    -0.025 C 
ATOM     17  C   UNL     1      31.776  -7.106 -22.944  0.00  0.00    -0.055 C 
ATOM     18  C   UNL     1      31.042  -8.427 -23.206  0.00  0.00    +0.071 C 
ATOM     19  C   UNL     1      31.225 -10.648 -22.129  0.00  0.00    +0.250 C 
ATOM     20  H   UNL     1      32.882  -7.293 -24.552  0.00  0.00    -0.079 HD
ENDBRANCH   3  19
BRANCH   6  21
ATOM     21  S   UNL     1      34.026 -14.672 -23.779  0.00  0.00    +0.076 S 
ATOM     22  O   UNL     1      32.963 -15.532 -24.283  0.00  0.00    -0.150 OA
ATOM     23  O   UNL     1      34.720 -13.793 -24.712  0.00  0.00    -0.150 OA
BRANCH  21  24
ATOM     24  N   UNL     1      35.172 -15.663 -22.958  0.00  0.00    -0.213 N 
ATOM     25  H   UNL     1      35.902 -15.263 -22.431  0.00  0.00    +0.174 HD
BRANCH  24  27
ATOM     26  F   UNL     1      35.998 -17.385 -20.915  0.00  0.00    -0.203 F 
ATOM     27  C   UNL     1      35.032 -17.090 -23.064  0.00  0.00    +0.092 C 
ATOM     28  C   UNL     1      35.456 -17.914 -22.022  0.00  0.00    +0.155 C 
ATOM     29  C   UNL     1      34.471 -17.651 -24.212  0.00  0.00    +0.018 C 
ATOM     30  C   UNL     1      35.320 -19.298 -22.126  0.00  0.00    +0.031 C 
ATOM     31  C   UNL     1      34.334 -19.035 -24.316  0.00  0.00    +0.001 C 
ATOM     32  C   UNL     1      34.758 -19.859 -23.274  0.00  0.00    +0.002 C 
ENDBRANCH  24  27
ENDBRANCH  21  24
ENDBRANCH   6  21
TORSDOF 4
ENDMDL
MODEL 9
REMARK VINA RESULT:      -9.6      8.401     12.201
REMARK  Name = 46851313
REMARK  4 active torsions:
REMARK  status: ('A' for Active; 'I' for Inactive)
REMARK    1  A    between atoms: C_3  and  C_19
REMARK    2  A    between atoms: C_6  and  S_21
REMARK    3  A    between atoms: S_21  and  N_24
REMARK    4  A    between atoms: N_24  and  C_27
REMARK                            x       y       z     vdW  Elec       q    Type
REMARK                         _______ _______ _______ _____ _____    ______ ____
ROOT
ATOM      1 CL   UNL     1      32.286  -5.109 -20.418  0.00  0.00    -0.082 Cl
ATOM      2  F   UNL     1      33.070  -9.942 -19.179  0.00  0.00    -0.203 F 
ATOM      3  C   UNL     1      31.603  -7.257 -21.955  0.00  0.00    +0.066 C 
ATOM      4  C   UNL     1      31.528  -8.626 -22.208  0.00  0.00    +0.028 C 
ATOM      5  C   UNL     1      32.172  -6.797 -20.767  0.00  0.00    +0.064 C 
ATOM      6  C   UNL     1      32.022  -9.536 -21.273  0.00  0.00    +0.153 C 
ATOM      7  C   UNL     1      32.665  -7.706 -19.832  0.00  0.00    +0.043 C 
ATOM      8  C   UNL     1      32.591  -9.076 -20.084  0.00  0.00    +0.160 C 
ENDROOT
BRANCH   3  19
ATOM      9  O   UNL     1      29.936  -5.904 -22.767  0.00  0.00    -0.270 OA
ATOM     10  N   UNL     1      33.629  -4.807 -25.926  0.00  0.00    +0.391 N 
ATOM     11  N   UNL     1      31.874  -6.032 -24.070  0.00  0.00    -0.280 N 
ATOM     12  C   UNL     1      34.168  -5.551 -24.783  0.00  0.00    -0.038 C 
ATOM     13  C   UNL     1      35.492  -6.035 -25.346  0.00  0.00    -0.021 C 
ATOM     14  C   UNL     1      34.727  -3.962 -26.379  0.00  0.00    -0.077 C 
ATOM     15  C   UNL     1      33.191  -6.635 -24.355  0.00  0.00    +0.073 C 
ATOM     16  C   UNL     1      35.944  -4.880 -26.246  0.00  0.00    -0.025 C 
ATOM     17  C   UNL     1      32.411  -4.098 -25.556  0.00  0.00    -0.055 C 
ATOM     18  C   UNL     1      31.361  -5.120 -25.103  0.00  0.00    +0.071 C 
ATOM     19  C   UNL     1      31.070  -6.337 -22.968  0.00  0.00    +0.250 C 
ATOM     20  H   UNL     1      33.327  -5.403 -26.696  0.00  0.00    -0.079 HD
ENDBRANCH   3  19
BRANCH   6  21
ATOM     21  S   UNL     1      31.927 -11.250 -21.593  0.00  0.00    +0.076 S 
ATOM     22  O   UNL     1      32.047 -11.948 -20.319  0.00  0.00    -0.150 OA
ATOM     23  O   UNL     1      30.757 -11.504 -22.425  0.00  0.00    -0.150 OA
BRANCH  21  24
ATOM     24  N   UNL     1      33.359 -11.548 -22.504  0.00  0.00    -0.213 N 
ATOM     25  H   UNL     1      34.001 -10.825 -22.688  0.00  0.00    +0.174 HD
BRANCH  24  27
ATOM     26  F   UNL     1      34.763 -13.442 -20.999  0.00  0.00    -0.203 F 
ATOM     27  C   UNL     1      33.588 -12.883 -22.986  0.00  0.00    +0.092 C 
ATOM     28  C   UNL     1      34.293 -13.798 -22.204  0.00  0.00    +0.155 C 
ATOM     29  C   UNL     1      33.106 -13.263 -24.239  0.00  0.00    +0.018 C 
ATOM     30  C   UNL     1      34.516 -15.092 -22.674  0.00  0.00    +0.031 C 
ATOM     31  C   UNL     1      33.328 -14.557 -24.708  0.00  0.00    +0.001 C 
ATOM     32  C   UNL     1      34.033 -15.472 -23.926  0.00  0.00    +0.002 C 
ENDBRANCH  24  27
ENDBRANCH  21  24
ENDBRANCH   6  21
TORSDOF 4
ENDMDL
