MODEL 1
REMARK VINA RESULT:     -11.1      0.000      0.000
REMARK  Name = 77993
REMARK  6 active torsions:
REMARK  status: ('A' for Active; 'I' for Inactive)
REMARK    1  A    between atoms: C_2  and  C_11
REMARK    2  A    between atoms: C_7  and  C_19
REMARK    3  A    between atoms: C_11  and  C_13
REMARK    4  A    between atoms: C_19  and  C_20
REMARK    5  A    between atoms: C_20  and  S_21
REMARK    6  A    between atoms: S_21  and  C_24
REMARK                            x       y       z     vdW  Elec       q    Type
REMARK                         _______ _______ _______ _____ _____    ______ ____
ROOT
ATOM      1  N   UNL     1      33.482 -23.544 -15.995  0.00  0.00    -0.312 N 
ATOM      2  C   UNL     1      35.623 -23.121 -15.712  0.00  0.00    -0.008 C 
ATOM      3  C   UNL     1      35.231 -22.516 -16.924  0.00  0.00    +0.010 C 
ATOM      4  C   UNL     1      34.546 -23.745 -15.156  0.00  0.00    +0.058 C 
ATOM      5  C   UNL     1      33.872 -22.796 -17.084  0.00  0.00    +0.048 C 
ATOM      6  C   UNL     1      35.886 -21.754 -17.913  0.00  0.00    -0.003 C 
ATOM      7  C   UNL     1      35.160 -21.303 -19.019  0.00  0.00    -0.020 C 
ATOM      8  C   UNL     1      33.133 -22.351 -18.184  0.00  0.00    +0.014 C 
ATOM      9  C   UNL     1      33.804 -21.598 -19.152  0.00  0.00    -0.003 C 
ATOM     10  H   UNL     1      32.571 -23.883 -15.842  0.00  0.00    +0.152 HD
ENDROOT
BRANCH   2  11
ATOM     11  C   UNL     1      36.999 -23.090 -15.121  0.00  0.00    +0.007 C 
BRANCH  11  13
ATOM     12  N   UNL     1      37.537 -23.765 -12.773  0.00  0.00    +0.387 N 
ATOM     13  C   UNL     1      37.234 -24.227 -14.135  0.00  0.00    -0.054 C 
ATOM     14  C   UNL     1      38.477 -25.044 -14.496  0.00  0.00    -0.023 C 
ATOM     15  C   UNL     1      39.059 -25.502 -13.163  0.00  0.00    -0.025 C 
ATOM     16  C   UNL     1      38.133 -24.925 -12.105  0.00  0.00    -0.077 C 
ATOM     17  C   UNL     1      36.364 -23.280 -12.055  0.00  0.00    -0.101 C 
ATOM     18  H   UNL     1      38.164 -22.962 -12.796  0.00  0.00    -0.080 HD
ENDBRANCH  11  13
ENDBRANCH   2  11
BRANCH   7  19
ATOM     19  C   UNL     1      35.848 -20.496 -20.072  0.00  0.00    +0.052 C 
BRANCH  19  20
ATOM     20  C   UNL     1      34.977 -19.395 -20.682  0.00  0.00    +0.161 C 
BRANCH  20  21
ATOM     21  S   UNL     1      35.782 -18.554 -22.009  0.00  0.00    +0.009 S 
ATOM     22  O   UNL     1      35.253 -19.051 -23.267  0.00  0.00    -0.169 OA
ATOM     23  O   UNL     1      37.212 -18.586 -21.753  0.00  0.00    -0.169 OA
BRANCH  21  24
ATOM     24  C   UNL     1      35.238 -16.880 -21.846  0.00  0.00    +0.106 C 
ATOM     25  C   UNL     1      35.096 -16.101 -22.982  0.00  0.00    +0.018 C 
ATOM     26  C   UNL     1      34.965 -16.378 -20.584  0.00  0.00    +0.018 C 
ATOM     27  C   UNL     1      34.666 -14.780 -22.852  0.00  0.00    +0.001 C 
ATOM     28  C   UNL     1      34.535 -15.057 -20.456  0.00  0.00    +0.001 C 
ATOM     29  C   UNL     1      34.386 -14.259 -21.589  0.00  0.00    +0.000 C 
ENDBRANCH  21  24
ENDBRANCH  20  21
ENDBRANCH  19  20
ENDBRANCH   7  19
TORSDOF 6
ENDMDL
MODEL 2
REMARK VINA RESULT:     -11.0      5.377     12.165
REMARK  Name = 77993
REMARK  6 active torsions:
REMARK  status: ('A' for Active; 'I' for Inactive)
REMARK    1  A    between atoms: C_2  and  C_11
REMARK    2  A    between atoms: C_7  and  C_19
REMARK    3  A    between atoms: C_11  and  C_13
REMARK    4  A    between atoms: C_19  and  C_20
REMARK    5  A    between atoms: C_20  and  S_21
REMARK    6  A    between atoms: S_21  and  C_24
REMARK                            x       y       z     vdW  Elec       q    Type
REMARK                         _______ _______ _______ _____ _____    ______ ____
ROOT
ATOM      1  N   UNL     1      31.326 -11.695 -20.384  0.00  0.00    -0.312 N 
ATOM      2  C   UNL     1      32.449 -11.243 -22.222  0.00  0.00    -0.008 C 
ATOM      3  C   UNL     1      32.882 -12.505 -21.764  0.00  0.00    +0.010 C 
ATOM      4  C   UNL     1      31.500 -10.760 -21.370  0.00  0.00    +0.058 C 
ATOM      5  C   UNL     1      32.157 -12.772 -20.600  0.00  0.00    +0.048 C 
ATOM      6  C   UNL     1      33.816 -13.459 -22.214  0.00  0.00    -0.003 C 
ATOM      7  C   UNL     1      33.991 -14.640 -21.485  0.00  0.00    -0.020 C 
ATOM      8  C   UNL     1      32.322 -13.948 -19.861  0.00  0.00    +0.014 C 
ATOM      9  C   UNL     1      33.255 -14.879 -20.326  0.00  0.00    -0.003 C 
ATOM     10  H   UNL     1      30.699 -11.610 -19.631  0.00  0.00    +0.152 HD
ENDROOT
BRANCH   2  11
ATOM     11  C   UNL     1      32.946 -10.536 -23.445  0.00  0.00    +0.007 C 
BRANCH  11  13
ATOM     12  N   UNL     1      32.724  -8.124 -24.068  0.00  0.00    +0.387 N 
ATOM     13  C   UNL     1      33.351  -9.096 -23.161  0.00  0.00    -0.054 C 
ATOM     14  C   UNL     1      34.845  -8.867 -23.407  0.00  0.00    -0.023 C 
ATOM     15  C   UNL     1      34.956  -7.431 -23.906  0.00  0.00    -0.025 C 
ATOM     16  C   UNL     1      33.529  -6.906 -23.932  0.00  0.00    -0.077 C 
ATOM     17  C   UNL     1      31.321  -7.872 -23.762  0.00  0.00    -0.101 C 
ATOM     18  H   UNL     1      32.710  -8.479 -25.024  0.00  0.00    -0.080 HD
ENDBRANCH  11  13
ENDBRANCH   2  11
BRANCH   7  19
ATOM     19  C   UNL     1      34.980 -15.655 -21.955  0.00  0.00    +0.052 C 
BRANCH  19  20
ATOM     20  C   UNL     1      35.199 -16.813 -20.977  0.00  0.00    +0.161 C 
BRANCH  20  21
ATOM     21  S   UNL     1      35.686 -18.302 -21.790  0.00  0.00    +0.009 S 
ATOM     22  O   UNL     1      37.135 -18.401 -21.756  0.00  0.00    -0.169 OA
ATOM     23  O   UNL     1      34.976 -18.370 -23.055  0.00  0.00    -0.169 OA
BRANCH  21  24
ATOM     24  C   UNL     1      35.057 -19.583 -20.745  0.00  0.00    +0.106 C 
ATOM     25  C   UNL     1      35.945 -20.384 -20.047  0.00  0.00    +0.018 C 
ATOM     26  C   UNL     1      33.687 -19.761 -20.644  0.00  0.00    +0.018 C 
ATOM     27  C   UNL     1      35.448 -21.393 -19.223  0.00  0.00    +0.001 C 
ATOM     28  C   UNL     1      33.191 -20.771 -19.820  0.00  0.00    +0.001 C 
ATOM     29  C   UNL     1      34.071 -21.587 -19.110  0.00  0.00    +0.000 C 
ENDBRANCH  21  24
ENDBRANCH  20  21
ENDBRANCH  19  20
ENDBRANCH   7  19
TORSDOF 6
ENDMDL
MODEL 3
REMARK VINA RESULT:     -10.8      2.128      4.013
REMARK  Name = 77993
REMARK  6 active torsions:
REMARK  status: ('A' for Active; 'I' for Inactive)
REMARK    1  A    between atoms: C_2  and  C_11
REMARK    2  A    between atoms: C_7  and  C_19
REMARK    3  A    between atoms: C_11  and  C_13
REMARK    4  A    between atoms: C_19  and  C_20
REMARK    5  A    between atoms: C_20  and  S_21
REMARK    6  A    between atoms: S_21  and  C_24
REMARK                            x       y       z     vdW  Elec       q    Type
REMARK                         _______ _______ _______ _____ _____    ______ ____
ROOT
ATOM      1  N   UNL     1      36.012 -22.780 -15.765  0.00  0.00    -0.312 N 
ATOM      2  C   UNL     1      33.981 -23.234 -16.479  0.00  0.00    -0.008 C 
ATOM      3  C   UNL     1      34.612 -22.455 -17.472  0.00  0.00    +0.010 C 
ATOM      4  C   UNL     1      34.847 -23.424 -15.444  0.00  0.00    +0.058 C 
ATOM      5  C   UNL     1      35.897 -22.179 -16.999  0.00  0.00    +0.048 C 
ATOM      6  C   UNL     1      34.230 -21.950 -18.731  0.00  0.00    -0.003 C 
ATOM      7  C   UNL     1      35.145 -21.191 -19.467  0.00  0.00    -0.020 C 
ATOM      8  C   UNL     1      36.822 -21.421 -17.724  0.00  0.00    +0.014 C 
ATOM      9  C   UNL     1      36.421 -20.930 -18.970  0.00  0.00    -0.003 C 
ATOM     10  H   UNL     1      36.815 -22.750 -15.197  0.00  0.00    +0.152 HD
ENDROOT
BRANCH   2  11
ATOM     11  C   UNL     1      32.584 -23.771 -16.542  0.00  0.00    +0.007 C 
BRANCH  11  13
ATOM     12  N   UNL     1      31.188 -24.312 -14.538  0.00  0.00    +0.387 N 
ATOM     13  C   UNL     1      31.709 -23.250 -15.410  0.00  0.00    -0.054 C 
ATOM     14  C   UNL     1      30.430 -22.593 -15.937  0.00  0.00    -0.023 C 
ATOM     15  C   UNL     1      29.366 -22.883 -14.885  0.00  0.00    -0.025 C 
ATOM     16  C   UNL     1      30.075 -23.694 -13.813  0.00  0.00    -0.077 C 
ATOM     17  C   UNL     1      32.189 -24.849 -13.623  0.00  0.00    -0.101 C 
ATOM     18  H   UNL     1      30.897 -25.120 -15.088  0.00  0.00    -0.080 HD
ENDBRANCH  11  13
ENDBRANCH   2  11
BRANCH   7  19
ATOM     19  C   UNL     1      34.747 -20.651 -20.802  0.00  0.00    +0.052 C 
BRANCH  19  20
ATOM     20  C   UNL     1      34.524 -19.136 -20.821  0.00  0.00    +0.161 C 
BRANCH  20  21
ATOM     21  S   UNL     1      35.590 -18.309 -21.959  0.00  0.00    +0.009 S 
ATOM     22  O   UNL     1      35.260 -18.741 -23.306  0.00  0.00    -0.169 OA
ATOM     23  O   UNL     1      36.950 -18.432 -21.463  0.00  0.00    -0.169 OA
BRANCH  21  24
ATOM     24  C   UNL     1      35.117 -16.611 -21.831  0.00  0.00    +0.106 C 
ATOM     25  C   UNL     1      34.912 -16.058 -20.579  0.00  0.00    +0.018 C 
ATOM     26  C   UNL     1      34.961 -15.864 -22.987  0.00  0.00    +0.018 C 
ATOM     27  C   UNL     1      34.539 -14.718 -20.478  0.00  0.00    +0.001 C 
ATOM     28  C   UNL     1      34.588 -14.523 -22.886  0.00  0.00    +0.001 C 
ATOM     29  C   UNL     1      34.377 -13.951 -21.632  0.00  0.00    +0.000 C 
ENDBRANCH  21  24
ENDBRANCH  20  21
ENDBRANCH  19  20
ENDBRANCH   7  19
TORSDOF 6
ENDMDL
MODEL 4
REMARK VINA RESULT:     -10.7      3.940      9.748
REMARK  Name = 77993
REMARK  6 active torsions:
REMARK  status: ('A' for Active; 'I' for Inactive)
REMARK    1  A    between atoms: C_2  and  C_11
REMARK    2  A    between atoms: C_7  and  C_19
REMARK    3  A    between atoms: C_11  and  C_13
REMARK    4  A    between atoms: C_19  and  C_20
REMARK    5  A    between atoms: C_20  and  S_21
REMARK    6  A    between atoms: S_21  and  C_24
REMARK                            x       y       z     vdW  Elec       q    Type
REMARK                         _______ _______ _______ _____ _____    ______ ____
ROOT
ATOM      1  N   UNL     1      32.751 -21.265 -19.736  0.00  0.00    -0.312 N 
ATOM      2  C   UNL     1      34.583 -20.219 -20.359  0.00  0.00    -0.008 C 
ATOM      3  C   UNL     1      34.910 -21.006 -19.234  0.00  0.00    +0.010 C 
ATOM      4  C   UNL     1      33.263 -20.387 -20.654  0.00  0.00    +0.058 C 
ATOM      5  C   UNL     1      33.734 -21.660 -18.856  0.00  0.00    +0.048 C 
ATOM      6  C   UNL     1      36.083 -21.237 -18.488  0.00  0.00    -0.003 C 
ATOM      7  C   UNL     1      36.037 -22.110 -17.397  0.00  0.00    -0.020 C 
ATOM      8  C   UNL     1      33.673 -22.536 -17.768  0.00  0.00    +0.014 C 
ATOM      9  C   UNL     1      34.849 -22.749 -17.043  0.00  0.00    -0.003 C 
ATOM     10  H   UNL     1      31.816 -21.571 -19.709  0.00  0.00    +0.152 HD
ENDROOT
BRANCH   2  11
ATOM     11  C   UNL     1      35.528 -19.337 -21.115  0.00  0.00    +0.007 C 
BRANCH  11  13
ATOM     12  N   UNL     1      35.077 -18.140 -23.264  0.00  0.00    +0.387 N 
ATOM     13  C   UNL     1      34.816 -18.190 -21.819  0.00  0.00    -0.054 C 
ATOM     14  C   UNL     1      35.323 -16.827 -21.340  0.00  0.00    -0.023 C 
ATOM     15  C   UNL     1      35.230 -15.912 -22.556  0.00  0.00    -0.025 C 
ATOM     16  C   UNL     1      34.684 -16.788 -23.673  0.00  0.00    -0.077 C 
ATOM     17  C   UNL     1      34.351 -19.156 -24.017  0.00  0.00    -0.101 C 
ATOM     18  H   UNL     1      36.057 -18.339 -23.461  0.00  0.00    -0.080 HD
ENDBRANCH  11  13
ENDBRANCH   2  11
BRANCH   7  19
ATOM     19  C   UNL     1      37.276 -22.359 -16.601  0.00  0.00    +0.052 C 
BRANCH  19  20
ATOM     20  C   UNL     1      37.034 -22.488 -15.095  0.00  0.00    +0.161 C 
BRANCH  20  21
ATOM     21  S   UNL     1      37.459 -24.086 -14.476  0.00  0.00    +0.009 S 
ATOM     22  O   UNL     1      38.906 -24.213 -14.464  0.00  0.00    -0.169 OA
ATOM     23  O   UNL     1      36.644 -25.064 -15.176  0.00  0.00    -0.169 OA
BRANCH  21  24
ATOM     24  C   UNL     1      36.931 -24.046 -12.790  0.00  0.00    +0.106 C 
ATOM     25  C   UNL     1      36.131 -25.067 -12.307  0.00  0.00    +0.018 C 
ATOM     26  C   UNL     1      37.327 -22.993 -11.982  0.00  0.00    +0.018 C 
ATOM     27  C   UNL     1      35.714 -25.035 -10.976  0.00  0.00    +0.001 C 
ATOM     28  C   UNL     1      36.910 -22.961 -10.651  0.00  0.00    +0.001 C 
ATOM     29  C   UNL     1      36.104 -23.982 -10.149  0.00  0.00    +0.000 C 
ENDBRANCH  21  24
ENDBRANCH  20  21
ENDBRANCH  19  20
ENDBRANCH   7  19
TORSDOF 6
ENDMDL
MODEL 5
REMARK VINA RESULT:     -10.6      1.192      1.769
REMARK  Name = 77993
REMARK  6 active torsions:
REMARK  status: ('A' for Active; 'I' for Inactive)
REMARK    1  A    between atoms: C_2  and  C_11
REMARK    2  A    between atoms: C_7  and  C_19
REMARK    3  A    between atoms: C_11  and  C_13
REMARK    4  A    between atoms: C_19  and  C_20
REMARK    5  A    between atoms: C_20  and  S_21
REMARK    6  A    between atoms: S_21  and  C_24
REMARK                            x       y       z     vdW  Elec       q    Type
REMARK                         _______ _______ _______ _____ _____    ______ ____
ROOT
ATOM      1  N   UNL     1      33.395 -23.581 -15.916  0.00  0.00    -0.312 N 
ATOM      2  C   UNL     1      35.520 -23.178 -15.510  0.00  0.00    -0.008 C 
ATOM      3  C   UNL     1      35.215 -22.604 -16.762  0.00  0.00    +0.010 C 
ATOM      4  C   UNL     1      34.401 -23.770 -15.005  0.00  0.00    +0.058 C 
ATOM      5  C   UNL     1      33.864 -22.871 -16.999  0.00  0.00    +0.048 C 
ATOM      6  C   UNL     1      35.942 -21.882 -17.729  0.00  0.00    -0.003 C 
ATOM      7  C   UNL     1      35.294 -21.455 -18.893  0.00  0.00    -0.020 C 
ATOM      8  C   UNL     1      33.203 -22.451 -18.158  0.00  0.00    +0.014 C 
ATOM      9  C   UNL     1      33.946 -21.737 -19.103  0.00  0.00    -0.003 C 
ATOM     10  H   UNL     1      32.472 -23.904 -15.811  0.00  0.00    +0.152 HD
ENDROOT
BRANCH   2  11
ATOM     11  C   UNL     1      36.856 -23.147 -14.834  0.00  0.00    +0.007 C 
BRANCH  11  13
ATOM     12  N   UNL     1      37.354 -23.904 -12.502  0.00  0.00    +0.387 N 
ATOM     13  C   UNL     1      37.052 -24.318 -13.880  0.00  0.00    -0.054 C 
ATOM     14  C   UNL     1      38.278 -25.155 -14.253  0.00  0.00    -0.023 C 
ATOM     15  C   UNL     1      38.835 -25.667 -12.930  0.00  0.00    -0.025 C 
ATOM     16  C   UNL     1      37.913 -25.098 -11.863  0.00  0.00    -0.077 C 
ATOM     17  C   UNL     1      36.187 -23.410 -11.780  0.00  0.00    -0.101 C 
ATOM     18  H   UNL     1      38.001 -23.116 -12.495  0.00  0.00    -0.080 HD
ENDBRANCH  11  13
ENDBRANCH   2  11
BRANCH   7  19
ATOM     19  C   UNL     1      36.059 -20.690 -19.922  0.00  0.00    +0.052 C 
BRANCH  19  20
ATOM     20  C   UNL     1      35.190 -19.790 -20.804  0.00  0.00    +0.161 C 
BRANCH  20  21
ATOM     21  S   UNL     1      36.043 -18.340 -21.340  0.00  0.00    +0.009 S 
ATOM     22  O   UNL     1      37.379 -18.716 -21.769  0.00  0.00    -0.169 OA
ATOM     23  O   UNL     1      35.861 -17.317 -20.324  0.00  0.00    -0.169 OA
BRANCH  21  24
ATOM     24  C   UNL     1      35.159 -17.834 -22.784  0.00  0.00    +0.106 C 
ATOM     25  C   UNL     1      35.148 -16.495 -23.136  0.00  0.00    +0.018 C 
ATOM     26  C   UNL     1      34.494 -18.786 -23.538  0.00  0.00    +0.018 C 
ATOM     27  C   UNL     1      34.451 -16.096 -24.277  0.00  0.00    +0.001 C 
ATOM     28  C   UNL     1      33.797 -18.387 -24.679  0.00  0.00    +0.001 C 
ATOM     29  C   UNL     1      33.775 -17.042 -25.048  0.00  0.00    +0.000 C 
ENDBRANCH  21  24
ENDBRANCH  20  21
ENDBRANCH  19  20
ENDBRANCH   7  19
TORSDOF 6
ENDMDL
MODEL 6
REMARK VINA RESULT:     -10.6      4.185     10.021
REMARK  Name = 77993
REMARK  6 active torsions:
REMARK  status: ('A' for Active; 'I' for Inactive)
REMARK    1  A    between atoms: C_2  and  C_11
REMARK    2  A    between atoms: C_7  and  C_19
REMARK    3  A    between atoms: C_11  and  C_13
REMARK    4  A    between atoms: C_19  and  C_20
REMARK    5  A    between atoms: C_20  and  S_21
REMARK    6  A    between atoms: S_21  and  C_24
REMARK                            x       y       z     vdW  Elec       q    Type
REMARK                         _______ _______ _______ _____ _____    ______ ____
ROOT
ATOM      1  N   UNL     1      34.530 -17.189 -24.641  0.00  0.00    -0.312 N 
ATOM      2  C   UNL     1      34.729 -15.909 -22.863  0.00  0.00    -0.008 C 
ATOM      3  C   UNL     1      34.910 -17.244 -22.443  0.00  0.00    +0.010 C 
ATOM      4  C   UNL     1      34.498 -15.891 -24.206  0.00  0.00    +0.058 C 
ATOM      5  C   UNL     1      34.780 -18.037 -23.586  0.00  0.00    +0.048 C 
ATOM      6  C   UNL     1      35.171 -17.871 -21.209  0.00  0.00    -0.003 C 
ATOM      7  C   UNL     1      35.293 -19.263 -21.163  0.00  0.00    -0.020 C 
ATOM      8  C   UNL     1      34.899 -19.430 -23.554  0.00  0.00    +0.014 C 
ATOM      9  C   UNL     1      35.159 -20.030 -22.319  0.00  0.00    -0.003 C 
ATOM     10  H   UNL     1      34.395 -17.475 -25.573  0.00  0.00    +0.152 HD
ENDROOT
BRANCH   2  11
ATOM     11  C   UNL     1      34.780 -14.698 -21.983  0.00  0.00    +0.007 C 
BRANCH  11  13
ATOM     12  N   UNL     1      33.375 -12.635 -22.145  0.00  0.00    +0.387 N 
ATOM     13  C   UNL     1      33.410 -14.061 -21.791  0.00  0.00    -0.054 C 
ATOM     14  C   UNL     1      32.989 -14.050 -20.319  0.00  0.00    -0.023 C 
ATOM     15  C   UNL     1      32.167 -12.779 -20.144  0.00  0.00    -0.025 C 
ATOM     16  C   UNL     1      32.158 -12.118 -21.513  0.00  0.00    -0.077 C 
ATOM     17  C   UNL     1      33.371 -12.399 -23.584  0.00  0.00    -0.101 C 
ATOM     18  H   UNL     1      34.217 -12.161 -21.819  0.00  0.00    -0.080 HD
ENDBRANCH  11  13
ENDBRANCH   2  11
BRANCH   7  19
ATOM     19  C   UNL     1      35.569 -19.935 -19.858  0.00  0.00    +0.052 C 
BRANCH  19  20
ATOM     20  C   UNL     1      35.624 -21.463 -19.942  0.00  0.00    +0.161 C 
BRANCH  20  21
ATOM     21  S   UNL     1      34.418 -22.241 -18.915  0.00  0.00    +0.009 S 
ATOM     22  O   UNL     1      34.177 -23.584 -19.412  0.00  0.00    -0.169 OA
ATOM     23  O   UNL     1      33.313 -21.313 -18.747  0.00  0.00    -0.169 OA
BRANCH  21  24
ATOM     24  C   UNL     1      35.229 -22.406 -17.353  0.00  0.00    +0.106 C 
ATOM     25  C   UNL     1      34.533 -22.937 -16.281  0.00  0.00    +0.018 C 
ATOM     26  C   UNL     1      36.548 -22.001 -17.231  0.00  0.00    +0.018 C 
ATOM     27  C   UNL     1      35.174 -23.068 -15.049  0.00  0.00    +0.001 C 
ATOM     28  C   UNL     1      37.189 -22.132 -15.998  0.00  0.00    +0.001 C 
ATOM     29  C   UNL     1      36.502 -22.665 -14.908  0.00  0.00    +0.000 C 
ENDBRANCH  21  24
ENDBRANCH  20  21
ENDBRANCH  19  20
ENDBRANCH   7  19
TORSDOF 6
ENDMDL
MODEL 7
REMARK VINA RESULT:     -10.6      4.293      7.499
REMARK  Name = 77993
REMARK  6 active torsions:
REMARK  status: ('A' for Active; 'I' for Inactive)
REMARK    1  A    between atoms: C_2  and  C_11
REMARK    2  A    between atoms: C_7  and  C_19
REMARK    3  A    between atoms: C_11  and  C_13
REMARK    4  A    between atoms: C_19  and  C_20
REMARK    5  A    between atoms: C_20  and  S_21
REMARK    6  A    between atoms: S_21  and  C_24
REMARK                            x       y       z     vdW  Elec       q    Type
REMARK                         _______ _______ _______ _____ _____    ______ ____
ROOT
ATOM      1  N   UNL     1      34.519 -18.972 -24.241  0.00  0.00    -0.312 N 
ATOM      2  C   UNL     1      35.166 -18.692 -22.157  0.00  0.00    -0.008 C 
ATOM      3  C   UNL     1      34.883 -17.414 -22.685  0.00  0.00    +0.010 C 
ATOM      4  C   UNL     1      34.939 -19.632 -23.117  0.00  0.00    +0.058 C 
ATOM      5  C   UNL     1      34.475 -17.616 -24.006  0.00  0.00    +0.048 C 
ATOM      6  C   UNL     1      34.930 -16.098 -22.184  0.00  0.00    -0.003 C 
ATOM      7  C   UNL     1      34.567 -15.036 -23.020  0.00  0.00    -0.020 C 
ATOM      8  C   UNL     1      34.110 -16.564 -24.852  0.00  0.00    +0.014 C 
ATOM      9  C   UNL     1      34.164 -15.268 -24.334  0.00  0.00    -0.003 C 
ATOM     10  H   UNL     1      34.281 -19.404 -25.093  0.00  0.00    +0.152 HD
ENDROOT
BRANCH   2  11
ATOM     11  C   UNL     1      35.640 -18.979 -20.766  0.00  0.00    +0.007 C 
BRANCH  11  13
ATOM     12  N   UNL     1      34.165 -20.555 -19.500  0.00  0.00    +0.387 N 
ATOM     13  C   UNL     1      35.362 -20.415 -20.342  0.00  0.00    -0.054 C 
ATOM     14  C   UNL     1      36.470 -20.966 -19.441  0.00  0.00    -0.023 C 
ATOM     15  C   UNL     1      35.771 -21.920 -18.479  0.00  0.00    -0.025 C 
ATOM     16  C   UNL     1      34.301 -21.868 -18.864  0.00  0.00    -0.077 C 
ATOM     17  C   UNL     1      32.919 -20.451 -20.250  0.00  0.00    -0.101 C 
ATOM     18  H   UNL     1      34.111 -19.795 -18.822  0.00  0.00    -0.080 HD
ENDBRANCH  11  13
ENDBRANCH   2  11
BRANCH   7  19
ATOM     19  C   UNL     1      34.615 -13.639 -22.495  0.00  0.00    +0.052 C 
BRANCH  19  20
ATOM     20  C   UNL     1      34.026 -13.479 -21.091  0.00  0.00    +0.161 C 
BRANCH  20  21
ATOM     21  S   UNL     1      32.277 -13.237 -21.115  0.00  0.00    +0.009 S 
ATOM     22  O   UNL     1      31.661 -14.198 -20.218  0.00  0.00    -0.169 OA
ATOM     23  O   UNL     1      31.859 -13.159 -22.504  0.00  0.00    -0.169 OA
BRANCH  21  24
ATOM     24  C   UNL     1      32.057 -11.639 -20.391  0.00  0.00    +0.106 C 
ATOM     25  C   UNL     1      31.857 -10.545 -21.215  0.00  0.00    +0.018 C 
ATOM     26  C   UNL     1      32.089 -11.512 -19.012  0.00  0.00    +0.018 C 
ATOM     27  C   UNL     1      31.683  -9.285 -20.643  0.00  0.00    +0.001 C 
ATOM     28  C   UNL     1      31.914 -10.251 -18.441  0.00  0.00    +0.001 C 
ATOM     29  C   UNL     1      31.712  -9.138 -19.256  0.00  0.00    +0.000 C 
ENDBRANCH  21  24
ENDBRANCH  20  21
ENDBRANCH  19  20
ENDBRANCH   7  19
TORSDOF 6
ENDMDL
MODEL 8
REMARK VINA RESULT:     -10.2      5.503      8.882
REMARK  Name = 77993
REMARK  6 active torsions:
REMARK  status: ('A' for Active; 'I' for Inactive)
REMARK    1  A    between atoms: C_2  and  C_11
REMARK    2  A    between atoms: C_7  and  C_19
REMARK    3  A    between atoms: C_11  and  C_13
REMARK    4  A    between atoms: C_19  and  C_20
REMARK    5  A    between atoms: C_20  and  S_21
REMARK    6  A    between atoms: S_21  and  C_24
REMARK                            x       y       z     vdW  Elec       q    Type
REMARK                         _______ _______ _______ _____ _____    ______ ____
ROOT
ATOM      1  N   UNL     1      34.202 -17.636 -24.767  0.00  0.00    -0.312 N 
ATOM      2  C   UNL     1      35.018 -17.313 -22.750  0.00  0.00    -0.008 C 
ATOM      3  C   UNL     1      34.540 -16.070 -23.214  0.00  0.00    +0.010 C 
ATOM      4  C   UNL     1      34.805 -18.259 -23.708  0.00  0.00    +0.058 C 
ATOM      5  C   UNL     1      34.027 -16.297 -24.493  0.00  0.00    +0.048 C 
ATOM      6  C   UNL     1      34.486 -14.765 -22.684  0.00  0.00    -0.003 C 
ATOM      7  C   UNL     1      33.922 -13.740 -23.451  0.00  0.00    -0.020 C 
ATOM      8  C   UNL     1      33.461 -15.283 -25.271  0.00  0.00    +0.014 C 
ATOM      9  C   UNL     1      33.419 -13.996 -24.726  0.00  0.00    -0.003 C 
ATOM     10  H   UNL     1      33.931 -18.079 -25.603  0.00  0.00    +0.152 HD
ENDROOT
BRANCH   2  11
ATOM     11  C   UNL     1      35.659 -17.565 -21.420  0.00  0.00    +0.007 C 
BRANCH  11  13
ATOM     12  N   UNL     1      34.874 -19.596 -20.188  0.00  0.00    +0.387 N 
ATOM     13  C   UNL     1      35.852 -19.050 -21.139  0.00  0.00    -0.054 C 
ATOM     14  C   UNL     1      37.187 -19.327 -20.443  0.00  0.00    -0.023 C 
ATOM     15  C   UNL     1      36.924 -20.516 -19.525  0.00  0.00    -0.025 C 
ATOM     16  C   UNL     1      35.457 -20.861 -19.731  0.00  0.00    -0.077 C 
ATOM     17  C   UNL     1      33.553 -19.798 -20.771  0.00  0.00    -0.101 C 
ATOM     18  H   UNL     1      34.710 -18.942 -19.423  0.00  0.00    -0.080 HD
ENDBRANCH  11  13
ENDBRANCH   2  11
BRANCH   7  19
ATOM     19  C   UNL     1      33.863 -12.354 -22.897  0.00  0.00    +0.052 C 
BRANCH  19  20
ATOM     20  C   UNL     1      32.637 -11.555 -23.347  0.00  0.00    +0.161 C 
BRANCH  20  21
ATOM     21  S   UNL     1      32.865  -9.813 -23.176  0.00  0.00    +0.009 S 
ATOM     22  O   UNL     1      31.933  -9.131 -24.057  0.00  0.00    -0.169 OA
ATOM     23  O   UNL     1      34.290  -9.541 -23.265  0.00  0.00    -0.169 OA
BRANCH  21  24
ATOM     24  C   UNL     1      32.351  -9.476 -21.519  0.00  0.00    +0.106 C 
ATOM     25  C   UNL     1      32.691  -8.266 -20.937  0.00  0.00    +0.018 C 
ATOM     26  C   UNL     1      31.615 -10.428 -20.833  0.00  0.00    +0.018 C 
ATOM     27  C   UNL     1      32.284  -8.001 -19.630  0.00  0.00    +0.001 C 
ATOM     28  C   UNL     1      31.209 -10.162 -19.525  0.00  0.00    +0.001 C 
ATOM     29  C   UNL     1      31.543  -8.949 -18.924  0.00  0.00    +0.000 C 
ENDBRANCH  21  24
ENDBRANCH  20  21
ENDBRANCH  19  20
ENDBRANCH   7  19
TORSDOF 6
ENDMDL
MODEL 9
REMARK VINA RESULT:     -10.1      7.887     13.701
REMARK  Name = 77993
REMARK  6 active torsions:
REMARK  status: ('A' for Active; 'I' for Inactive)
REMARK    1  A    between atoms: C_2  and  C_11
REMARK    2  A    between atoms: C_7  and  C_19
REMARK    3  A    between atoms: C_11  and  C_13
REMARK    4  A    between atoms: C_19  and  C_20
REMARK    5  A    between atoms: C_20  and  S_21
REMARK    6  A    between atoms: S_21  and  C_24
REMARK                            x       y       z     vdW  Elec       q    Type
REMARK                         _______ _______ _______ _____ _____    ______ ____
ROOT
ATOM      1  N   UNL     1      31.985  -8.067 -18.963  0.00  0.00    -0.312 N 
ATOM      2  C   UNL     1      31.876  -7.861 -21.151  0.00  0.00    -0.008 C 
ATOM      3  C   UNL     1      31.904  -9.241 -20.859  0.00  0.00    +0.010 C 
ATOM      4  C   UNL     1      31.926  -7.157 -19.985  0.00  0.00    +0.058 C 
ATOM      5  C   UNL     1      31.973  -9.348 -19.468  0.00  0.00    +0.048 C 
ATOM      6  C   UNL     1      31.878 -10.421 -21.629  0.00  0.00    -0.003 C 
ATOM      7  C   UNL     1      31.921 -11.659 -20.981  0.00  0.00    -0.020 C 
ATOM      8  C   UNL     1      32.017 -10.579 -18.807  0.00  0.00    +0.014 C 
ATOM      9  C   UNL     1      31.990 -11.736 -19.591  0.00  0.00    -0.003 C 
ATOM     10  H   UNL     1      32.029  -7.839 -18.007  0.00  0.00    +0.152 HD
ENDROOT
BRANCH   2  11
ATOM     11  C   UNL     1      31.803  -7.255 -22.519  0.00  0.00    +0.007 C 
BRANCH  11  13
ATOM     12  N   UNL     1      33.258  -6.323 -24.328  0.00  0.00    +0.387 N 
ATOM     13  C   UNL     1      33.064  -6.481 -22.880  0.00  0.00    -0.054 C 
ATOM     14  C   UNL     1      34.331  -7.226 -22.452  0.00  0.00    -0.023 C 
ATOM     15  C   UNL     1      35.379  -6.876 -23.503  0.00  0.00    -0.025 C 
ATOM     16  C   UNL     1      34.668  -5.956 -24.483  0.00  0.00    -0.077 C 
ATOM     17  C   UNL     1      32.378  -5.323 -24.922  0.00  0.00    -0.101 C 
ATOM     18  H   UNL     1      33.021  -7.184 -24.820  0.00  0.00    -0.080 HD
ENDBRANCH  11  13
ENDBRANCH   2  11
BRANCH   7  19
ATOM     19  C   UNL     1      31.895 -12.914 -21.791  0.00  0.00    +0.052 C 
BRANCH  19  20
ATOM     20  C   UNL     1      32.662 -14.080 -21.160  0.00  0.00    +0.161 C 
BRANCH  20  21
ATOM     21  S   UNL     1      34.388 -14.033 -21.531  0.00  0.00    +0.009 S 
ATOM     22  O   UNL     1      35.123 -13.792 -20.301  0.00  0.00    -0.169 OA
ATOM     23  O   UNL     1      34.572 -13.160 -22.677  0.00  0.00    -0.169 OA
BRANCH  21  24
ATOM     24  C   UNL     1      34.760 -15.684 -22.040  0.00  0.00    +0.106 C 
ATOM     25  C   UNL     1      34.646 -16.021 -23.378  0.00  0.00    +0.018 C 
ATOM     26  C   UNL     1      35.158 -16.610 -21.091  0.00  0.00    +0.018 C 
ATOM     27  C   UNL     1      34.940 -17.324 -23.779  0.00  0.00    +0.001 C 
ATOM     28  C   UNL     1      35.453 -17.914 -21.493  0.00  0.00    +0.001 C 
ATOM     29  C   UNL     1      35.344 -18.270 -22.836  0.00  0.00    +0.000 C 
ENDBRANCH  21  24
ENDBRANCH  20  21
ENDBRANCH  19  20
ENDBRANCH   7  19
TORSDOF 6
ENDMDL
