MODEL 1
REMARK VINA RESULT:     -11.2      0.000      0.000
REMARK  Name = 24905142
REMARK  2 active torsions:
REMARK  status: ('A' for Active; 'I' for Inactive)
REMARK    1  A    between atoms: N_1  and  C_20
REMARK    2  A    between atoms: C_7  and  C_12
REMARK                            x       y       z     vdW  Elec       q    Type
REMARK                         _______ _______ _______ _____ _____    ______ ____
ROOT
ATOM      1  N   UNL     1      33.677 -22.811 -17.515  0.00  0.00    -0.200 N 
ATOM      2  N   UNL     1      34.811 -23.178 -16.889  0.00  0.00    -0.181 NA
ATOM      3  N   UNL     1      31.302 -22.620 -17.084  0.00  0.00    -0.232 NA
ATOM      4  N   UNL     1      30.742 -23.297 -14.809  0.00  0.00    -0.234 NA
ATOM      5  C   UNL     1      32.565 -22.914 -16.734  0.00  0.00    +0.137 C 
ATOM      6  C   UNL     1      33.002 -23.382 -15.508  0.00  0.00    +0.150 C 
ATOM      7  C   UNL     1      34.393 -23.525 -15.667  0.00  0.00    +0.091 C 
ATOM      8  C   UNL     1      32.038 -23.573 -14.524  0.00  0.00    +0.112 C 
ATOM      9  C   UNL     1      30.459 -22.844 -16.053  0.00  0.00    +0.252 C 
ATOM     10  N   UNL     1      32.383 -24.045 -13.245  0.00  0.00    -0.346 N 
ATOM     11  H   UNL     1      31.684 -24.174 -12.562  0.00  0.00    +0.143 HD
ATOM     12  H   UNL     1      33.322 -24.247 -13.031  0.00  0.00    +0.143 HD
ENDROOT
BRANCH   7  15
ATOM     13  N   UNL     1      36.665 -25.842 -13.826  0.00  0.00    -0.229 NA
ATOM     14  N   UNL     1      38.021 -25.244 -11.927  0.00  0.00    -0.297 N 
ATOM     15  C   UNL     1      35.341 -23.982 -14.692  0.00  0.00    +0.035 C 
ATOM     16  C   UNL     1      35.841 -23.109 -13.728  0.00  0.00    +0.006 C 
ATOM     17  C   UNL     1      35.777 -25.299 -14.691  0.00  0.00    +0.102 C 
ATOM     18  C   UNL     1      36.767 -23.616 -12.802  0.00  0.00    +0.033 C 
ATOM     19  C   UNL     1      37.117 -24.958 -12.916  0.00  0.00    +0.132 C 
ATOM     20  C   UNL     1      37.495 -23.093 -11.701  0.00  0.00    +0.019 C 
ATOM     21  C   UNL     1      38.259 -24.116 -11.183  0.00  0.00    +0.063 C 
ATOM     22  H   UNL     1      38.437 -26.122 -11.775  0.00  0.00    +0.154 HD
ENDBRANCH   7  15
BRANCH   1  23
ATOM     23  C   UNL     1      33.737 -22.343 -18.952  0.00  0.00    +0.098 C 
ATOM     24  C   UNL     1      35.164 -22.097 -19.486  0.00  0.00    +0.022 C 
ATOM     25  C   UNL     1      32.977 -21.023 -19.175  0.00  0.00    +0.022 C 
ATOM     26  C   UNL     1      35.222 -20.617 -19.848  0.00  0.00    +0.002 C 
ATOM     27  C   UNL     1      33.790 -20.281 -20.224  0.00  0.00    +0.002 C 
ENDBRANCH   1  23
TORSDOF 2
ENDMDL
MODEL 2
REMARK VINA RESULT:     -10.3     10.552     14.097
REMARK  Name = 24905142
REMARK  2 active torsions:
REMARK  status: ('A' for Active; 'I' for Inactive)
REMARK    1  A    between atoms: N_1  and  C_20
REMARK    2  A    between atoms: C_7  and  C_12
REMARK                            x       y       z     vdW  Elec       q    Type
REMARK                         _______ _______ _______ _____ _____    ______ ____
ROOT
ATOM      1  N   UNL     1      33.351  -9.852 -23.235  0.00  0.00    -0.200 N 
ATOM      2  N   UNL     1      33.832 -10.959 -23.831  0.00  0.00    -0.181 NA
ATOM      3  N   UNL     1      31.945  -9.219 -21.368  0.00  0.00    -0.232 NA
ATOM      4  N   UNL     1      31.119 -11.169 -20.158  0.00  0.00    -0.234 NA
ATOM      5  C   UNL     1      32.561 -10.115 -22.155  0.00  0.00    +0.137 C 
ATOM      6  C   UNL     1      32.523 -11.493 -22.037  0.00  0.00    +0.150 C 
ATOM      7  C   UNL     1      33.324 -11.955 -23.097  0.00  0.00    +0.091 C 
ATOM      8  C   UNL     1      31.769 -12.017 -20.992  0.00  0.00    +0.112 C 
ATOM      9  C   UNL     1      31.246  -9.841 -20.395  0.00  0.00    +0.252 C 
ATOM     10  N   UNL     1      31.668 -13.404 -20.788  0.00  0.00    -0.346 N 
ATOM     11  H   UNL     1      31.128 -13.755 -20.042  0.00  0.00    +0.143 HD
ATOM     12  H   UNL     1      32.138 -14.027 -21.389  0.00  0.00    +0.143 HD
ENDROOT
BRANCH   7  15
ATOM     13  N   UNL     1      33.394 -15.131 -25.054  0.00  0.00    -0.229 NA
ATOM     14  N   UNL     1      34.490 -17.164 -24.368  0.00  0.00    -0.297 N 
ATOM     15  C   UNL     1      33.625 -13.316 -23.436  0.00  0.00    +0.035 C 
ATOM     16  C   UNL     1      34.376 -14.111 -22.573  0.00  0.00    +0.006 C 
ATOM     17  C   UNL     1      33.174 -13.865 -24.628  0.00  0.00    +0.102 C 
ATOM     18  C   UNL     1      34.637 -15.434 -22.962  0.00  0.00    +0.033 C 
ATOM     19  C   UNL     1      34.124 -15.856 -24.185  0.00  0.00    +0.132 C 
ATOM     20  C   UNL     1      35.334 -16.540 -22.405  0.00  0.00    +0.019 C 
ATOM     21  C   UNL     1      35.227 -17.589 -23.293  0.00  0.00    +0.063 C 
ATOM     22  H   UNL     1      34.261 -17.712 -25.152  0.00  0.00    +0.154 HD
ENDBRANCH   7  15
BRANCH   1  23
ATOM     23  C   UNL     1      33.710  -8.491 -23.787  0.00  0.00    +0.098 C 
ATOM     24  C   UNL     1      34.517  -7.601 -22.819  0.00  0.00    +0.022 C 
ATOM     25  C   UNL     1      32.471  -7.666 -24.176  0.00  0.00    +0.022 C 
ATOM     26  C   UNL     1      33.649  -6.374 -22.563  0.00  0.00    +0.002 C 
ATOM     27  C   UNL     1      32.842  -6.229 -23.841  0.00  0.00    +0.002 C 
ENDBRANCH   1  23
TORSDOF 2
ENDMDL
MODEL 3
REMARK VINA RESULT:     -10.1      1.643      6.240
REMARK  Name = 24905142
REMARK  2 active torsions:
REMARK  status: ('A' for Active; 'I' for Inactive)
REMARK    1  A    between atoms: N_1  and  C_20
REMARK    2  A    between atoms: C_7  and  C_12
REMARK                            x       y       z     vdW  Elec       q    Type
REMARK                         _______ _______ _______ _____ _____    ______ ____
ROOT
ATOM      1  N   UNL     1      35.109 -24.386 -14.740  0.00  0.00    -0.200 N 
ATOM      2  N   UNL     1      35.464 -23.727 -15.859  0.00  0.00    -0.181 NA
ATOM      3  N   UNL     1      33.131 -24.890 -13.438  0.00  0.00    -0.232 NA
ATOM      4  N   UNL     1      31.127 -23.915 -14.427  0.00  0.00    -0.234 NA
ATOM      5  C   UNL     1      33.773 -24.331 -14.476  0.00  0.00    +0.137 C 
ATOM      6  C   UNL     1      33.213 -23.581 -15.495  0.00  0.00    +0.150 C 
ATOM      7  C   UNL     1      34.305 -23.238 -16.314  0.00  0.00    +0.091 C 
ATOM      8  C   UNL     1      31.838 -23.379 -15.449  0.00  0.00    +0.112 C 
ATOM      9  C   UNL     1      31.808 -24.627 -13.498  0.00  0.00    +0.252 C 
ATOM     10  N   UNL     1      31.176 -22.631 -16.439  0.00  0.00    -0.346 N 
ATOM     11  H   UNL     1      30.200 -22.500 -16.387  0.00  0.00    +0.143 HD
ATOM     12  H   UNL     1      31.686 -22.239 -17.184  0.00  0.00    +0.143 HD
ENDROOT
BRANCH   7  15
ATOM     13  N   UNL     1      32.970 -21.607 -19.392  0.00  0.00    -0.229 NA
ATOM     14  N   UNL     1      34.253 -20.255 -20.918  0.00  0.00    -0.297 N 
ATOM     15  C   UNL     1      34.283 -22.460 -17.518  0.00  0.00    +0.035 C 
ATOM     16  C   UNL     1      35.441 -21.837 -17.979  0.00  0.00    +0.006 C 
ATOM     17  C   UNL     1      33.111 -22.314 -18.247  0.00  0.00    +0.102 C 
ATOM     18  C   UNL     1      35.356 -21.088 -19.164  0.00  0.00    +0.033 C 
ATOM     19  C   UNL     1      34.116 -21.025 -19.793  0.00  0.00    +0.132 C 
ATOM     20  C   UNL     1      36.256 -20.323 -19.951  0.00  0.00    +0.019 C 
ATOM     21  C   UNL     1      35.550 -19.822 -21.023  0.00  0.00    +0.063 C 
ATOM     22  H   UNL     1      33.531 -20.043 -21.552  0.00  0.00    +0.154 HD
ENDBRANCH   7  15
BRANCH   1  23
ATOM     23  C   UNL     1      36.168 -25.091 -13.922  0.00  0.00    +0.098 C 
ATOM     24  C   UNL     1      37.400 -24.224 -13.588  0.00  0.00    +0.022 C 
ATOM     25  C   UNL     1      36.719 -26.344 -14.624  0.00  0.00    +0.022 C 
ATOM     26  C   UNL     1      38.587 -24.923 -14.240  0.00  0.00    +0.002 C 
ATOM     27  C   UNL     1      38.190 -26.388 -14.238  0.00  0.00    +0.002 C 
ENDBRANCH   1  23
TORSDOF 2
ENDMDL
MODEL 4
REMARK VINA RESULT:     -10.0      1.973      6.583
REMARK  Name = 24905142
REMARK  2 active torsions:
REMARK  status: ('A' for Active; 'I' for Inactive)
REMARK    1  A    between atoms: N_1  and  C_20
REMARK    2  A    between atoms: C_7  and  C_12
REMARK                            x       y       z     vdW  Elec       q    Type
REMARK                         _______ _______ _______ _____ _____    ______ ____
ROOT
ATOM      1  N   UNL     1      35.955 -23.175 -14.444  0.00  0.00    -0.200 N 
ATOM      2  N   UNL     1      34.739 -23.552 -14.007  0.00  0.00    -0.181 NA
ATOM      3  N   UNL     1      37.023 -22.336 -16.448  0.00  0.00    -0.232 NA
ATOM      4  N   UNL     1      35.432 -22.076 -18.277  0.00  0.00    -0.234 NA
ATOM      5  C   UNL     1      35.964 -22.765 -15.744  0.00  0.00    +0.137 C 
ATOM      6  C   UNL     1      34.660 -22.883 -16.190  0.00  0.00    +0.150 C 
ATOM      7  C   UNL     1      33.955 -23.372 -15.075  0.00  0.00    +0.091 C 
ATOM      8  C   UNL     1      34.408 -22.519 -17.508  0.00  0.00    +0.112 C 
ATOM      9  C   UNL     1      36.659 -22.013 -17.707  0.00  0.00    +0.252 C 
ATOM     10  N   UNL     1      33.114 -22.602 -18.055  0.00  0.00    -0.346 N 
ATOM     11  H   UNL     1      32.957 -22.340 -18.991  0.00  0.00    +0.143 HD
ATOM     12  H   UNL     1      32.365 -22.922 -17.502  0.00  0.00    +0.143 HD
ENDROOT
BRANCH   7  15
ATOM     13  N   UNL     1      30.822 -25.162 -14.127  0.00  0.00    -0.229 NA
ATOM     14  N   UNL     1      28.595 -24.505 -14.770  0.00  0.00    -0.297 N 
ATOM     15  C   UNL     1      32.555 -23.675 -14.991  0.00  0.00    +0.035 C 
ATOM     16  C   UNL     1      31.616 -22.864 -15.626  0.00  0.00    +0.006 C 
ATOM     17  C   UNL     1      32.111 -24.779 -14.277  0.00  0.00    +0.102 C 
ATOM     18  C   UNL     1      30.262 -23.213 -15.506  0.00  0.00    +0.033 C 
ATOM     19  C   UNL     1      29.956 -24.347 -14.759  0.00  0.00    +0.132 C 
ATOM     20  C   UNL     1      29.029 -22.684 -15.973  0.00  0.00    +0.019 C 
ATOM     21  C   UNL     1      28.021 -23.499 -15.504  0.00  0.00    +0.063 C 
ATOM     22  H   UNL     1      28.104 -25.229 -14.319  0.00  0.00    +0.154 HD
ENDBRANCH   7  15
BRANCH   1  23
ATOM     23  C   UNL     1      37.138 -23.237 -13.503  0.00  0.00    +0.098 C 
ATOM     24  C   UNL     1      38.036 -24.478 -13.685  0.00  0.00    +0.022 C 
ATOM     25  C   UNL     1      36.715 -23.243 -12.023  0.00  0.00    +0.022 C 
ATOM     26  C   UNL     1      37.973 -25.233 -12.363  0.00  0.00    +0.002 C 
ATOM     27  C   UNL     1      37.731 -24.142 -11.335  0.00  0.00    +0.002 C 
ENDBRANCH   1  23
TORSDOF 2
ENDMDL
MODEL 5
REMARK VINA RESULT:      -9.9      1.555      4.140
REMARK  Name = 24905142
REMARK  2 active torsions:
REMARK  status: ('A' for Active; 'I' for Inactive)
REMARK    1  A    between atoms: N_1  and  C_20
REMARK    2  A    between atoms: C_7  and  C_12
REMARK                            x       y       z     vdW  Elec       q    Type
REMARK                         _______ _______ _______ _____ _____    ______ ____
ROOT
ATOM      1  N   UNL     1      32.321 -23.474 -16.179  0.00  0.00    -0.200 N 
ATOM      2  N   UNL     1      33.095 -23.926 -15.174  0.00  0.00    -0.181 NA
ATOM      3  N   UNL     1      32.518 -22.253 -18.261  0.00  0.00    -0.232 NA
ATOM      4  N   UNL     1      34.828 -21.625 -18.724  0.00  0.00    -0.234 NA
ATOM      5  C   UNL     1      33.017 -22.811 -17.147  0.00  0.00    +0.137 C 
ATOM      6  C   UNL     1      34.341 -22.832 -16.747  0.00  0.00    +0.150 C 
ATOM      7  C   UNL     1      34.324 -23.532 -15.526  0.00  0.00    +0.091 C 
ATOM      8  C   UNL     1      35.263 -22.210 -17.582  0.00  0.00    +0.112 C 
ATOM      9  C   UNL     1      33.501 -21.682 -18.988  0.00  0.00    +0.252 C 
ATOM     10  N   UNL     1      36.632 -22.179 -17.262  0.00  0.00    -0.346 N 
ATOM     11  H   UNL     1      37.269 -21.733 -17.868  0.00  0.00    +0.143 HD
ATOM     12  H   UNL     1      36.956 -22.602 -16.435  0.00  0.00    +0.143 HD
ENDROOT
BRANCH   7  15
ATOM     13  N   UNL     1      36.707 -23.292 -12.666  0.00  0.00    -0.229 NA
ATOM     14  N   UNL     1      38.603 -24.735 -12.309  0.00  0.00    -0.297 N 
ATOM     15  C   UNL     1      35.440 -23.840 -14.680  0.00  0.00    +0.035 C 
ATOM     16  C   UNL     1      36.295 -24.895 -14.993  0.00  0.00    +0.006 C 
ATOM     17  C   UNL     1      35.690 -23.095 -13.536  0.00  0.00    +0.102 C 
ATOM     18  C   UNL     1      37.370 -25.147 -14.126  0.00  0.00    +0.033 C 
ATOM     19  C   UNL     1      37.503 -24.321 -13.013  0.00  0.00    +0.132 C 
ATOM     20  C   UNL     1      38.436 -26.084 -14.071  0.00  0.00    +0.019 C 
ATOM     21  C   UNL     1      39.177 -25.807 -12.943  0.00  0.00    +0.063 C 
ATOM     22  H   UNL     1      38.929 -24.327 -11.476  0.00  0.00    +0.154 HD
ENDBRANCH   7  15
BRANCH   1  23
ATOM     23  C   UNL     1      30.831 -23.727 -16.144  0.00  0.00    +0.098 C 
ATOM     24  C   UNL     1      29.973 -22.467 -15.905  0.00  0.00    +0.022 C 
ATOM     25  C   UNL     1      30.426 -24.721 -15.041  0.00  0.00    +0.022 C 
ATOM     26  C   UNL     1      29.229 -22.715 -14.597  0.00  0.00    +0.002 C 
ATOM     27  C   UNL     1      29.076 -24.224 -14.549  0.00  0.00    +0.002 C 
ENDBRANCH   1  23
TORSDOF 2
ENDMDL
MODEL 6
REMARK VINA RESULT:      -9.8      2.425      6.255
REMARK  Name = 24905142
REMARK  2 active torsions:
REMARK  status: ('A' for Active; 'I' for Inactive)
REMARK    1  A    between atoms: N_1  and  C_20
REMARK    2  A    between atoms: C_7  and  C_12
REMARK                            x       y       z     vdW  Elec       q    Type
REMARK                         _______ _______ _______ _____ _____    ______ ____
ROOT
ATOM      1  N   UNL     1      30.600 -23.518 -15.657  0.00  0.00    -0.200 N 
ATOM      2  N   UNL     1      31.070 -22.887 -16.750  0.00  0.00    -0.181 NA
ATOM      3  N   UNL     1      31.418 -24.628 -13.667  0.00  0.00    -0.232 NA
ATOM      4  N   UNL     1      33.854 -24.628 -13.570  0.00  0.00    -0.234 NA
ATOM      5  C   UNL     1      31.581 -23.968 -14.824  0.00  0.00    +0.137 C 
ATOM      6  C   UNL     1      32.779 -23.605 -15.414  0.00  0.00    +0.150 C 
ATOM      7  C   UNL     1      32.398 -22.944 -16.596  0.00  0.00    +0.091 C 
ATOM      8  C   UNL     1      33.946 -23.958 -14.744  0.00  0.00    +0.112 C 
ATOM      9  C   UNL     1      32.614 -24.917 -13.111  0.00  0.00    +0.252 C 
ATOM     10  N   UNL     1      35.212 -23.634 -15.263  0.00  0.00    -0.346 N 
ATOM     11  H   UNL     1      36.027 -23.893 -14.772  0.00  0.00    +0.143 HD
ATOM     12  H   UNL     1      35.286 -23.147 -16.115  0.00  0.00    +0.143 HD
ENDROOT
BRANCH   7  15
ATOM     13  N   UNL     1      35.517 -22.157 -18.486  0.00  0.00    -0.229 NA
ATOM     14  N   UNL     1      35.654 -20.701 -20.400  0.00  0.00    -0.297 N 
ATOM     15  C   UNL     1      33.255 -22.361 -17.587  0.00  0.00    +0.035 C 
ATOM     16  C   UNL     1      32.738 -21.499 -18.552  0.00  0.00    +0.006 C 
ATOM     17  C   UNL     1      34.614 -22.645 -17.604  0.00  0.00    +0.102 C 
ATOM     18  C   UNL     1      33.629 -20.961 -19.495  0.00  0.00    +0.033 C 
ATOM     19  C   UNL     1      34.967 -21.330 -19.396  0.00  0.00    +0.132 C 
ATOM     20  C   UNL     1      33.527 -20.079 -20.603  0.00  0.00    +0.019 C 
ATOM     21  C   UNL     1      34.788 -19.938 -21.141  0.00  0.00    +0.063 C 
ATOM     22  H   UNL     1      36.621 -20.784 -20.565  0.00  0.00    +0.154 HD
ENDBRANCH   7  15
BRANCH   1  23
ATOM     23  C   UNL     1      29.108 -23.662 -15.464  0.00  0.00    +0.098 C 
ATOM     24  C   UNL     1      28.305 -23.827 -16.772  0.00  0.00    +0.022 C 
ATOM     25  C   UNL     1      28.486 -22.452 -14.744  0.00  0.00    +0.022 C 
ATOM     26  C   UNL     1      27.367 -22.628 -16.835  0.00  0.00    +0.002 C 
ATOM     27  C   UNL     1      27.113 -22.290 -15.377  0.00  0.00    +0.002 C 
ENDBRANCH   1  23
TORSDOF 2
ENDMDL
MODEL 7
REMARK VINA RESULT:      -9.5      2.055      4.912
REMARK  Name = 24905142
REMARK  2 active torsions:
REMARK  status: ('A' for Active; 'I' for Inactive)
REMARK    1  A    between atoms: N_1  and  C_20
REMARK    2  A    between atoms: C_7  and  C_12
REMARK                            x       y       z     vdW  Elec       q    Type
REMARK                         _______ _______ _______ _____ _____    ______ ____
ROOT
ATOM      1  N   UNL     1      34.874 -22.325 -17.945  0.00  0.00    -0.200 N 
ATOM      2  N   UNL     1      33.702 -22.858 -17.553  0.00  0.00    -0.181 NA
ATOM      3  N   UNL     1      37.051 -21.775 -17.039  0.00  0.00    -0.232 NA
ATOM      4  N   UNL     1      37.216 -22.349 -14.674  0.00  0.00    -0.234 NA
ATOM      5  C   UNL     1      35.801 -22.255 -16.947  0.00  0.00    +0.137 C 
ATOM      6  C   UNL     1      35.191 -22.780 -15.822  0.00  0.00    +0.150 C 
ATOM      7  C   UNL     1      33.901 -23.132 -16.259  0.00  0.00    +0.091 C 
ATOM      8  C   UNL     1      35.945 -22.819 -14.654  0.00  0.00    +0.112 C 
ATOM      9  C   UNL     1      37.683 -21.864 -15.849  0.00  0.00    +0.252 C 
ATOM     10  N   UNL     1      35.413 -23.334 -13.458  0.00  0.00    -0.346 N 
ATOM     11  H   UNL     1      35.964 -23.352 -12.641  0.00  0.00    +0.143 HD
ATOM     12  H   UNL     1      34.491 -23.677 -13.436  0.00  0.00    +0.143 HD
ENDROOT
BRANCH   7  15
ATOM     13  N   UNL     1      32.224 -25.033 -13.521  0.00  0.00    -0.229 NA
ATOM     14  N   UNL     1      29.849 -25.383 -13.323  0.00  0.00    -0.297 N 
ATOM     15  C   UNL     1      32.847 -23.724 -15.486  0.00  0.00    +0.035 C 
ATOM     16  C   UNL     1      31.518 -23.595 -15.886  0.00  0.00    +0.006 C 
ATOM     17  C   UNL     1      33.130 -24.434 -14.329  0.00  0.00    +0.102 C 
ATOM     18  C   UNL     1      30.533 -24.196 -15.087  0.00  0.00    +0.033 C 
ATOM     19  C   UNL     1      30.957 -24.879 -13.951  0.00  0.00    +0.132 C 
ATOM     20  C   UNL     1      29.117 -24.304 -15.126  0.00  0.00    +0.019 C 
ATOM     21  C   UNL     1      28.725 -25.039 -14.028  0.00  0.00    +0.063 C 
ATOM     22  H   UNL     1      29.859 -25.910 -12.492  0.00  0.00    +0.154 HD
ENDBRANCH   7  15
BRANCH   1  23
ATOM     23  C   UNL     1      35.048 -21.877 -19.378  0.00  0.00    +0.098 C 
ATOM     24  C   UNL     1      36.416 -21.230 -19.685  0.00  0.00    +0.022 C 
ATOM     25  C   UNL     1      33.993 -20.841 -19.805  0.00  0.00    +0.022 C 
ATOM     26  C   UNL     1      36.109 -19.803 -20.124  0.00  0.00    +0.002 C 
ATOM     27  C   UNL     1      34.731 -19.905 -20.751  0.00  0.00    +0.002 C 
ENDBRANCH   1  23
TORSDOF 2
ENDMDL
MODEL 8
REMARK VINA RESULT:      -9.3     11.296     14.234
REMARK  Name = 24905142
REMARK  2 active torsions:
REMARK  status: ('A' for Active; 'I' for Inactive)
REMARK    1  A    between atoms: N_1  and  C_20
REMARK    2  A    between atoms: C_7  and  C_12
REMARK                            x       y       z     vdW  Elec       q    Type
REMARK                         _______ _______ _______ _____ _____    ______ ____
ROOT
ATOM      1  N   UNL     1      32.605  -9.764 -23.155  0.00  0.00    -0.200 N 
ATOM      2  N   UNL     1      33.188 -10.847 -23.701  0.00  0.00    -0.181 NA
ATOM      3  N   UNL     1      31.499  -9.090 -21.109  0.00  0.00    -0.232 NA
ATOM      4  N   UNL     1      31.382 -10.921 -19.502  0.00  0.00    -0.234 NA
ATOM      5  C   UNL     1      32.125  -9.978 -21.897  0.00  0.00    +0.137 C 
ATOM      6  C   UNL     1      32.416 -11.298 -21.598  0.00  0.00    +0.150 C 
ATOM      7  C   UNL     1      33.070 -11.778 -22.748  0.00  0.00    +0.091 C 
ATOM      8  C   UNL     1      32.021 -11.764 -20.349  0.00  0.00    +0.112 C 
ATOM      9  C   UNL     1      31.164  -9.654 -19.929  0.00  0.00    +0.252 C 
ATOM     10  N   UNL     1      32.271 -13.090 -19.952  0.00  0.00    -0.346 N 
ATOM     11  H   UNL     1      31.983 -13.401 -19.062  0.00  0.00    +0.143 HD
ATOM     12  H   UNL     1      32.735 -13.708 -20.561  0.00  0.00    +0.143 HD
ENDROOT
BRANCH   7  15
ATOM     13  N   UNL     1      35.117 -14.856 -22.243  0.00  0.00    -0.229 NA
ATOM     14  N   UNL     1      35.033 -16.826 -23.628  0.00  0.00    -0.297 N 
ATOM     15  C   UNL     1      33.588 -13.097 -22.971  0.00  0.00    +0.035 C 
ATOM     16  C   UNL     1      33.127 -13.867 -24.037  0.00  0.00    +0.006 C 
ATOM     17  C   UNL     1      34.557 -13.629 -22.132  0.00  0.00    +0.102 C 
ATOM     18  C   UNL     1      33.672 -15.150 -24.202  0.00  0.00    +0.033 C 
ATOM     19  C   UNL     1      34.638 -15.559 -23.287  0.00  0.00    +0.132 C 
ATOM     20  C   UNL     1      33.493 -16.222 -25.117  0.00  0.00    +0.019 C 
ATOM     21  C   UNL     1      34.342 -17.239 -24.738  0.00  0.00    +0.063 C 
ATOM     22  H   UNL     1      35.707 -17.358 -23.148  0.00  0.00    +0.154 HD
ENDBRANCH   7  15
BRANCH   1  23
ATOM     23  C   UNL     1      32.538  -8.476 -23.945  0.00  0.00    +0.098 C 
ATOM     24  C   UNL     1      33.391  -7.327 -23.369  0.00  0.00    +0.022 C 
ATOM     25  C   UNL     1      31.106  -7.920 -24.047  0.00  0.00    +0.022 C 
ATOM     26  C   UNL     1      32.408  -6.217 -23.015  0.00  0.00    +0.002 C 
ATOM     27  C   UNL     1      31.275  -6.409 -24.007  0.00  0.00    +0.002 C 
ENDBRANCH   1  23
TORSDOF 2
ENDMDL
MODEL 9
REMARK VINA RESULT:      -9.2     12.610     16.601
REMARK  Name = 24905142
REMARK  2 active torsions:
REMARK  status: ('A' for Active; 'I' for Inactive)
REMARK    1  A    between atoms: N_1  and  C_20
REMARK    2  A    between atoms: C_7  and  C_12
REMARK                            x       y       z     vdW  Elec       q    Type
REMARK                         _______ _______ _______ _____ _____    ______ ____
ROOT
ATOM      1  N   UNL     1      32.386 -11.510 -21.830  0.00  0.00    -0.200 N 
ATOM      2  N   UNL     1      32.609 -10.711 -22.890  0.00  0.00    -0.181 NA
ATOM      3  N   UNL     1      31.857 -11.354 -19.472  0.00  0.00    -0.232 NA
ATOM      4  N   UNL     1      31.654  -9.035 -18.745  0.00  0.00    -0.234 NA
ATOM      5  C   UNL     1      32.117 -10.829 -20.680  0.00  0.00    +0.137 C 
ATOM      6  C   UNL     1      32.168  -9.486 -21.011  0.00  0.00    +0.150 C 
ATOM      7  C   UNL     1      32.475  -9.479 -22.385  0.00  0.00    +0.091 C 
ATOM      8  C   UNL     1      31.923  -8.574 -19.991  0.00  0.00    +0.112 C 
ATOM      9  C   UNL     1      31.638 -10.377 -18.566  0.00  0.00    +0.252 C 
ATOM     10  N   UNL     1      31.951  -7.188 -20.228  0.00  0.00    -0.346 N 
ATOM     11  H   UNL     1      31.775  -6.558 -19.491  0.00  0.00    +0.143 HD
ATOM     12  H   UNL     1      32.146  -6.846 -21.130  0.00  0.00    +0.143 HD
ENDROOT
BRANCH   7  15
ATOM     13  N   UNL     1      31.586  -6.649 -24.647  0.00  0.00    -0.229 NA
ATOM     14  N   UNL     1      33.156  -5.113 -25.636  0.00  0.00    -0.297 N 
ATOM     15  C   UNL     1      32.645  -8.338 -23.236  0.00  0.00    +0.035 C 
ATOM     16  C   UNL     1      33.915  -7.822 -23.482  0.00  0.00    +0.006 C 
ATOM     17  C   UNL     1      31.549  -7.727 -23.829  0.00  0.00    +0.102 C 
ATOM     18  C   UNL     1      34.016  -6.702 -24.324  0.00  0.00    +0.033 C 
ATOM     19  C   UNL     1      32.835  -6.190 -24.852  0.00  0.00    +0.132 C 
ATOM     20  C   UNL     1      35.073  -5.893 -24.818  0.00  0.00    +0.019 C 
ATOM     21  C   UNL     1      34.514  -4.923 -25.622  0.00  0.00    +0.063 C 
ATOM     22  H   UNL     1      32.511  -4.560 -26.133  0.00  0.00    +0.154 HD
ENDBRANCH   7  15
BRANCH   1  23
ATOM     23  C   UNL     1      32.451 -13.011 -22.001  0.00  0.00    +0.098 C 
ATOM     24  C   UNL     1      33.464 -13.718 -21.076  0.00  0.00    +0.022 C 
ATOM     25  C   UNL     1      32.837 -13.426 -23.432  0.00  0.00    +0.022 C 
ATOM     26  C   UNL     1      34.480 -14.378 -22.001  0.00  0.00    +0.002 C 
ATOM     27  C   UNL     1      33.683 -14.677 -23.258  0.00  0.00    +0.002 C 
ENDBRANCH   1  23
TORSDOF 2
ENDMDL
