MODEL 1
REMARK VINA RESULT:     -11.4      0.000      0.000
REMARK  Name = 5288250
REMARK  9 active torsions:
REMARK  status: ('A' for Active; 'I' for Inactive)
REMARK    1  A    between atoms: C_1  and  N_3
REMARK    2  A    between atoms: C_1  and  C_20
REMARK    3  A    between atoms: C_1  and  C_23
REMARK    4  A    between atoms: C_4  and  C_6
REMARK    5  A    between atoms: C_6  and  C_10
REMARK    6  A    between atoms: C_20  and  O_21
REMARK    7  A    between atoms: C_23  and  C_24
REMARK    8  A    between atoms: C_29  and  C_30
REMARK    9  A    between atoms: C_31  and  C_32
REMARK                            x       y       z     vdW  Elec       q    Type
REMARK                         _______ _______ _______ _____ _____    ______ ____
ROOT
ATOM      1  C   UNL     1      35.585 -24.767 -15.206  0.00  0.00    +0.176 C 
ENDROOT
BRANCH   1   3
ATOM      2  O   UNL     1      35.331 -23.511 -12.610  0.00  0.00    -0.275 OA
ATOM      3  N   UNL     1      34.380 -24.610 -14.424  0.00  0.00    -0.297 N 
ATOM      4  C   UNL     1      34.356 -23.990 -13.184  0.00  0.00    +0.223 C 
ATOM      5  H   UNL     1      33.535 -24.959 -14.791  0.00  0.00    +0.150 HD
BRANCH   4   6
ATOM      6  C   UNL     1      32.956 -23.970 -12.608  0.00  0.00    +0.087 C 
BRANCH   6  10
ATOM      7  N   UNL     1      30.069 -23.380 -15.016  0.00  0.00    -0.282 N 
ATOM      8  N   UNL     1      31.153 -22.408 -16.772  0.00  0.00    -0.331 N 
ATOM      9  N   UNL     1      28.808 -22.531 -16.791  0.00  0.00    -0.273 NA
ATOM     10  C   UNL     1      31.894 -24.297 -13.655  0.00  0.00    +0.029 C 
ATOM     11  C   UNL     1      30.929 -25.373 -13.136  0.00  0.00    +0.004 C 
ATOM     12  C   UNL     1      31.123 -23.033 -14.063  0.00  0.00    +0.094 C 
ATOM     13  C   UNL     1      29.826 -25.654 -14.155  0.00  0.00    +0.022 C 
ATOM     14  C   UNL     1      29.101 -24.372 -14.554  0.00  0.00    +0.093 C 
ATOM     15  C   UNL     1      29.953 -22.764 -16.215  0.00  0.00    +0.174 C 
ATOM     16  H   UNL     1      31.993 -22.604 -16.300  0.00  0.00    +0.145 HD
ATOM     17  H   UNL     1      31.174 -21.954 -17.646  0.00  0.00    +0.145 HD
ATOM     18  H   UNL     1      27.971 -22.806 -16.350  0.00  0.00    +0.189 HD
ENDBRANCH   6  10
ENDBRANCH   4   6
ENDBRANCH   1   3
BRANCH   1  20
ATOM     19  O   UNL     1      36.270 -27.082 -15.099  0.00  0.00    -0.248 OA
ATOM     20  C   UNL     1      36.444 -25.927 -14.721  0.00  0.00    +0.335 C 
BRANCH  20  21
ATOM     21  O   UNL     1      37.391 -25.528 -13.827  0.00  0.00    -0.443 OA
ATOM     22  C   UNL     1      37.493 -26.316 -12.637  0.00  0.00    +0.256 C 
ENDBRANCH  20  21
ENDBRANCH   1  20
BRANCH   1  23
ATOM     23  C   UNL     1      36.379 -23.454 -15.278  0.00  0.00    +0.057 C 
BRANCH  23  24
ATOM     24  C   UNL     1      36.122 -22.628 -16.519  0.00  0.00    -0.020 C 
ATOM     25  C   UNL     1      34.932 -22.785 -17.228  0.00  0.00    -0.004 C 
ATOM     26  C   UNL     1      37.077 -21.707 -16.952  0.00  0.00    -0.004 C 
ATOM     27  C   UNL     1      34.696 -22.024 -18.373  0.00  0.00    +0.008 C 
ATOM     28  C   UNL     1      36.840 -20.945 -18.096  0.00  0.00    +0.008 C 
ATOM     29  C   UNL     1      35.650 -21.103 -18.807  0.00  0.00    +0.042 C 
BRANCH  29  30
ATOM     30  C   UNL     1      35.409 -20.324 -19.979  0.00  0.00    -0.060 C 
ATOM     31  C   UNL     1      35.206 -19.667 -20.964  0.00  0.00    -0.060 C 
BRANCH  31  32
ATOM     32  C   UNL     1      34.965 -18.886 -22.139  0.00  0.00    +0.042 C 
ATOM     33  C   UNL     1      34.369 -19.472 -23.255  0.00  0.00    +0.008 C 
ATOM     34  C   UNL     1      35.328 -17.539 -22.167  0.00  0.00    +0.008 C 
ATOM     35  C   UNL     1      34.134 -18.711 -24.401  0.00  0.00    +0.001 C 
ATOM     36  C   UNL     1      35.092 -16.778 -23.313  0.00  0.00    +0.001 C 
ATOM     37  C   UNL     1      34.496 -17.365 -24.429  0.00  0.00    +0.000 C 
ENDBRANCH  31  32
ENDBRANCH  29  30
ENDBRANCH  23  24
ENDBRANCH   1  23
TORSDOF 9
ENDMDL
MODEL 2
REMARK VINA RESULT:     -10.8      3.082      5.485
REMARK  Name = 5288250
REMARK  9 active torsions:
REMARK  status: ('A' for Active; 'I' for Inactive)
REMARK    1  A    between atoms: C_1  and  N_3
REMARK    2  A    between atoms: C_1  and  C_20
REMARK    3  A    between atoms: C_1  and  C_23
REMARK    4  A    between atoms: C_4  and  C_6
REMARK    5  A    between atoms: C_6  and  C_10
REMARK    6  A    between atoms: C_20  and  O_21
REMARK    7  A    between atoms: C_23  and  C_24
REMARK    8  A    between atoms: C_29  and  C_30
REMARK    9  A    between atoms: C_31  and  C_32
REMARK                            x       y       z     vdW  Elec       q    Type
REMARK                         _______ _______ _______ _____ _____    ______ ____
ROOT
ATOM      1  C   UNL     1      35.363 -22.379 -17.397  0.00  0.00    +0.176 C 
ENDROOT
BRANCH   1   3
ATOM      2  O   UNL     1      37.572 -21.020 -16.111  0.00  0.00    -0.275 OA
ATOM      3  N   UNL     1      36.351 -22.957 -16.515  0.00  0.00    -0.297 N 
ATOM      4  C   UNL     1      37.379 -22.221 -15.943  0.00  0.00    +0.223 C 
ATOM      5  H   UNL     1      36.291 -23.918 -16.309  0.00  0.00    +0.150 HD
BRANCH   4   6
ATOM      6  C   UNL     1      38.252 -23.092 -15.064  0.00  0.00    +0.087 C 
BRANCH   6  10
ATOM      7  N   UNL     1      36.692 -24.846 -12.069  0.00  0.00    -0.282 N 
ATOM      8  N   UNL     1      34.892 -23.505 -11.662  0.00  0.00    -0.331 N 
ATOM      9  N   UNL     1      35.401 -25.237 -10.161  0.00  0.00    -0.273 NA
ATOM     10  C   UNL     1      37.444 -24.133 -14.294  0.00  0.00    +0.029 C 
ATOM     11  C   UNL     1      38.011 -25.542 -14.523  0.00  0.00    +0.004 C 
ATOM     12  C   UNL     1      37.414 -23.802 -12.795  0.00  0.00    +0.094 C 
ATOM     13  C   UNL     1      37.246 -26.578 -13.701  0.00  0.00    +0.022 C 
ATOM     14  C   UNL     1      37.217 -26.200 -12.223  0.00  0.00    +0.093 C 
ATOM     15  C   UNL     1      35.655 -24.564 -11.247  0.00  0.00    +0.174 C 
ATOM     16  H   UNL     1      35.123 -23.026 -12.490  0.00  0.00    +0.145 HD
ATOM     17  H   UNL     1      34.113 -23.222 -11.130  0.00  0.00    +0.145 HD
ATOM     18  H   UNL     1      35.979 -25.993  -9.904  0.00  0.00    +0.189 HD
ENDBRANCH   6  10
ENDBRANCH   4   6
ENDBRANCH   1   3
BRANCH   1  20
ATOM     19  O   UNL     1      33.531 -23.735 -18.198  0.00  0.00    -0.248 OA
ATOM     20  C   UNL     1      34.011 -23.070 -17.286  0.00  0.00    +0.335 C 
BRANCH  20  21
ATOM     21  O   UNL     1      33.415 -22.842 -16.082  0.00  0.00    -0.443 OA
ATOM     22  C   UNL     1      32.051 -23.261 -15.975  0.00  0.00    +0.256 C 
ENDBRANCH  20  21
ENDBRANCH   1  20
BRANCH   1  23
ATOM     23  C   UNL     1      35.868 -22.333 -18.847  0.00  0.00    +0.057 C 
BRANCH  23  24
ATOM     24  C   UNL     1      35.587 -21.037 -19.573  0.00  0.00    -0.020 C 
ATOM     25  C   UNL     1      36.633 -20.167 -19.878  0.00  0.00    -0.004 C 
ATOM     26  C   UNL     1      34.281 -20.712 -19.939  0.00  0.00    -0.004 C 
ATOM     27  C   UNL     1      36.373 -18.970 -20.547  0.00  0.00    +0.008 C 
ATOM     28  C   UNL     1      34.021 -19.516 -20.608  0.00  0.00    +0.008 C 
ATOM     29  C   UNL     1      35.067 -18.646 -20.913  0.00  0.00    +0.042 C 
BRANCH  29  30
ATOM     30  C   UNL     1      34.801 -17.420 -21.598  0.00  0.00    -0.060 C 
ATOM     31  C   UNL     1      34.579 -16.389 -22.172  0.00  0.00    -0.060 C 
BRANCH  31  32
ATOM     32  C   UNL     1      34.313 -15.162 -22.858  0.00  0.00    +0.042 C 
ATOM     33  C   UNL     1      34.474 -13.945 -22.196  0.00  0.00    +0.008 C 
ATOM     34  C   UNL     1      33.893 -15.183 -24.188  0.00  0.00    +0.008 C 
ATOM     35  C   UNL     1      34.216 -12.748 -22.864  0.00  0.00    +0.001 C 
ATOM     36  C   UNL     1      33.635 -13.985 -24.856  0.00  0.00    +0.001 C 
ATOM     37  C   UNL     1      33.796 -12.768 -24.194  0.00  0.00    +0.000 C 
ENDBRANCH  31  32
ENDBRANCH  29  30
ENDBRANCH  23  24
ENDBRANCH   1  23
TORSDOF 9
ENDMDL
MODEL 3
REMARK VINA RESULT:     -10.3      5.450     10.844
REMARK  Name = 5288250
REMARK  9 active torsions:
REMARK  status: ('A' for Active; 'I' for Inactive)
REMARK    1  A    between atoms: C_1  and  N_3
REMARK    2  A    between atoms: C_1  and  C_20
REMARK    3  A    between atoms: C_1  and  C_23
REMARK    4  A    between atoms: C_4  and  C_6
REMARK    5  A    between atoms: C_6  and  C_10
REMARK    6  A    between atoms: C_20  and  O_21
REMARK    7  A    between atoms: C_23  and  C_24
REMARK    8  A    between atoms: C_29  and  C_30
REMARK    9  A    between atoms: C_31  and  C_32
REMARK                            x       y       z     vdW  Elec       q    Type
REMARK                         _______ _______ _______ _____ _____    ______ ____
ROOT
ATOM      1  C   UNL     1      35.435 -18.323 -21.422  0.00  0.00    +0.176 C 
ENDROOT
BRANCH   1   3
ATOM      2  O   UNL     1      34.913 -15.543 -20.812  0.00  0.00    -0.275 OA
ATOM      3  N   UNL     1      35.157 -17.260 -22.359  0.00  0.00    -0.297 N 
ATOM      4  C   UNL     1      34.918 -15.949 -21.970  0.00  0.00    +0.223 C 
ATOM      5  H   UNL     1      35.137 -17.475 -23.320  0.00  0.00    +0.150 HD
BRANCH   4   6
ATOM      6  C   UNL     1      34.661 -15.060 -23.168  0.00  0.00    +0.087 C 
BRANCH   6  10
ATOM      7  N   UNL     1      32.269 -12.370 -21.935  0.00  0.00    -0.282 N 
ATOM      8  N   UNL     1      32.313 -12.740 -19.685  0.00  0.00    -0.331 N 
ATOM      9  N   UNL     1      30.798 -11.177 -20.566  0.00  0.00    -0.273 NA
ATOM     10  C   UNL     1      34.178 -13.669 -22.765  0.00  0.00    +0.029 C 
ATOM     11  C   UNL     1      34.300 -12.688 -23.941  0.00  0.00    +0.004 C 
ATOM     12  C   UNL     1      32.732 -13.720 -22.252  0.00  0.00    +0.094 C 
ATOM     13  C   UNL     1      33.755 -11.312 -23.561  0.00  0.00    +0.022 C 
ATOM     14  C   UNL     1      32.327 -11.408 -23.033  0.00  0.00    +0.093 C 
ATOM     15  C   UNL     1      31.748 -12.054 -20.727  0.00  0.00    +0.174 C 
ATOM     16  H   UNL     1      33.029 -13.393 -19.855  0.00  0.00    +0.145 HD
ATOM     17  H   UNL     1      32.002 -12.579 -18.764  0.00  0.00    +0.145 HD
ATOM     18  H   UNL     1      30.423 -10.709 -21.347  0.00  0.00    +0.189 HD
ENDBRANCH   6  10
ENDBRANCH   4   6
ENDBRANCH   1   3
BRANCH   1  20
ATOM     19  O   UNL     1      37.699 -18.642 -22.205  0.00  0.00    -0.248 OA
ATOM     20  C   UNL     1      36.927 -18.572 -21.253  0.00  0.00    +0.335 C 
BRANCH  20  21
ATOM     21  O   UNL     1      37.279 -18.720 -19.945  0.00  0.00    -0.443 OA
ATOM     22  C   UNL     1      37.455 -20.068 -19.498  0.00  0.00    +0.256 C 
ENDBRANCH  20  21
ENDBRANCH   1  20
BRANCH   1  23
ATOM     23  C   UNL     1      34.676 -19.606 -21.792  0.00  0.00    +0.057 C 
BRANCH  23  24
ATOM     24  C   UNL     1      34.135 -20.382 -20.611  0.00  0.00    -0.020 C 
ATOM     25  C   UNL     1      32.836 -20.150 -20.160  0.00  0.00    -0.004 C 
ATOM     26  C   UNL     1      34.935 -21.331 -19.975  0.00  0.00    -0.004 C 
ATOM     27  C   UNL     1      32.337 -20.865 -19.071  0.00  0.00    +0.008 C 
ATOM     28  C   UNL     1      34.437 -22.047 -18.887  0.00  0.00    +0.008 C 
ATOM     29  C   UNL     1      33.138 -21.814 -18.435  0.00  0.00    +0.042 C 
BRANCH  29  30
ATOM     30  C   UNL     1      32.627 -22.547 -17.319  0.00  0.00    -0.060 C 
ATOM     31  C   UNL     1      32.196 -23.161 -16.381  0.00  0.00    -0.060 C 
BRANCH  31  32
ATOM     32  C   UNL     1      31.684 -23.894 -15.264  0.00  0.00    +0.042 C 
ATOM     33  C   UNL     1      30.335 -24.245 -15.221  0.00  0.00    +0.008 C 
ATOM     34  C   UNL     1      32.533 -24.255 -14.218  0.00  0.00    +0.008 C 
ATOM     35  C   UNL     1      29.834 -24.960 -14.133  0.00  0.00    +0.001 C 
ATOM     36  C   UNL     1      32.032 -24.970 -13.130  0.00  0.00    +0.001 C 
ATOM     37  C   UNL     1      30.683 -25.322 -13.087  0.00  0.00    +0.000 C 
ENDBRANCH  31  32
ENDBRANCH  29  30
ENDBRANCH  23  24
ENDBRANCH   1  23
TORSDOF 9
ENDMDL
MODEL 4
REMARK VINA RESULT:     -10.2      2.510      5.326
REMARK  Name = 5288250
REMARK  9 active torsions:
REMARK  status: ('A' for Active; 'I' for Inactive)
REMARK    1  A    between atoms: C_1  and  N_3
REMARK    2  A    between atoms: C_1  and  C_20
REMARK    3  A    between atoms: C_1  and  C_23
REMARK    4  A    between atoms: C_4  and  C_6
REMARK    5  A    between atoms: C_6  and  C_10
REMARK    6  A    between atoms: C_20  and  O_21
REMARK    7  A    between atoms: C_23  and  C_24
REMARK    8  A    between atoms: C_29  and  C_30
REMARK    9  A    between atoms: C_31  and  C_32
REMARK                            x       y       z     vdW  Elec       q    Type
REMARK                         _______ _______ _______ _____ _____    ______ ____
ROOT
ATOM      1  C   UNL     1      33.149 -23.398 -15.420  0.00  0.00    +0.176 C 
ENDROOT
BRANCH   1   3
ATOM      2  O   UNL     1      32.328 -23.149 -12.656  0.00  0.00    -0.275 OA
ATOM      3  N   UNL     1      33.833 -23.910 -14.255  0.00  0.00    -0.297 N 
ATOM      4  C   UNL     1      33.359 -23.741 -12.962  0.00  0.00    +0.223 C 
ATOM      5  H   UNL     1      34.675 -24.405 -14.385  0.00  0.00    +0.150 HD
BRANCH   4   6
ATOM      6  C   UNL     1      34.282 -24.388 -11.951  0.00  0.00    +0.087 C 
BRANCH   6  10
ATOM      7  N   UNL     1      37.838 -25.426 -12.821  0.00  0.00    -0.282 N 
ATOM      8  N   UNL     1      37.599 -26.028 -15.008  0.00  0.00    -0.331 N 
ATOM      9  N   UNL     1      39.648 -26.409 -13.926  0.00  0.00    -0.273 NA
ATOM     10  C   UNL     1      35.754 -24.230 -12.326  0.00  0.00    +0.029 C 
ATOM     11  C   UNL     1      36.504 -23.421 -11.257  0.00  0.00    +0.004 C 
ATOM     12  C   UNL     1      36.416 -25.600 -12.529  0.00  0.00    +0.094 C 
ATOM     13  C   UNL     1      37.991 -23.318 -11.595  0.00  0.00    +0.022 C 
ATOM     14  C   UNL     1      38.606 -24.697 -11.814  0.00  0.00    +0.093 C 
ATOM     15  C   UNL     1      38.420 -25.974 -13.913  0.00  0.00    +0.174 C 
ATOM     16  H   UNL     1      36.678 -25.686 -14.951  0.00  0.00    +0.145 HD
ATOM     17  H   UNL     1      37.931 -26.409 -15.854  0.00  0.00    +0.145 HD
ATOM     18  H   UNL     1      40.200 -26.349 -13.113  0.00  0.00    +0.189 HD
ENDBRANCH   6  10
ENDBRANCH   4   6
ENDBRANCH   1   3
BRANCH   1  20
ATOM     19  O   UNL     1      31.254 -24.886 -15.239  0.00  0.00    -0.248 OA
ATOM     20  C   UNL     1      31.667 -23.745 -15.423  0.00  0.00    +0.335 C 
BRANCH  20  21
ATOM     21  O   UNL     1      30.884 -22.656 -15.666  0.00  0.00    -0.443 OA
ATOM     22  C   UNL     1      29.486 -22.918 -15.818  0.00  0.00    +0.256 C 
ENDBRANCH  20  21
ENDBRANCH   1  20
BRANCH   1  23
ATOM     23  C   UNL     1      33.846 -23.840 -16.716  0.00  0.00    +0.057 C 
BRANCH  23  24
ATOM     24  C   UNL     1      34.008 -22.748 -17.750  0.00  0.00    -0.020 C 
ATOM     25  C   UNL     1      35.283 -22.317 -18.116  0.00  0.00    -0.004 C 
ATOM     26  C   UNL     1      32.882 -22.172 -18.338  0.00  0.00    -0.004 C 
ATOM     27  C   UNL     1      35.433 -21.309 -19.069  0.00  0.00    +0.008 C 
ATOM     28  C   UNL     1      33.031 -21.165 -19.292  0.00  0.00    +0.008 C 
ATOM     29  C   UNL     1      34.307 -20.734 -19.657  0.00  0.00    +0.042 C 
BRANCH  29  30
ATOM     30  C   UNL     1      34.460 -19.701 -20.633  0.00  0.00    -0.060 C 
ATOM     31  C   UNL     1      34.588 -18.835 -21.454  0.00  0.00    -0.060 C 
BRANCH  31  32
ATOM     32  C   UNL     1      34.740 -17.800 -22.432  0.00  0.00    +0.042 C 
ATOM     33  C   UNL     1      35.109 -16.516 -22.035  0.00  0.00    +0.008 C 
ATOM     34  C   UNL     1      34.519 -18.078 -23.781  0.00  0.00    +0.008 C 
ATOM     35  C   UNL     1      35.257 -15.507 -22.987  0.00  0.00    +0.001 C 
ATOM     36  C   UNL     1      34.668 -17.070 -24.733  0.00  0.00    +0.001 C 
ATOM     37  C   UNL     1      35.036 -15.784 -24.336  0.00  0.00    +0.000 C 
ENDBRANCH  31  32
ENDBRANCH  29  30
ENDBRANCH  23  24
ENDBRANCH   1  23
TORSDOF 9
ENDMDL
MODEL 5
REMARK VINA RESULT:     -10.0      5.892     10.734
REMARK  Name = 5288250
REMARK  9 active torsions:
REMARK  status: ('A' for Active; 'I' for Inactive)
REMARK    1  A    between atoms: C_1  and  N_3
REMARK    2  A    between atoms: C_1  and  C_20
REMARK    3  A    between atoms: C_1  and  C_23
REMARK    4  A    between atoms: C_4  and  C_6
REMARK    5  A    between atoms: C_6  and  C_10
REMARK    6  A    between atoms: C_20  and  O_21
REMARK    7  A    between atoms: C_23  and  C_24
REMARK    8  A    between atoms: C_29  and  C_30
REMARK    9  A    between atoms: C_31  and  C_32
REMARK                            x       y       z     vdW  Elec       q    Type
REMARK                         _______ _______ _______ _____ _____    ______ ____
ROOT
ATOM      1  C   UNL     1      35.904 -18.636 -22.006  0.00  0.00    +0.176 C 
ENDROOT
BRANCH   1   3
ATOM      2  O   UNL     1      35.689 -15.796 -22.525  0.00  0.00    -0.275 OA
ATOM      3  N   UNL     1      35.278 -17.638 -21.168  0.00  0.00    -0.297 N 
ATOM      4  C   UNL     1      35.223 -16.293 -21.503  0.00  0.00    +0.223 C 
ATOM      5  H   UNL     1      34.869 -17.928 -20.321  0.00  0.00    +0.150 HD
BRANCH   4   6
ATOM      6  C   UNL     1      34.504 -15.492 -20.438  0.00  0.00    +0.087 C 
BRANCH   6  10
ATOM      7  N   UNL     1      33.258 -12.399 -22.272  0.00  0.00    -0.282 N 
ATOM      8  N   UNL     1      33.562 -13.023 -24.445  0.00  0.00    -0.331 N 
ATOM      9  N   UNL     1      32.899 -10.823 -23.960  0.00  0.00    -0.273 NA
ATOM     10  C   UNL     1      33.504 -14.503 -21.033  0.00  0.00    +0.029 C 
ATOM     11  C   UNL     1      32.583 -13.937 -19.942  0.00  0.00    +0.004 C 
ATOM     12  C   UNL     1      34.231 -13.368 -21.768  0.00  0.00    +0.094 C 
ATOM     13  C   UNL     1      31.626 -12.897 -20.523  0.00  0.00    +0.022 C 
ATOM     14  C   UNL     1      32.383 -11.801 -21.266  0.00  0.00    +0.093 C 
ATOM     15  C   UNL     1      33.224 -12.024 -23.571  0.00  0.00    +0.174 C 
ATOM     16  H   UNL     1      33.800 -13.915 -24.104  0.00  0.00    +0.145 HD
ATOM     17  H   UNL     1      33.566 -12.849 -25.414  0.00  0.00    +0.145 HD
ATOM     18  H   UNL     1      32.664 -10.137 -23.293  0.00  0.00    +0.189 HD
ENDBRANCH   6  10
ENDBRANCH   4   6
ENDBRANCH   1   3
BRANCH   1  20
ATOM     19  O   UNL     1      35.106 -20.273 -23.593  0.00  0.00    -0.248 OA
ATOM     20  C   UNL     1      34.962 -19.170 -23.076  0.00  0.00    +0.335 C 
BRANCH  20  21
ATOM     21  O   UNL     1      33.977 -18.280 -23.385  0.00  0.00    -0.443 OA
ATOM     22  C   UNL     1      33.966 -17.813 -24.738  0.00  0.00    +0.256 C 
ENDBRANCH  20  21
ENDBRANCH   1  20
BRANCH   1  23
ATOM     23  C   UNL     1      36.519 -19.764 -21.165  0.00  0.00    +0.057 C 
BRANCH  23  24
ATOM     24  C   UNL     1      35.557 -20.441 -20.215  0.00  0.00    -0.020 C 
ATOM     25  C   UNL     1      36.040 -21.284 -19.215  0.00  0.00    -0.004 C 
ATOM     26  C   UNL     1      34.185 -20.221 -20.338  0.00  0.00    -0.004 C 
ATOM     27  C   UNL     1      35.152 -21.909 -18.339  0.00  0.00    +0.008 C 
ATOM     28  C   UNL     1      33.297 -20.844 -19.462  0.00  0.00    +0.008 C 
ATOM     29  C   UNL     1      33.780 -21.688 -18.463  0.00  0.00    +0.042 C 
BRANCH  29  30
ATOM     30  C   UNL     1      32.871 -22.329 -17.565  0.00  0.00    -0.060 C 
ATOM     31  C   UNL     1      32.107 -22.868 -16.812  0.00  0.00    -0.060 C 
BRANCH  31  32
ATOM     32  C   UNL     1      31.197 -23.510 -15.913  0.00  0.00    +0.042 C 
ATOM     33  C   UNL     1      29.823 -23.322 -16.060  0.00  0.00    +0.008 C 
ATOM     34  C   UNL     1      31.685 -24.323 -14.890  0.00  0.00    +0.008 C 
ATOM     35  C   UNL     1      28.936 -23.947 -15.185  0.00  0.00    +0.001 C 
ATOM     36  C   UNL     1      30.797 -24.948 -14.014  0.00  0.00    +0.001 C 
ATOM     37  C   UNL     1      29.423 -24.760 -14.161  0.00  0.00    +0.000 C 
ENDBRANCH  31  32
ENDBRANCH  29  30
ENDBRANCH  23  24
ENDBRANCH   1  23
TORSDOF 9
ENDMDL
MODEL 6
REMARK VINA RESULT:     -10.0      5.756     10.928
REMARK  Name = 5288250
REMARK  9 active torsions:
REMARK  status: ('A' for Active; 'I' for Inactive)
REMARK    1  A    between atoms: C_1  and  N_3
REMARK    2  A    between atoms: C_1  and  C_20
REMARK    3  A    between atoms: C_1  and  C_23
REMARK    4  A    between atoms: C_4  and  C_6
REMARK    5  A    between atoms: C_6  and  C_10
REMARK    6  A    between atoms: C_20  and  O_21
REMARK    7  A    between atoms: C_23  and  C_24
REMARK    8  A    between atoms: C_29  and  C_30
REMARK    9  A    between atoms: C_31  and  C_32
REMARK                            x       y       z     vdW  Elec       q    Type
REMARK                         _______ _______ _______ _____ _____    ______ ____
ROOT
ATOM      1  C   UNL     1      35.157 -19.176 -21.222  0.00  0.00    +0.176 C 
ENDROOT
BRANCH   1   3
ATOM      2  O   UNL     1      35.719 -16.531 -22.255  0.00  0.00    -0.275 OA
ATOM      3  N   UNL     1      34.850 -17.910 -20.597  0.00  0.00    -0.297 N 
ATOM      4  C   UNL     1      35.160 -16.686 -21.173  0.00  0.00    +0.223 C 
ATOM      5  H   UNL     1      34.399 -17.916 -19.722  0.00  0.00    +0.150 HD
BRANCH   4   6
ATOM      6  C   UNL     1      34.715 -15.538 -20.291  0.00  0.00    +0.087 C 
BRANCH   6  10
ATOM      7  N   UNL     1      33.385 -12.651 -22.382  0.00  0.00    -0.282 N 
ATOM      8  N   UNL     1      33.763 -13.426 -24.494  0.00  0.00    -0.331 N 
ATOM      9  N   UNL     1      32.999 -11.226 -24.194  0.00  0.00    -0.273 NA
ATOM     10  C   UNL     1      33.689 -14.641 -20.980  0.00  0.00    +0.029 C 
ATOM     11  C   UNL     1      32.721 -14.033 -19.954  0.00  0.00    +0.004 C 
ATOM     12  C   UNL     1      34.384 -13.535 -21.786  0.00  0.00    +0.094 C 
ATOM     13  C   UNL     1      31.735 -13.083 -20.632  0.00  0.00    +0.022 C 
ATOM     14  C   UNL     1      32.463 -12.015 -21.443  0.00  0.00    +0.093 C 
ATOM     15  C   UNL     1      33.364 -12.378 -23.707  0.00  0.00    +0.174 C 
ATOM     16  H   UNL     1      34.030 -14.278 -24.081  0.00  0.00    +0.145 HD
ATOM     17  H   UNL     1      33.782 -13.326 -25.474  0.00  0.00    +0.145 HD
ATOM     18  H   UNL     1      32.720 -10.502 -23.587  0.00  0.00    +0.189 HD
ENDBRANCH   6  10
ENDBRANCH   4   6
ENDBRANCH   1   3
BRANCH   1  20
ATOM     19  O   UNL     1      36.222 -19.030 -23.386  0.00  0.00    -0.248 OA
ATOM     20  C   UNL     1      35.179 -19.083 -22.741  0.00  0.00    +0.335 C 
BRANCH  20  21
ATOM     21  O   UNL     1      33.925 -19.050 -23.273  0.00  0.00    -0.443 OA
ATOM     22  C   UNL     1      33.823 -18.501 -24.591  0.00  0.00    +0.256 C 
ENDBRANCH  20  21
ENDBRANCH   1  20
BRANCH   1  23
ATOM     23  C   UNL     1      34.217 -20.285 -20.727  0.00  0.00    +0.057 C 
BRANCH  23  24
ATOM     24  C   UNL     1      34.700 -21.018 -19.495  0.00  0.00    -0.020 C 
ATOM     25  C   UNL     1      33.811 -21.796 -18.753  0.00  0.00    -0.004 C 
ATOM     26  C   UNL     1      36.034 -20.917 -19.102  0.00  0.00    -0.004 C 
ATOM     27  C   UNL     1      34.257 -22.472 -17.617  0.00  0.00    +0.008 C 
ATOM     28  C   UNL     1      36.480 -21.593 -17.966  0.00  0.00    +0.008 C 
ATOM     29  C   UNL     1      35.591 -22.370 -17.224  0.00  0.00    +0.042 C 
BRANCH  29  30
ATOM     30  C   UNL     1      36.047 -23.062 -16.059  0.00  0.00    -0.060 C 
ATOM     31  C   UNL     1      36.428 -23.644 -15.080  0.00  0.00    -0.060 C 
BRANCH  31  32
ATOM     32  C   UNL     1      36.884 -24.337 -13.914  0.00  0.00    +0.042 C 
ATOM     33  C   UNL     1      37.270 -23.620 -12.783  0.00  0.00    +0.008 C 
ATOM     34  C   UNL     1      36.943 -25.731 -13.911  0.00  0.00    +0.008 C 
ATOM     35  C   UNL     1      37.714 -24.295 -11.646  0.00  0.00    +0.001 C 
ATOM     36  C   UNL     1      37.388 -26.406 -12.774  0.00  0.00    +0.001 C 
ATOM     37  C   UNL     1      37.773 -25.688 -11.642  0.00  0.00    +0.000 C 
ENDBRANCH  31  32
ENDBRANCH  29  30
ENDBRANCH  23  24
ENDBRANCH   1  23
TORSDOF 9
ENDMDL
MODEL 7
REMARK VINA RESULT:      -9.9      7.357     11.273
REMARK  Name = 5288250
REMARK  9 active torsions:
REMARK  status: ('A' for Active; 'I' for Inactive)
REMARK    1  A    between atoms: C_1  and  N_3
REMARK    2  A    between atoms: C_1  and  C_20
REMARK    3  A    between atoms: C_1  and  C_23
REMARK    4  A    between atoms: C_4  and  C_6
REMARK    5  A    between atoms: C_6  and  C_10
REMARK    6  A    between atoms: C_20  and  O_21
REMARK    7  A    between atoms: C_23  and  C_24
REMARK    8  A    between atoms: C_29  and  C_30
REMARK    9  A    between atoms: C_31  and  C_32
REMARK                            x       y       z     vdW  Elec       q    Type
REMARK                         _______ _______ _______ _____ _____    ______ ____
ROOT
ATOM      1  C   UNL     1      34.676 -15.375 -22.315  0.00  0.00    +0.176 C 
ENDROOT
BRANCH   1   3
ATOM      2  O   UNL     1      36.122 -17.115 -20.510  0.00  0.00    -0.275 OA
ATOM      3  N   UNL     1      34.658 -16.819 -22.291  0.00  0.00    -0.297 N 
ATOM      4  C   UNL     1      35.388 -17.572 -21.382  0.00  0.00    +0.223 C 
ATOM      5  H   UNL     1      34.099 -17.292 -22.949  0.00  0.00    +0.150 HD
BRANCH   4   6
ATOM      6  C   UNL     1      35.167 -19.054 -21.595  0.00  0.00    +0.087 C 
BRANCH   6  10
ATOM      7  N   UNL     1      35.653 -21.510 -18.730  0.00  0.00    -0.282 N 
ATOM      8  N   UNL     1      37.205 -20.414 -17.469  0.00  0.00    -0.331 N 
ATOM      9  N   UNL     1      36.590 -22.605 -16.890  0.00  0.00    -0.273 NA
ATOM     10  C   UNL     1      34.865 -19.789 -20.291  0.00  0.00    +0.029 C 
ATOM     11  C   UNL     1      33.518 -20.521 -20.377  0.00  0.00    +0.004 C 
ATOM     12  C   UNL     1      35.993 -20.772 -19.945  0.00  0.00    +0.094 C 
ATOM     13  C   UNL     1      33.245 -21.313 -19.098  0.00  0.00    +0.022 C 
ATOM     14  C   UNL     1      34.398 -22.258 -18.775  0.00  0.00    +0.093 C 
ATOM     15  C   UNL     1      36.484 -21.562 -17.663  0.00  0.00    +0.174 C 
ATOM     16  H   UNL     1      37.092 -19.651 -18.080  0.00  0.00    +0.145 HD
ATOM     17  H   UNL     1      37.839 -20.353 -16.717  0.00  0.00    +0.145 HD
ATOM     18  H   UNL     1      36.049 -23.409 -17.071  0.00  0.00    +0.189 HD
ENDBRANCH   6  10
ENDBRANCH   4   6
ENDBRANCH   1   3
BRANCH   1  20
ATOM     19  O   UNL     1      35.033 -13.921 -20.419  0.00  0.00    -0.248 OA
ATOM     20  C   UNL     1      34.330 -14.767 -20.963  0.00  0.00    +0.335 C 
BRANCH  20  21
ATOM     21  O   UNL     1      33.181 -15.284 -20.445  0.00  0.00    -0.443 OA
ATOM     22  C   UNL     1      32.448 -14.419 -19.572  0.00  0.00    +0.256 C 
ENDBRANCH  20  21
ENDBRANCH   1  20
BRANCH   1  23
ATOM     23  C   UNL     1      33.786 -14.824 -23.439  0.00  0.00    +0.057 C 
BRANCH  23  24
ATOM     24  C   UNL     1      33.413 -13.365 -23.292  0.00  0.00    -0.020 C 
ATOM     25  C   UNL     1      34.246 -12.376 -23.814  0.00  0.00    -0.004 C 
ATOM     26  C   UNL     1      32.235 -13.010 -22.634  0.00  0.00    -0.004 C 
ATOM     27  C   UNL     1      33.902 -11.031 -23.677  0.00  0.00    +0.008 C 
ATOM     28  C   UNL     1      31.891 -11.665 -22.498  0.00  0.00    +0.008 C 
ATOM     29  C   UNL     1      32.724 -10.676 -23.019  0.00  0.00    +0.042 C 
BRANCH  29  30
ATOM     30  C   UNL     1      32.372  -9.298 -22.879  0.00  0.00    -0.060 C 
ATOM     31  C   UNL     1      32.076  -8.140 -22.763  0.00  0.00    -0.060 C 
BRANCH  31  32
ATOM     32  C   UNL     1      31.722  -6.760 -22.624  0.00  0.00    +0.042 C 
ATOM     33  C   UNL     1      31.984  -6.092 -21.428  0.00  0.00    +0.008 C 
ATOM     34  C   UNL     1      31.116  -6.085 -23.683  0.00  0.00    +0.008 C 
ATOM     35  C   UNL     1      31.640  -4.747 -21.291  0.00  0.00    +0.001 C 
ATOM     36  C   UNL     1      30.772  -4.740 -23.546  0.00  0.00    +0.001 C 
ATOM     37  C   UNL     1      31.033  -4.072 -22.350  0.00  0.00    +0.000 C 
ENDBRANCH  31  32
ENDBRANCH  29  30
ENDBRANCH  23  24
ENDBRANCH   1  23
TORSDOF 9
ENDMDL
MODEL 8
REMARK VINA RESULT:      -9.6      2.472      5.196
REMARK  Name = 5288250
REMARK  9 active torsions:
REMARK  status: ('A' for Active; 'I' for Inactive)
REMARK    1  A    between atoms: C_1  and  N_3
REMARK    2  A    between atoms: C_1  and  C_20
REMARK    3  A    between atoms: C_1  and  C_23
REMARK    4  A    between atoms: C_4  and  C_6
REMARK    5  A    between atoms: C_6  and  C_10
REMARK    6  A    between atoms: C_20  and  O_21
REMARK    7  A    between atoms: C_23  and  C_24
REMARK    8  A    between atoms: C_29  and  C_30
REMARK    9  A    between atoms: C_31  and  C_32
REMARK                            x       y       z     vdW  Elec       q    Type
REMARK                         _______ _______ _______ _____ _____    ______ ____
ROOT
ATOM      1  C   UNL     1      33.893 -23.283 -14.647  0.00  0.00    +0.176 C 
ENDROOT
BRANCH   1   3
ATOM      2  O   UNL     1      34.180 -23.541 -11.779  0.00  0.00    -0.275 OA
ATOM      3  N   UNL     1      35.122 -23.270 -13.887  0.00  0.00    -0.297 N 
ATOM      4  C   UNL     1      35.160 -23.401 -12.506  0.00  0.00    +0.223 C 
ATOM      5  H   UNL     1      35.972 -23.163 -14.372  0.00  0.00    +0.150 HD
BRANCH   4   6
ATOM      6  C   UNL     1      36.583 -23.353 -11.990  0.00  0.00    +0.087 C 
BRANCH   6  10
ATOM      7  N   UNL     1      38.766 -25.476 -14.272  0.00  0.00    -0.282 N 
ATOM      8  N   UNL     1      40.807 -24.509 -13.954  0.00  0.00    -0.331 N 
ATOM      9  N   UNL     1      40.564 -26.172 -15.594  0.00  0.00    -0.273 NA
ATOM     10  C   UNL     1      37.406 -24.555 -12.450  0.00  0.00    +0.029 C 
ATOM     11  C   UNL     1      36.543 -25.825 -12.488  0.00  0.00    +0.004 C 
ATOM     12  C   UNL     1      38.038 -24.290 -13.823  0.00  0.00    +0.094 C 
ATOM     13  C   UNL     1      37.346 -27.014 -13.011  0.00  0.00    +0.022 C 
ATOM     14  C   UNL     1      37.979 -26.704 -14.364  0.00  0.00    +0.093 C 
ATOM     15  C   UNL     1      40.063 -25.423 -14.652  0.00  0.00    +0.174 C 
ATOM     16  H   UNL     1      40.385 -23.965 -13.251  0.00  0.00    +0.145 HD
ATOM     17  H   UNL     1      41.764 -24.395 -14.157  0.00  0.00    +0.145 HD
ATOM     18  H   UNL     1      39.988 -26.815 -16.068  0.00  0.00    +0.189 HD
ENDBRANCH   6  10
ENDBRANCH   4   6
ENDBRANCH   1   3
BRANCH   1  20
ATOM     19  O   UNL     1      32.669 -25.156 -13.734  0.00  0.00    -0.248 OA
ATOM     20  C   UNL     1      32.748 -23.941 -13.889  0.00  0.00    +0.335 C 
BRANCH  20  21
ATOM     21  O   UNL     1      31.842 -23.030 -13.436  0.00  0.00    -0.443 OA
ATOM     22  C   UNL     1      30.637 -23.574 -12.888  0.00  0.00    +0.256 C 
ENDBRANCH  20  21
ENDBRANCH   1  20
BRANCH   1  23
ATOM     23  C   UNL     1      34.102 -23.912 -16.033  0.00  0.00    +0.057 C 
BRANCH  23  24
ATOM     24  C   UNL     1      34.216 -22.917 -17.167  0.00  0.00    -0.020 C 
ATOM     25  C   UNL     1      33.079 -22.539 -17.881  0.00  0.00    -0.004 C 
ATOM     26  C   UNL     1      35.458 -22.377 -17.499  0.00  0.00    -0.004 C 
ATOM     27  C   UNL     1      33.184 -21.622 -18.927  0.00  0.00    +0.008 C 
ATOM     28  C   UNL     1      35.564 -21.460 -18.544  0.00  0.00    +0.008 C 
ATOM     29  C   UNL     1      34.427 -21.082 -19.258  0.00  0.00    +0.042 C 
BRANCH  29  30
ATOM     30  C   UNL     1      34.535 -20.143 -20.330  0.00  0.00    -0.060 C 
ATOM     31  C   UNL     1      34.626 -19.354 -21.229  0.00  0.00    -0.060 C 
BRANCH  31  32
ATOM     32  C   UNL     1      34.736 -18.413 -22.303  0.00  0.00    +0.042 C 
ATOM     33  C   UNL     1      34.301 -18.761 -23.581  0.00  0.00    +0.008 C 
ATOM     34  C   UNL     1      35.278 -17.149 -22.070  0.00  0.00    +0.008 C 
ATOM     35  C   UNL     1      34.407 -17.846 -24.628  0.00  0.00    +0.001 C 
ATOM     36  C   UNL     1      35.384 -16.233 -23.117  0.00  0.00    +0.001 C 
ATOM     37  C   UNL     1      34.949 -16.582 -24.396  0.00  0.00    +0.000 C 
ENDBRANCH  31  32
ENDBRANCH  29  30
ENDBRANCH  23  24
ENDBRANCH   1  23
TORSDOF 9
ENDMDL
MODEL 9
REMARK VINA RESULT:      -9.5     10.317     15.396
REMARK  Name = 5288250
REMARK  9 active torsions:
REMARK  status: ('A' for Active; 'I' for Inactive)
REMARK    1  A    between atoms: C_1  and  N_3
REMARK    2  A    between atoms: C_1  and  C_20
REMARK    3  A    between atoms: C_1  and  C_23
REMARK    4  A    between atoms: C_4  and  C_6
REMARK    5  A    between atoms: C_6  and  C_10
REMARK    6  A    between atoms: C_20  and  O_21
REMARK    7  A    between atoms: C_23  and  C_24
REMARK    8  A    between atoms: C_29  and  C_30
REMARK    9  A    between atoms: C_31  and  C_32
REMARK                            x       y       z     vdW  Elec       q    Type
REMARK                         _______ _______ _______ _____ _____    ______ ____
ROOT
ATOM      1  C   UNL     1      33.799 -10.307 -23.354  0.00  0.00    +0.176 C 
ENDROOT
BRANCH   1   3
ATOM      2  O   UNL     1      31.354 -10.623 -21.838  0.00  0.00    -0.275 OA
ATOM      3  N   UNL     1      32.638  -9.449 -23.379  0.00  0.00    -0.297 N 
ATOM      4  C   UNL     1      31.506  -9.682 -22.612  0.00  0.00    +0.223 C 
ATOM      5  H   UNL     1      32.651  -8.659 -23.967  0.00  0.00    +0.150 HD
BRANCH   4   6
ATOM      6  C   UNL     1      30.457  -8.615 -22.844  0.00  0.00    +0.087 C 
BRANCH   6  10
ATOM      7  N   UNL     1      31.068  -4.867 -22.608  0.00  0.00    -0.282 N 
ATOM      8  N   UNL     1      32.389  -4.752 -20.752  0.00  0.00    -0.331 N 
ATOM      9  N   UNL     1      31.628  -2.767 -21.749  0.00  0.00    -0.273 NA
ATOM     10  C   UNL     1      31.074  -7.256 -23.167  0.00  0.00    +0.029 C 
ATOM     11  C   UNL     1      30.835  -6.885 -24.638  0.00  0.00    +0.004 C 
ATOM     12  C   UNL     1      30.515  -6.169 -22.239  0.00  0.00    +0.094 C 
ATOM     13  C   UNL     1      31.392  -5.496 -24.947  0.00  0.00    +0.022 C 
ATOM     14  C   UNL     1      30.834  -4.449 -23.989  0.00  0.00    +0.093 C 
ATOM     15  C   UNL     1      31.689  -4.068 -21.710  0.00  0.00    +0.174 C 
ATOM     16  H   UNL     1      32.406  -5.736 -20.763  0.00  0.00    +0.145 HD
ATOM     17  H   UNL     1      32.876  -4.259 -20.053  0.00  0.00    +0.145 HD
ATOM     18  H   UNL     1      31.111  -2.320 -22.458  0.00  0.00    +0.189 HD
ENDBRANCH   6  10
ENDBRANCH   4   6
ENDBRANCH   1   3
BRANCH   1  20
ATOM     19  O   UNL     1      35.946  -9.987 -24.417  0.00  0.00    -0.248 OA
ATOM     20  C   UNL     1      35.086  -9.552 -23.656  0.00  0.00    +0.335 C 
BRANCH  20  21
ATOM     21  O   UNL     1      35.163  -8.374 -22.976  0.00  0.00    -0.443 OA
ATOM     22  C   UNL     1      35.306  -7.200 -23.782  0.00  0.00    +0.256 C 
ENDBRANCH  20  21
ENDBRANCH   1  20
BRANCH   1  23
ATOM     23  C   UNL     1      33.616 -11.523 -24.275  0.00  0.00    +0.057 C 
BRANCH  23  24
ATOM     24  C   UNL     1      33.943 -12.854 -23.637  0.00  0.00    -0.020 C 
ATOM     25  C   UNL     1      33.928 -14.018 -24.405  0.00  0.00    -0.004 C 
ATOM     26  C   UNL     1      34.260 -12.917 -22.280  0.00  0.00    -0.004 C 
ATOM     27  C   UNL     1      34.230 -15.246 -23.816  0.00  0.00    +0.008 C 
ATOM     28  C   UNL     1      34.562 -14.145 -21.691  0.00  0.00    +0.008 C 
ATOM     29  C   UNL     1      34.547 -15.309 -22.459  0.00  0.00    +0.042 C 
BRANCH  29  30
ATOM     30  C   UNL     1      34.855 -16.568 -21.855  0.00  0.00    -0.060 C 
ATOM     31  C   UNL     1      35.113 -17.625 -21.347  0.00  0.00    -0.060 C 
BRANCH  31  32
ATOM     32  C   UNL     1      35.420 -18.885 -20.743  0.00  0.00    +0.042 C 
ATOM     33  C   UNL     1      34.397 -19.787 -20.454  0.00  0.00    +0.008 C 
ATOM     34  C   UNL     1      36.743 -19.210 -20.442  0.00  0.00    +0.008 C 
ATOM     35  C   UNL     1      34.696 -21.016 -19.864  0.00  0.00    +0.001 C 
ATOM     36  C   UNL     1      37.042 -20.439 -19.853  0.00  0.00    +0.001 C 
ATOM     37  C   UNL     1      36.018 -21.341 -19.564  0.00  0.00    +0.000 C 
ENDBRANCH  31  32
ENDBRANCH  29  30
ENDBRANCH  23  24
ENDBRANCH   1  23
TORSDOF 9
ENDMDL
