MODEL 1
REMARK VINA RESULT:     -11.3      0.000      0.000
REMARK  Name = 15942672
REMARK  5 active torsions:
REMARK  status: ('A' for Active; 'I' for Inactive)
REMARK    1  A    between atoms: N_2  and  C_7
REMARK    2  A    between atoms: N_3  and  C_17
REMARK    3  A    between atoms: C_8  and  C_16
REMARK    4  A    between atoms: C_18  and  O_23
REMARK    5  A    between atoms: O_23  and  C_25
REMARK                            x       y       z     vdW  Elec       q    Type
REMARK                         _______ _______ _______ _____ _____    ______ ____
ROOT
ATOM      1  O   UNL     1      35.434 -22.389 -18.474  0.00  0.00    -0.252 OA
ATOM      2  N   UNL     1      36.897 -21.783 -16.747  0.00  0.00    -0.268 N 
ATOM      3  N   UNL     1      36.711 -20.434 -18.613  0.00  0.00    -0.268 N 
ATOM      4  C   UNL     1      36.260 -21.614 -18.000  0.00  0.00    +0.308 C 
ATOM      5  H   UNL     1      37.539 -21.079 -16.497  0.00  0.00    +0.156 HD
ATOM      6  H   UNL     1      37.378 -19.914 -18.110  0.00  0.00    +0.156 HD
ENDROOT
BRANCH   2   7
ATOM      7  C   UNL     1      36.738 -22.814 -15.821  0.00  0.00    +0.052 C 
ATOM      8  C   UNL     1      37.698 -24.500 -14.381  0.00  0.00    +0.073 C 
ATOM      9  C   UNL     1      37.858 -23.468 -15.307  0.00  0.00    +0.019 C 
ATOM     10  C   UNL     1      35.460 -23.190 -15.410  0.00  0.00    +0.015 C 
ATOM     11  C   UNL     1      36.419 -24.876 -13.970  0.00  0.00    +0.004 C 
ATOM     12  C   UNL     1      35.301 -24.221 -14.484  0.00  0.00    +0.001 C 
BRANCH   8  16
ATOM     13  F   UNL     1      40.053 -24.909 -14.491  0.00  0.00    -0.166 F 
ATOM     14  F   UNL     1      39.146 -24.903 -12.521  0.00  0.00    -0.166 F 
ATOM     15  F   UNL     1      38.776 -26.559 -13.880  0.00  0.00    -0.166 F 
ATOM     16  C   UNL     1      38.894 -25.200 -13.830  0.00  0.00    +0.419 C 
ENDBRANCH   8  16
ENDBRANCH   2   7
BRANCH   3  17
ATOM     17  C   UNL     1      36.327 -19.901 -19.866  0.00  0.00    +0.052 C 
ATOM     18  C   UNL     1      35.574 -18.857 -22.320  0.00  0.00    +0.145 C 
ATOM     19  C   UNL     1      37.235 -19.145 -20.588  0.00  0.00    +0.018 C 
ATOM     20  C   UNL     1      35.050 -20.147 -20.345  0.00  0.00    +0.018 C 
ATOM     21  C   UNL     1      36.855 -18.619 -21.824  0.00  0.00    +0.039 C 
ATOM     22  C   UNL     1      34.671 -19.622 -21.580  0.00  0.00    +0.039 C 
BRANCH  18  23
ATOM     23  O   UNL     1      35.204 -18.347 -23.525  0.00  0.00    -0.453 OA
BRANCH  23  25
ATOM     24  N   UNL     1      34.004 -14.371 -23.655  0.00  0.00    -0.242 NA
ATOM     25  C   UNL     1      34.805 -17.022 -23.569  0.00  0.00    +0.148 C 
ATOM     26  C   UNL     1      35.099 -16.194 -22.505  0.00  0.00    +0.058 C 
ATOM     27  C   UNL     1      34.123 -16.559 -24.673  0.00  0.00    +0.058 C 
ATOM     28  C   UNL     1      34.676 -14.877 -22.597  0.00  0.00    +0.102 C 
ATOM     29  C   UNL     1      33.744 -15.227 -24.667  0.00  0.00    +0.102 C 
ENDBRANCH  23  25
ENDBRANCH  18  23
ENDBRANCH   3  17
TORSDOF 5
ENDMDL
MODEL 2
REMARK VINA RESULT:     -11.2      8.482     13.523
REMARK  Name = 15942672
REMARK  5 active torsions:
REMARK  status: ('A' for Active; 'I' for Inactive)
REMARK    1  A    between atoms: N_2  and  C_7
REMARK    2  A    between atoms: N_3  and  C_17
REMARK    3  A    between atoms: C_8  and  C_16
REMARK    4  A    between atoms: C_18  and  O_23
REMARK    5  A    between atoms: O_23  and  C_25
REMARK                            x       y       z     vdW  Elec       q    Type
REMARK                         _______ _______ _______ _____ _____    ______ ____
ROOT
ATOM      1  O   UNL     1      34.227 -11.273 -23.615  0.00  0.00    -0.252 OA
ATOM      2  N   UNL     1      32.037 -10.708 -23.003  0.00  0.00    -0.268 N 
ATOM      3  N   UNL     1      32.707 -12.918 -22.943  0.00  0.00    -0.268 N 
ATOM      4  C   UNL     1      33.111 -11.605 -23.228  0.00  0.00    +0.308 C 
ATOM      5  H   UNL     1      31.197 -11.119 -22.693  0.00  0.00    +0.156 HD
ATOM      6  H   UNL     1      31.777 -13.028 -22.641  0.00  0.00    +0.156 HD
ENDROOT
BRANCH   2   7
ATOM      7  C   UNL     1      32.011  -9.323 -23.164  0.00  0.00    +0.052 C 
ATOM      8  C   UNL     1      31.802  -7.111 -22.216  0.00  0.00    +0.073 C 
ATOM      9  C   UNL     1      31.829  -8.496 -22.056  0.00  0.00    +0.019 C 
ATOM     10  C   UNL     1      32.167  -8.766 -24.433  0.00  0.00    +0.015 C 
ATOM     11  C   UNL     1      31.959  -6.553 -23.486  0.00  0.00    +0.004 C 
ATOM     12  C   UNL     1      32.141  -7.380 -24.593  0.00  0.00    +0.001 C 
BRANCH   8  16
ATOM     13  F   UNL     1      32.603  -5.304 -20.868  0.00  0.00    -0.166 F 
ATOM     14  F   UNL     1      30.454  -5.498 -21.077  0.00  0.00    -0.166 F 
ATOM     15  F   UNL     1      31.557  -6.921 -19.859  0.00  0.00    -0.166 F 
ATOM     16  C   UNL     1      31.609  -6.225 -21.032  0.00  0.00    +0.419 C 
ENDBRANCH   8  16
ENDBRANCH   2   7
BRANCH   3  17
ATOM     17  C   UNL     1      33.472 -14.105 -23.036  0.00  0.00    +0.052 C 
ATOM     18  C   UNL     1      34.970 -16.428 -23.218  0.00  0.00    +0.145 C 
ATOM     19  C   UNL     1      33.495 -14.804 -24.231  0.00  0.00    +0.018 C 
ATOM     20  C   UNL     1      34.183 -14.542 -21.930  0.00  0.00    +0.018 C 
ATOM     21  C   UNL     1      34.250 -15.975 -24.322  0.00  0.00    +0.039 C 
ATOM     22  C   UNL     1      34.938 -15.712 -22.022  0.00  0.00    +0.039 C 
BRANCH  18  23
ATOM     23  O   UNL     1      35.708 -17.568 -23.308  0.00  0.00    -0.453 OA
BRANCH  23  25
ATOM     24  N   UNL     1      35.795 -20.082 -20.000  0.00  0.00    -0.242 NA
ATOM     25  C   UNL     1      35.737 -18.404 -22.205  0.00  0.00    +0.148 C 
ATOM     26  C   UNL     1      36.889 -18.488 -21.452  0.00  0.00    +0.058 C 
ATOM     27  C   UNL     1      34.614 -19.136 -21.885  0.00  0.00    +0.058 C 
ATOM     28  C   UNL     1      36.867 -19.341 -20.359  0.00  0.00    +0.102 C 
ATOM     29  C   UNL     1      34.694 -19.960 -20.774  0.00  0.00    +0.102 C 
ENDBRANCH  23  25
ENDBRANCH  18  23
ENDBRANCH   3  17
TORSDOF 5
ENDMDL
MODEL 3
REMARK VINA RESULT:     -11.1      7.696     12.507
REMARK  Name = 15942672
REMARK  5 active torsions:
REMARK  status: ('A' for Active; 'I' for Inactive)
REMARK    1  A    between atoms: N_2  and  C_7
REMARK    2  A    between atoms: N_3  and  C_17
REMARK    3  A    between atoms: C_8  and  C_16
REMARK    4  A    between atoms: C_18  and  O_23
REMARK    5  A    between atoms: O_23  and  C_25
REMARK                            x       y       z     vdW  Elec       q    Type
REMARK                         _______ _______ _______ _____ _____    ______ ____
ROOT
ATOM      1  O   UNL     1      33.820 -13.364 -21.380  0.00  0.00    -0.252 OA
ATOM      2  N   UNL     1      33.691 -12.359 -23.493  0.00  0.00    -0.268 N 
ATOM      3  N   UNL     1      34.408 -14.547 -23.309  0.00  0.00    -0.268 N 
ATOM      4  C   UNL     1      33.960 -13.423 -22.598  0.00  0.00    +0.308 C 
ATOM      5  H   UNL     1      33.851 -12.553 -24.445  0.00  0.00    +0.156 HD
ATOM      6  H   UNL     1      34.471 -14.443 -24.286  0.00  0.00    +0.156 HD
ENDROOT
BRANCH   2   7
ATOM      7  C   UNL     1      33.231 -11.074 -23.205  0.00  0.00    +0.052 C 
ATOM      8  C   UNL     1      33.613  -8.691 -23.096  0.00  0.00    +0.073 C 
ATOM      9  C   UNL     1      34.073  -9.976 -23.384  0.00  0.00    +0.019 C 
ATOM     10  C   UNL     1      31.931 -10.887 -22.737  0.00  0.00    +0.015 C 
ATOM     11  C   UNL     1      32.312  -8.504 -22.628  0.00  0.00    +0.004 C 
ATOM     12  C   UNL     1      31.471  -9.602 -22.449  0.00  0.00    +0.001 C 
BRANCH   8  16
ATOM     13  F   UNL     1      34.248  -6.480 -22.438  0.00  0.00    -0.166 F 
ATOM     14  F   UNL     1      35.833  -7.802 -23.101  0.00  0.00    -0.166 F 
ATOM     15  F   UNL     1      34.425  -6.989 -24.544  0.00  0.00    -0.166 F 
ATOM     16  C   UNL     1      34.511  -7.516 -23.287  0.00  0.00    +0.419 C 
ENDBRANCH   8  16
ENDBRANCH   2   7
BRANCH   3  17
ATOM     17  C   UNL     1      34.782 -15.811 -22.796  0.00  0.00    +0.052 C 
ATOM     18  C   UNL     1      35.515 -18.287 -21.792  0.00  0.00    +0.145 C 
ATOM     19  C   UNL     1      35.059 -15.940 -21.445  0.00  0.00    +0.018 C 
ATOM     20  C   UNL     1      34.865 -16.895 -23.655  0.00  0.00    +0.018 C 
ATOM     21  C   UNL     1      35.428 -17.187 -20.940  0.00  0.00    +0.039 C 
ATOM     22  C   UNL     1      35.233 -18.142 -23.150  0.00  0.00    +0.039 C 
BRANCH  18  23
ATOM     23  O   UNL     1      35.873 -19.504 -21.299  0.00  0.00    -0.453 OA
BRANCH  23  25
ATOM     24  N   UNL     1      33.104 -21.528 -18.953  0.00  0.00    -0.242 NA
ATOM     25  C   UNL     1      34.950 -20.179 -20.518  0.00  0.00    +0.148 C 
ATOM     26  C   UNL     1      33.610 -19.881 -20.649  0.00  0.00    +0.058 C 
ATOM     27  C   UNL     1      35.391 -21.134 -19.627  0.00  0.00    +0.058 C 
ATOM     28  C   UNL     1      32.727 -20.583 -19.843  0.00  0.00    +0.102 C 
ATOM     29  C   UNL     1      34.429 -21.779 -18.868  0.00  0.00    +0.102 C 
ENDBRANCH  23  25
ENDBRANCH  18  23
ENDBRANCH   3  17
TORSDOF 5
ENDMDL
MODEL 4
REMARK VINA RESULT:     -11.0      4.349      6.780
REMARK  Name = 15942672
REMARK  5 active torsions:
REMARK  status: ('A' for Active; 'I' for Inactive)
REMARK    1  A    between atoms: N_2  and  C_7
REMARK    2  A    between atoms: N_3  and  C_17
REMARK    3  A    between atoms: C_8  and  C_16
REMARK    4  A    between atoms: C_18  and  O_23
REMARK    5  A    between atoms: O_23  and  C_25
REMARK                            x       y       z     vdW  Elec       q    Type
REMARK                         _______ _______ _______ _____ _____    ______ ____
ROOT
ATOM      1  O   UNL     1      34.899 -16.510 -20.667  0.00  0.00    -0.252 OA
ATOM      2  N   UNL     1      35.328 -18.484 -21.854  0.00  0.00    -0.268 N 
ATOM      3  N   UNL     1      34.712 -16.573 -22.997  0.00  0.00    -0.268 N 
ATOM      4  C   UNL     1      34.970 -17.119 -21.730  0.00  0.00    +0.308 C 
ATOM      5  H   UNL     1      35.342 -18.839 -22.773  0.00  0.00    +0.156 HD
ATOM      6  H   UNL     1      34.810 -17.188 -23.760  0.00  0.00    +0.156 HD
ENDROOT
BRANCH   2   7
ATOM      7  C   UNL     1      35.660 -19.392 -20.848  0.00  0.00    +0.052 C 
ATOM      8  C   UNL     1      35.018 -21.153 -19.324  0.00  0.00    +0.073 C 
ATOM      9  C   UNL     1      34.686 -20.245 -20.330  0.00  0.00    +0.019 C 
ATOM     10  C   UNL     1      36.966 -19.446 -20.362  0.00  0.00    +0.015 C 
ATOM     11  C   UNL     1      36.325 -21.207 -18.838  0.00  0.00    +0.004 C 
ATOM     12  C   UNL     1      37.298 -20.354 -19.357  0.00  0.00    +0.001 C 
BRANCH   8  16
ATOM     13  F   UNL     1      33.904 -23.268 -19.413  0.00  0.00    -0.166 F 
ATOM     14  F   UNL     1      34.172 -22.379 -17.454  0.00  0.00    -0.166 F 
ATOM     15  F   UNL     1      32.723 -21.535 -18.838  0.00  0.00    -0.166 F 
ATOM     16  C   UNL     1      33.978 -22.067 -18.769  0.00  0.00    +0.419 C 
ENDBRANCH   8  16
ENDBRANCH   2   7
BRANCH   3  17
ATOM     17  C   UNL     1      34.327 -15.249 -23.314  0.00  0.00    +0.052 C 
ATOM     18  C   UNL     1      33.574 -12.656 -23.934  0.00  0.00    +0.145 C 
ATOM     19  C   UNL     1      33.634 -15.007 -24.488  0.00  0.00    +0.018 C 
ATOM     20  C   UNL     1      34.652 -14.222 -22.443  0.00  0.00    +0.018 C 
ATOM     21  C   UNL     1      33.255 -13.701 -24.800  0.00  0.00    +0.039 C 
ATOM     22  C   UNL     1      34.272 -12.917 -22.754  0.00  0.00    +0.039 C 
BRANCH  18  23
ATOM     23  O   UNL     1      33.203 -11.383 -24.236  0.00  0.00    -0.453 OA
BRANCH  23  25
ATOM     24  N   UNL     1      31.751  -9.012 -21.147  0.00  0.00    -0.242 NA
ATOM     25  C   UNL     1      32.718 -10.592 -23.208  0.00  0.00    +0.148 C 
ATOM     26  C   UNL     1      33.269  -9.345 -23.000  0.00  0.00    +0.058 C 
ATOM     27  C   UNL     1      31.697 -11.069 -22.415  0.00  0.00    +0.058 C 
ATOM     28  C   UNL     1      32.750  -8.594 -21.957  0.00  0.00    +0.102 C 
ATOM     29  C   UNL     1      31.250 -10.242 -21.398  0.00  0.00    +0.102 C 
ENDBRANCH  23  25
ENDBRANCH  18  23
ENDBRANCH   3  17
TORSDOF 5
ENDMDL
MODEL 5
REMARK VINA RESULT:     -10.9      1.529      2.241
REMARK  Name = 15942672
REMARK  5 active torsions:
REMARK  status: ('A' for Active; 'I' for Inactive)
REMARK    1  A    between atoms: N_2  and  C_7
REMARK    2  A    between atoms: N_3  and  C_17
REMARK    3  A    between atoms: C_8  and  C_16
REMARK    4  A    between atoms: C_18  and  O_23
REMARK    5  A    between atoms: O_23  and  C_25
REMARK                            x       y       z     vdW  Elec       q    Type
REMARK                         _______ _______ _______ _____ _____    ______ ____
ROOT
ATOM      1  O   UNL     1      36.491 -21.925 -16.541  0.00  0.00    -0.252 OA
ATOM      2  N   UNL     1      34.756 -23.400 -15.992  0.00  0.00    -0.268 N 
ATOM      3  N   UNL     1      34.644 -22.181 -17.951  0.00  0.00    -0.268 N 
ATOM      4  C   UNL     1      35.411 -22.443 -16.805  0.00  0.00    +0.308 C 
ATOM      5  H   UNL     1      33.892 -23.728 -16.333  0.00  0.00    +0.156 HD
ATOM      6  H   UNL     1      33.796 -22.675 -18.025  0.00  0.00    +0.156 HD
ENDROOT
BRANCH   2   7
ATOM      7  C   UNL     1      35.170 -23.937 -14.773  0.00  0.00    +0.052 C 
ATOM      8  C   UNL     1      36.807 -25.139 -13.465  0.00  0.00    +0.073 C 
ATOM      9  C   UNL     1      36.393 -24.602 -14.684  0.00  0.00    +0.019 C 
ATOM     10  C   UNL     1      34.362 -23.808 -13.644  0.00  0.00    +0.015 C 
ATOM     11  C   UNL     1      35.998 -25.010 -12.335  0.00  0.00    +0.004 C 
ATOM     12  C   UNL     1      34.776 -24.345 -12.425  0.00  0.00    +0.001 C 
BRANCH   8  16
ATOM     13  F   UNL     1      39.177 -25.102 -13.786  0.00  0.00    -0.166 F 
ATOM     14  F   UNL     1      38.431 -26.240 -12.098  0.00  0.00    -0.166 F 
ATOM     15  F   UNL     1      38.150 -26.988 -14.120  0.00  0.00    -0.166 F 
ATOM     16  C   UNL     1      38.115 -25.850 -13.367  0.00  0.00    +0.419 C 
ENDBRANCH   8  16
ENDBRANCH   2   7
BRANCH   3  17
ATOM     17  C   UNL     1      34.937 -21.292 -19.012  0.00  0.00    +0.052 C 
ATOM     18  C   UNL     1      35.514 -19.554 -21.091  0.00  0.00    +0.145 C 
ATOM     19  C   UNL     1      33.903 -20.799 -19.789  0.00  0.00    +0.018 C 
ATOM     20  C   UNL     1      36.254 -20.936 -19.252  0.00  0.00    +0.018 C 
ATOM     21  C   UNL     1      34.194 -19.923 -20.836  0.00  0.00    +0.039 C 
ATOM     22  C   UNL     1      36.545 -20.060 -20.298  0.00  0.00    +0.039 C 
BRANCH  18  23
ATOM     23  O   UNL     1      35.798 -18.698 -22.110  0.00  0.00    -0.453 OA
BRANCH  23  25
ATOM     24  N   UNL     1      34.501 -14.767 -21.749  0.00  0.00    -0.242 NA
ATOM     25  C   UNL     1      35.364 -17.388 -21.990  0.00  0.00    +0.148 C 
ATOM     26  C   UNL     1      35.101 -16.659 -23.130  0.00  0.00    +0.058 C 
ATOM     27  C   UNL     1      35.207 -16.843 -20.734  0.00  0.00    +0.058 C 
ATOM     28  C   UNL     1      34.671 -15.352 -22.956  0.00  0.00    +0.102 C 
ATOM     29  C   UNL     1      34.774 -15.529 -20.668  0.00  0.00    +0.102 C 
ENDBRANCH  23  25
ENDBRANCH  18  23
ENDBRANCH   3  17
TORSDOF 5
ENDMDL
MODEL 6
REMARK VINA RESULT:     -10.8      8.387     13.538
REMARK  Name = 15942672
REMARK  5 active torsions:
REMARK  status: ('A' for Active; 'I' for Inactive)
REMARK    1  A    between atoms: N_2  and  C_7
REMARK    2  A    between atoms: N_3  and  C_17
REMARK    3  A    between atoms: C_8  and  C_16
REMARK    4  A    between atoms: C_18  and  O_23
REMARK    5  A    between atoms: O_23  and  C_25
REMARK                            x       y       z     vdW  Elec       q    Type
REMARK                         _______ _______ _______ _____ _____    ______ ____
ROOT
ATOM      1  O   UNL     1      34.331 -11.384 -23.899  0.00  0.00    -0.252 OA
ATOM      2  N   UNL     1      32.321 -10.659 -22.938  0.00  0.00    -0.268 N 
ATOM      3  N   UNL     1      32.913 -12.888 -22.804  0.00  0.00    -0.268 N 
ATOM      4  C   UNL     1      33.299 -11.625 -23.279  0.00  0.00    +0.308 C 
ATOM      5  H   UNL     1      31.543 -10.999 -22.438  0.00  0.00    +0.156 HD
ATOM      6  H   UNL     1      32.056 -12.924 -22.322  0.00  0.00    +0.156 HD
ENDROOT
BRANCH   2   7
ATOM      7  C   UNL     1      32.312  -9.292 -23.216  0.00  0.00    +0.052 C 
ATOM      8  C   UNL     1      33.499  -7.263 -23.772  0.00  0.00    +0.073 C 
ATOM      9  C   UNL     1      33.507  -8.630 -23.494  0.00  0.00    +0.019 C 
ATOM     10  C   UNL     1      31.108  -8.589 -23.217  0.00  0.00    +0.015 C 
ATOM     11  C   UNL     1      32.293  -6.559 -23.774  0.00  0.00    +0.004 C 
ATOM     12  C   UNL     1      31.099  -7.222 -23.496  0.00  0.00    +0.001 C 
BRANCH   8  16
ATOM     13  F   UNL     1      35.684  -6.608 -23.053  0.00  0.00    -0.166 F 
ATOM     14  F   UNL     1      35.433  -7.045 -25.162  0.00  0.00    -0.166 F 
ATOM     15  F   UNL     1      34.591  -5.224 -24.323  0.00  0.00    -0.166 F 
ATOM     16  C   UNL     1      34.776  -6.553 -24.070  0.00  0.00    +0.419 C 
ENDBRANCH   8  16
ENDBRANCH   2   7
BRANCH   3  17
ATOM     17  C   UNL     1      33.604 -14.116 -22.932  0.00  0.00    +0.052 C 
ATOM     18  C   UNL     1      34.957 -16.520 -23.181  0.00  0.00    +0.145 C 
ATOM     19  C   UNL     1      33.562 -14.795 -24.137  0.00  0.00    +0.018 C 
ATOM     20  C   UNL     1      34.309 -14.613 -21.848  0.00  0.00    +0.018 C 
ATOM     21  C   UNL     1      34.243 -16.007 -24.263  0.00  0.00    +0.039 C 
ATOM     22  C   UNL     1      34.991 -15.823 -21.973  0.00  0.00    +0.039 C 
BRANCH  18  23
ATOM     23  O   UNL     1      35.624 -17.700 -23.304  0.00  0.00    -0.453 OA
BRANCH  23  25
ATOM     24  N   UNL     1      35.934 -20.108 -19.931  0.00  0.00    -0.242 NA
ATOM     25  C   UNL     1      35.728 -18.501 -22.179  0.00  0.00    +0.148 C 
ATOM     26  C   UNL     1      36.911 -18.520 -21.471  0.00  0.00    +0.058 C 
ATOM     27  C   UNL     1      34.646 -19.263 -21.793  0.00  0.00    +0.058 C 
ATOM     28  C   UNL     1      36.963 -19.340 -20.355  0.00  0.00    +0.102 C 
ATOM     29  C   UNL     1      34.800 -20.049 -20.663  0.00  0.00    +0.102 C 
ENDBRANCH  23  25
ENDBRANCH  18  23
ENDBRANCH   3  17
TORSDOF 5
ENDMDL
MODEL 7
REMARK VINA RESULT:     -10.8      5.137     10.786
REMARK  Name = 15942672
REMARK  5 active torsions:
REMARK  status: ('A' for Active; 'I' for Inactive)
REMARK    1  A    between atoms: N_2  and  C_7
REMARK    2  A    between atoms: N_3  and  C_17
REMARK    3  A    between atoms: C_8  and  C_16
REMARK    4  A    between atoms: C_18  and  O_23
REMARK    5  A    between atoms: O_23  and  C_25
REMARK                            x       y       z     vdW  Elec       q    Type
REMARK                         _______ _______ _______ _____ _____    ______ ____
ROOT
ATOM      1  O   UNL     1      34.016 -20.378 -19.790  0.00  0.00    -0.252 OA
ATOM      2  N   UNL     1      35.913 -19.691 -20.981  0.00  0.00    -0.268 N 
ATOM      3  N   UNL     1      36.163 -20.946 -19.058  0.00  0.00    -0.268 N 
ATOM      4  C   UNL     1      35.236 -20.345 -19.923  0.00  0.00    +0.308 C 
ATOM      5  H   UNL     1      36.896 -19.748 -20.958  0.00  0.00    +0.156 HD
ATOM      6  H   UNL     1      37.112 -20.833 -19.296  0.00  0.00    +0.156 HD
ENDROOT
BRANCH   2   7
ATOM      7  C   UNL     1      35.373 -18.975 -22.050  0.00  0.00    +0.052 C 
ATOM      8  C   UNL     1      34.767 -16.867 -23.063  0.00  0.00    +0.073 C 
ATOM      9  C   UNL     1      35.307 -17.583 -21.994  0.00  0.00    +0.019 C 
ATOM     10  C   UNL     1      34.899 -19.652 -23.174  0.00  0.00    +0.015 C 
ATOM     11  C   UNL     1      34.293 -17.544 -24.187  0.00  0.00    +0.004 C 
ATOM     12  C   UNL     1      34.359 -18.936 -24.242  0.00  0.00    +0.001 C 
BRANCH   8  16
ATOM     13  F   UNL     1      35.177 -14.852 -21.842  0.00  0.00    -0.166 F 
ATOM     14  F   UNL     1      35.404 -14.760 -23.996  0.00  0.00    -0.166 F 
ATOM     15  F   UNL     1      33.420 -14.909 -23.120  0.00  0.00    -0.166 F 
ATOM     16  C   UNL     1      34.697 -15.379 -23.006  0.00  0.00    +0.419 C 
ENDBRANCH   8  16
ENDBRANCH   2   7
BRANCH   3  17
ATOM     17  C   UNL     1      35.904 -21.693 -17.885  0.00  0.00    +0.052 C 
ATOM     18  C   UNL     1      35.398 -23.156 -15.587  0.00  0.00    +0.145 C 
ATOM     19  C   UNL     1      34.708 -22.380 -17.769  0.00  0.00    +0.018 C 
ATOM     20  C   UNL     1      36.854 -21.722 -16.876  0.00  0.00    +0.018 C 
ATOM     21  C   UNL     1      34.453 -23.116 -16.612  0.00  0.00    +0.039 C 
ATOM     22  C   UNL     1      36.599 -22.459 -15.720  0.00  0.00    +0.039 C 
BRANCH  18  23
ATOM     23  O   UNL     1      35.151 -23.876 -14.460  0.00  0.00    -0.453 OA
BRANCH  23  25
ATOM     24  N   UNL     1      37.883 -26.829 -13.421  0.00  0.00    -0.242 NA
ATOM     25  C   UNL     1      36.061 -24.860 -14.112  0.00  0.00    +0.148 C 
ATOM     26  C   UNL     1      36.826 -24.700 -12.976  0.00  0.00    +0.058 C 
ATOM     27  C   UNL     1      36.182 -25.977 -14.910  0.00  0.00    +0.058 C 
ATOM     28  C   UNL     1      37.722 -25.713 -12.674  0.00  0.00    +0.102 C 
ATOM     29  C   UNL     1      37.107 -26.932 -14.522  0.00  0.00    +0.102 C 
ENDBRANCH  23  25
ENDBRANCH  18  23
ENDBRANCH   3  17
TORSDOF 5
ENDMDL
MODEL 8
REMARK VINA RESULT:     -10.7      5.142      7.987
REMARK  Name = 15942672
REMARK  5 active torsions:
REMARK  status: ('A' for Active; 'I' for Inactive)
REMARK    1  A    between atoms: N_2  and  C_7
REMARK    2  A    between atoms: N_3  and  C_17
REMARK    3  A    between atoms: C_8  and  C_16
REMARK    4  A    between atoms: C_18  and  O_23
REMARK    5  A    between atoms: O_23  and  C_25
REMARK                            x       y       z     vdW  Elec       q    Type
REMARK                         _______ _______ _______ _____ _____    ______ ____
ROOT
ATOM      1  O   UNL     1      34.484 -15.557 -20.564  0.00  0.00    -0.252 OA
ATOM      2  N   UNL     1      34.978 -17.173 -22.187  0.00  0.00    -0.268 N 
ATOM      3  N   UNL     1      34.105 -15.134 -22.832  0.00  0.00    -0.268 N 
ATOM      4  C   UNL     1      34.516 -15.911 -21.738  0.00  0.00    +0.308 C 
ATOM      5  H   UNL     1      34.945 -17.317 -23.161  0.00  0.00    +0.156 HD
ATOM      6  H   UNL     1      34.190 -15.555 -23.717  0.00  0.00    +0.156 HD
ENDROOT
BRANCH   2   7
ATOM      7  C   UNL     1      35.473 -18.237 -21.433  0.00  0.00    +0.052 C 
ATOM      8  C   UNL     1      35.092 -20.266 -20.178  0.00  0.00    +0.073 C 
ATOM      9  C   UNL     1      34.598 -19.201 -20.931  0.00  0.00    +0.019 C 
ATOM     10  C   UNL     1      36.840 -18.337 -21.182  0.00  0.00    +0.015 C 
ATOM     11  C   UNL     1      36.461 -20.366 -19.926  0.00  0.00    +0.004 C 
ATOM     12  C   UNL     1      37.335 -19.402 -20.428  0.00  0.00    +0.001 C 
BRANCH   8  16
ATOM     13  F   UNL     1      33.930 -21.186 -18.300  0.00  0.00    -0.166 F 
ATOM     14  F   UNL     1      32.921 -21.268 -20.218  0.00  0.00    -0.166 F 
ATOM     15  F   UNL     1      34.619 -22.570 -19.829  0.00  0.00    -0.166 F 
ATOM     16  C   UNL     1      34.159 -21.298 -19.641  0.00  0.00    +0.419 C 
ENDBRANCH   8  16
ENDBRANCH   2   7
BRANCH   3  17
ATOM     17  C   UNL     1      33.582 -13.819 -22.820  0.00  0.00    +0.052 C 
ATOM     18  C   UNL     1      32.556 -11.246 -22.794  0.00  0.00    +0.145 C 
ATOM     19  C   UNL     1      34.224 -12.827 -23.540  0.00  0.00    +0.018 C 
ATOM     20  C   UNL     1      32.437 -13.552 -22.086  0.00  0.00    +0.018 C 
ATOM     21  C   UNL     1      33.708 -11.530 -23.527  0.00  0.00    +0.039 C 
ATOM     22  C   UNL     1      31.920 -12.257 -22.074  0.00  0.00    +0.039 C 
BRANCH  18  23
ATOM     23  O   UNL     1      32.051  -9.982 -22.783  0.00  0.00    -0.453 OA
BRANCH  23  25
ATOM     24  N   UNL     1      32.955  -7.564 -19.526  0.00  0.00    -0.242 NA
ATOM     25  C   UNL     1      32.353  -9.178 -21.697  0.00  0.00    +0.148 C 
ATOM     26  C   UNL     1      31.812  -9.477 -20.465  0.00  0.00    +0.058 C 
ATOM     27  C   UNL     1      33.186  -8.094 -21.873  0.00  0.00    +0.058 C 
ATOM     28  C   UNL     1      32.143  -8.640 -19.411  0.00  0.00    +0.102 C 
ATOM     29  C   UNL     1      33.456  -7.319 -20.757  0.00  0.00    +0.102 C 
ENDBRANCH  23  25
ENDBRANCH  18  23
ENDBRANCH   3  17
TORSDOF 5
ENDMDL
MODEL 9
REMARK VINA RESULT:     -10.7      5.542     10.443
REMARK  Name = 15942672
REMARK  5 active torsions:
REMARK  status: ('A' for Active; 'I' for Inactive)
REMARK    1  A    between atoms: N_2  and  C_7
REMARK    2  A    between atoms: N_3  and  C_17
REMARK    3  A    between atoms: C_8  and  C_16
REMARK    4  A    between atoms: C_18  and  O_23
REMARK    5  A    between atoms: O_23  and  C_25
REMARK                            x       y       z     vdW  Elec       q    Type
REMARK                         _______ _______ _______ _____ _____    ______ ____
ROOT
ATOM      1  O   UNL     1      33.791 -19.299 -20.559  0.00  0.00    -0.252 OA
ATOM      2  N   UNL     1      35.731 -18.469 -21.576  0.00  0.00    -0.268 N 
ATOM      3  N   UNL     1      35.898 -20.133 -19.982  0.00  0.00    -0.268 N 
ATOM      4  C   UNL     1      35.011 -19.304 -20.688  0.00  0.00    +0.308 C 
ATOM      5  H   UNL     1      36.709 -18.584 -21.571  0.00  0.00    +0.156 HD
ATOM      6  H   UNL     1      36.853 -20.022 -20.194  0.00  0.00    +0.156 HD
ENDROOT
BRANCH   2   7
ATOM      7  C   UNL     1      35.240 -17.504 -22.456  0.00  0.00    +0.052 C 
ATOM      8  C   UNL     1      34.522 -15.239 -22.888  0.00  0.00    +0.073 C 
ATOM      9  C   UNL     1      35.013 -16.203 -22.008  0.00  0.00    +0.019 C 
ATOM     10  C   UNL     1      34.975 -17.842 -23.783  0.00  0.00    +0.015 C 
ATOM     11  C   UNL     1      34.257 -15.576 -24.216  0.00  0.00    +0.004 C 
ATOM     12  C   UNL     1      34.483 -16.877 -24.663  0.00  0.00    +0.001 C 
BRANCH   8  16
ATOM     13  F   UNL     1      34.586 -12.889 -23.335  0.00  0.00    -0.166 F 
ATOM     14  F   UNL     1      32.981 -13.605 -22.065  0.00  0.00    -0.166 F 
ATOM     15  F   UNL     1      35.017 -13.536 -21.304  0.00  0.00    -0.166 F 
ATOM     16  C   UNL     1      34.280 -13.846 -22.411  0.00  0.00    +0.419 C 
ENDBRANCH   8  16
ENDBRANCH   2   7
BRANCH   3  17
ATOM     17  C   UNL     1      35.589 -21.107 -19.004  0.00  0.00    +0.052 C 
ATOM     18  C   UNL     1      34.984 -23.016 -17.090  0.00  0.00    +0.145 C 
ATOM     19  C   UNL     1      36.446 -21.286 -17.931  0.00  0.00    +0.018 C 
ATOM     20  C   UNL     1      34.436 -21.863 -19.141  0.00  0.00    +0.018 C 
ATOM     21  C   UNL     1      36.141 -22.248 -16.967  0.00  0.00    +0.039 C 
ATOM     22  C   UNL     1      34.131 -22.823 -18.177  0.00  0.00    +0.039 C 
BRANCH  18  23
ATOM     23  O   UNL     1      34.685 -23.952 -16.149  0.00  0.00    -0.453 OA
BRANCH  23  25
ATOM     24  N   UNL     1      31.552 -23.142 -13.542  0.00  0.00    -0.242 NA
ATOM     25  C   UNL     1      33.642 -23.681 -15.279  0.00  0.00    +0.148 C 
ATOM     26  C   UNL     1      33.800 -23.940 -13.934  0.00  0.00    +0.058 C 
ATOM     27  C   UNL     1      32.468 -23.159 -15.779  0.00  0.00    +0.058 C 
ATOM     28  C   UNL     1      32.725 -23.653 -13.108  0.00  0.00    +0.102 C 
ATOM     29  C   UNL     1      31.453 -22.908 -14.870  0.00  0.00    +0.102 C 
ENDBRANCH  23  25
ENDBRANCH  18  23
ENDBRANCH   3  17
TORSDOF 5
ENDMDL
