MODEL 1
REMARK VINA RESULT:     -11.2      0.000      0.000
REMARK  Name = 4369285
REMARK  9 active torsions:
REMARK  status: ('A' for Active; 'I' for Inactive)
REMARK    1  A    between atoms: N_1  and  C_18
REMARK    2  A    between atoms: N_2  and  C_8
REMARK    3  A    between atoms: C_11  and  C_17
REMARK    4  A    between atoms: C_18  and  C_19
REMARK    5  A    between atoms: C_19  and  C_21
REMARK    6  A    between atoms: C_21  and  C_22
REMARK    7  A    between atoms: C_25  and  N_30
REMARK    8  A    between atoms: C_26  and  O_31
REMARK    9  A    between atoms: C_27  and  O_33
REMARK                            x       y       z     vdW  Elec       q    Type
REMARK                         _______ _______ _______ _____ _____    ______ ____
ROOT
ATOM      1  N   UNL     1      35.124 -21.682 -19.235  0.00  0.00    +0.390 N 
ATOM      2  N   UNL     1      35.041 -19.234 -20.706  0.00  0.00    -0.312 N 
ATOM      3  C   UNL     1      36.233 -20.724 -19.147  0.00  0.00    -0.055 C 
ATOM      4  C   UNL     1      33.856 -20.963 -19.409  0.00  0.00    -0.055 C 
ATOM      5  C   UNL     1      36.329 -19.874 -20.417  0.00  0.00    +0.068 C 
ATOM      6  C   UNL     1      33.872 -20.122 -20.688  0.00  0.00    +0.068 C 
ATOM      7  H   UNL     1      35.275 -22.285 -20.043  0.00  0.00    -0.080 HD
ENDROOT
BRANCH   2   8
ATOM      8  C   UNL     1      34.997 -18.105 -21.532  0.00  0.00    +0.048 C 
ATOM      9  C   UNL     1      34.766 -16.822 -20.997  0.00  0.00    +0.018 C 
ATOM     10  C   UNL     1      35.182 -18.218 -22.925  0.00  0.00    +0.015 C 
ATOM     11  C   UNL     1      34.723 -15.698 -21.820  0.00  0.00    +0.073 C 
ATOM     12  C   UNL     1      35.138 -17.093 -23.749  0.00  0.00    +0.001 C 
ATOM     13  C   UNL     1      34.908 -15.833 -23.196  0.00  0.00    +0.004 C 
BRANCH  11  17
ATOM     14  F   UNL     1      33.160 -14.107 -20.953  0.00  0.00    -0.166 F 
ATOM     15  F   UNL     1      35.133 -14.139 -20.053  0.00  0.00    -0.166 F 
ATOM     16  F   UNL     1      34.868 -13.337 -22.057  0.00  0.00    -0.166 F 
ATOM     17  C   UNL     1      34.476 -14.351 -21.231  0.00  0.00    +0.419 C 
ENDBRANCH  11  17
ENDBRANCH   2   8
BRANCH   1  18
ATOM     18  C   UNL     1      35.077 -22.523 -18.040  0.00  0.00    -0.069 C 
BRANCH  18  19
ATOM     19  C   UNL     1      33.634 -22.797 -17.616  0.00  0.00    +0.046 C 
BRANCH  19  21
ATOM     20  O   UNL     1      34.453 -22.819 -15.348  0.00  0.00    -0.291 OA
ATOM     21  C   UNL     1      33.510 -23.006 -16.114  0.00  0.00    +0.171 C 
BRANCH  21  22
ATOM     22  C   UNL     1      32.197 -23.451 -15.558  0.00  0.00    +0.039 C 
ATOM     23  C   UNL     1      31.051 -23.156 -16.259  0.00  0.00    +0.030 C 
ATOM     24  C   UNL     1      32.186 -24.138 -14.366  0.00  0.00    +0.043 C 
ATOM     25  C   UNL     1      29.825 -23.571 -15.739  0.00  0.00    +0.179 C 
ATOM     26  C   UNL     1      30.960 -24.553 -13.846  0.00  0.00    +0.169 C 
ATOM     27  C   UNL     1      29.780 -24.271 -14.533  0.00  0.00    +0.190 C 
BRANCH  25  30
ATOM     28  O   UNL     1      28.323 -22.074 -16.644  0.00  0.00    -0.126 OA
ATOM     29  O   UNL     1      27.924 -24.220 -16.871  0.00  0.00    -0.126 OA
ATOM     30  N   UNL     1      28.631 -23.273 -16.454  0.00  0.00    +0.061 N 
ENDBRANCH  25  30
BRANCH  26  31
ATOM     31  O   UNL     1      30.931 -25.235 -12.667  0.00  0.00    -0.503 OA
ATOM     32  H   UNL     1      30.990 -24.769 -11.855  0.00  0.00    +0.292 HD
ENDBRANCH  26  31
BRANCH  27  33
ATOM     33  O   UNL     1      28.586 -24.681 -14.014  0.00  0.00    -0.502 OA
ATOM     34  H   UNL     1      28.411 -24.577 -13.099  0.00  0.00    +0.292 HD
ENDBRANCH  27  33
ENDBRANCH  21  22
ENDBRANCH  19  21
ENDBRANCH  18  19
ENDBRANCH   1  18
TORSDOF 9
ENDMDL
MODEL 2
REMARK VINA RESULT:     -11.1      5.952     10.099
REMARK  Name = 4369285
REMARK  9 active torsions:
REMARK  status: ('A' for Active; 'I' for Inactive)
REMARK    1  A    between atoms: N_1  and  C_18
REMARK    2  A    between atoms: N_2  and  C_8
REMARK    3  A    between atoms: C_11  and  C_17
REMARK    4  A    between atoms: C_18  and  C_19
REMARK    5  A    between atoms: C_19  and  C_21
REMARK    6  A    between atoms: C_21  and  C_22
REMARK    7  A    between atoms: C_25  and  N_30
REMARK    8  A    between atoms: C_26  and  O_31
REMARK    9  A    between atoms: C_27  and  O_33
REMARK                            x       y       z     vdW  Elec       q    Type
REMARK                         _______ _______ _______ _____ _____    ______ ____
ROOT
ATOM      1  N   UNL     1      35.695 -22.026 -18.832  0.00  0.00    +0.390 N 
ATOM      2  N   UNL     1      33.843 -22.699 -16.764  0.00  0.00    -0.312 N 
ATOM      3  C   UNL     1      34.258 -21.783 -19.013  0.00  0.00    -0.055 C 
ATOM      4  C   UNL     1      36.058 -21.843 -17.421  0.00  0.00    -0.055 C 
ATOM      5  C   UNL     1      33.426 -22.752 -18.169  0.00  0.00    +0.068 C 
ATOM      6  C   UNL     1      35.286 -22.814 -16.524  0.00  0.00    +0.068 C 
ATOM      7  H   UNL     1      35.903 -22.987 -19.104  0.00  0.00    -0.080 HD
ENDROOT
BRANCH   2   8
ATOM      8  C   UNL     1      32.972 -23.148 -15.764  0.00  0.00    +0.048 C 
ATOM      9  C   UNL     1      31.575 -23.069 -15.928  0.00  0.00    +0.018 C 
ATOM     10  C   UNL     1      33.468 -23.694 -14.563  0.00  0.00    +0.015 C 
ATOM     11  C   UNL     1      30.709 -23.518 -14.932  0.00  0.00    +0.073 C 
ATOM     12  C   UNL     1      32.601 -24.143 -13.566  0.00  0.00    +0.001 C 
ATOM     13  C   UNL     1      31.222 -24.054 -13.751  0.00  0.00    +0.004 C 
BRANCH  11  17
ATOM     14  F   UNL     1      28.854 -23.423 -16.440  0.00  0.00    -0.166 F 
ATOM     15  F   UNL     1      28.538 -24.449 -14.555  0.00  0.00    -0.166 F 
ATOM     16  F   UNL     1      28.706 -22.281 -14.595  0.00  0.00    -0.166 F 
ATOM     17  C   UNL     1      29.234 -23.423 -15.127  0.00  0.00    +0.419 C 
ENDBRANCH  11  17
ENDBRANCH   2   8
BRANCH   1  18
ATOM     18  C   UNL     1      36.477 -21.132 -19.684  0.00  0.00    -0.069 C 
BRANCH  18  19
ATOM     19  C   UNL     1      35.591 -20.056 -20.312  0.00  0.00    +0.046 C 
BRANCH  19  21
ATOM     20  O   UNL     1      37.617 -18.807 -20.702  0.00  0.00    -0.291 OA
ATOM     21  C   UNL     1      36.408 -18.913 -20.898  0.00  0.00    +0.171 C 
BRANCH  21  22
ATOM     22  C   UNL     1      35.714 -17.891 -21.736  0.00  0.00    +0.039 C 
ATOM     23  C   UNL     1      35.439 -16.662 -21.183  0.00  0.00    +0.030 C 
ATOM     24  C   UNL     1      35.376 -18.219 -23.029  0.00  0.00    +0.043 C 
ATOM     25  C   UNL     1      34.789 -15.708 -21.965  0.00  0.00    +0.179 C 
ATOM     26  C   UNL     1      34.727 -17.264 -23.812  0.00  0.00    +0.169 C 
ATOM     27  C   UNL     1      34.434 -16.009 -23.281  0.00  0.00    +0.190 C 
BRANCH  25  30
ATOM     28  O   UNL     1      34.650 -13.411 -22.118  0.00  0.00    -0.126 OA
ATOM     29  O   UNL     1      34.101 -14.367 -20.220  0.00  0.00    -0.126 OA
ATOM     30  N   UNL     1      34.499 -14.432 -21.407  0.00  0.00    +0.061 N 
ENDBRANCH  25  30
BRANCH  26  31
ATOM     31  O   UNL     1      34.385 -17.573 -25.094  0.00  0.00    -0.503 OA
ATOM     32  H   UNL     1      34.788 -17.119 -25.809  0.00  0.00    +0.292 HD
ENDBRANCH  26  31
BRANCH  27  33
ATOM     33  O   UNL     1      33.798 -15.083 -24.056  0.00  0.00    -0.502 OA
ATOM     34  H   UNL     1      33.047 -15.330 -24.559  0.00  0.00    +0.292 HD
ENDBRANCH  27  33
ENDBRANCH  21  22
ENDBRANCH  19  21
ENDBRANCH  18  19
ENDBRANCH   1  18
TORSDOF 9
ENDMDL
MODEL 3
REMARK VINA RESULT:     -11.0      3.566      5.769
REMARK  Name = 4369285
REMARK  9 active torsions:
REMARK  status: ('A' for Active; 'I' for Inactive)
REMARK    1  A    between atoms: N_1  and  C_18
REMARK    2  A    between atoms: N_2  and  C_8
REMARK    3  A    between atoms: C_11  and  C_17
REMARK    4  A    between atoms: C_18  and  C_19
REMARK    5  A    between atoms: C_19  and  C_21
REMARK    6  A    between atoms: C_21  and  C_22
REMARK    7  A    between atoms: C_25  and  N_30
REMARK    8  A    between atoms: C_26  and  O_31
REMARK    9  A    between atoms: C_27  and  O_33
REMARK                            x       y       z     vdW  Elec       q    Type
REMARK                         _______ _______ _______ _____ _____    ______ ____
ROOT
ATOM      1  N   UNL     1      35.662 -17.228 -22.586  0.00  0.00    +0.390 N 
ATOM      2  N   UNL     1      34.233 -14.755 -22.626  0.00  0.00    -0.312 N 
ATOM      3  C   UNL     1      34.969 -16.750 -21.383  0.00  0.00    -0.055 C 
ATOM      4  C   UNL     1      34.921 -16.818 -23.785  0.00  0.00    -0.055 C 
ATOM      5  C   UNL     1      34.855 -15.224 -21.383  0.00  0.00    +0.068 C 
ATOM      6  C   UNL     1      34.805 -15.294 -23.866  0.00  0.00    +0.068 C 
ATOM      7  H   UNL     1      36.593 -16.812 -22.616  0.00  0.00    -0.080 HD
ENDROOT
BRANCH   2   8
ATOM      8  C   UNL     1      33.643 -13.486 -22.671  0.00  0.00    +0.048 C 
ATOM      9  C   UNL     1      32.876 -13.003 -21.592  0.00  0.00    +0.018 C 
ATOM     10  C   UNL     1      33.799 -12.654 -23.798  0.00  0.00    +0.015 C 
ATOM     11  C   UNL     1      32.289 -11.738 -21.638  0.00  0.00    +0.073 C 
ATOM     12  C   UNL     1      33.211 -11.389 -23.844  0.00  0.00    +0.001 C 
ATOM     13  C   UNL     1      32.456 -10.932 -22.764  0.00  0.00    +0.004 C 
BRANCH  11  17
ATOM     14  F   UNL     1      31.762 -11.886 -19.309  0.00  0.00    -0.166 F 
ATOM     15  F   UNL     1      31.652  -9.921 -20.221  0.00  0.00    -0.166 F 
ATOM     16  F   UNL     1      30.139 -11.414 -20.677  0.00  0.00    -0.166 F 
ATOM     17  C   UNL     1      31.481 -11.249 -20.485  0.00  0.00    +0.419 C 
ENDBRANCH  11  17
ENDBRANCH   2   8
BRANCH   1  18
ATOM     18  C   UNL     1      35.813 -18.681 -22.548  0.00  0.00    -0.069 C 
BRANCH  18  19
ATOM     19  C   UNL     1      35.302 -19.253 -21.225  0.00  0.00    +0.046 C 
BRANCH  19  21
ATOM     20  O   UNL     1      37.567 -19.152 -20.405  0.00  0.00    -0.291 OA
ATOM     21  C   UNL     1      36.440 -19.628 -20.287  0.00  0.00    +0.171 C 
BRANCH  21  22
ATOM     22  C   UNL     1      36.173 -20.605 -19.189  0.00  0.00    +0.039 C 
ATOM     23  C   UNL     1      35.045 -21.389 -19.265  0.00  0.00    +0.030 C 
ATOM     24  C   UNL     1      37.065 -20.681 -18.144  0.00  0.00    +0.043 C 
ATOM     25  C   UNL     1      34.795 -22.300 -18.239  0.00  0.00    +0.179 C 
ATOM     26  C   UNL     1      36.815 -21.593 -17.118  0.00  0.00    +0.169 C 
ATOM     27  C   UNL     1      35.681 -22.403 -17.166  0.00  0.00    +0.190 C 
BRANCH  25  30
ATOM     28  O   UNL     1      32.525 -22.622 -17.994  0.00  0.00    -0.126 OA
ATOM     29  O   UNL     1      33.753 -24.311 -18.673  0.00  0.00    -0.126 OA
ATOM     30  N   UNL     1      33.633 -23.118 -18.306  0.00  0.00    +0.061 N 
ENDBRANCH  25  30
BRANCH  26  31
ATOM     31  O   UNL     1      37.688 -21.681 -16.076  0.00  0.00    -0.503 OA
ATOM     32  H   UNL     1      38.424 -21.103 -16.031  0.00  0.00    +0.292 HD
ENDBRANCH  26  31
BRANCH  27  33
ATOM     33  O   UNL     1      35.446 -23.291 -16.157  0.00  0.00    -0.502 OA
ATOM     34  H   UNL     1      36.163 -23.728 -15.741  0.00  0.00    +0.292 HD
ENDBRANCH  27  33
ENDBRANCH  21  22
ENDBRANCH  19  21
ENDBRANCH  18  19
ENDBRANCH   1  18
TORSDOF 9
ENDMDL
MODEL 4
REMARK VINA RESULT:     -10.9      3.633      6.030
REMARK  Name = 4369285
REMARK  9 active torsions:
REMARK  status: ('A' for Active; 'I' for Inactive)
REMARK    1  A    between atoms: N_1  and  C_18
REMARK    2  A    between atoms: N_2  and  C_8
REMARK    3  A    between atoms: C_11  and  C_17
REMARK    4  A    between atoms: C_18  and  C_19
REMARK    5  A    between atoms: C_19  and  C_21
REMARK    6  A    between atoms: C_21  and  C_22
REMARK    7  A    between atoms: C_25  and  N_30
REMARK    8  A    between atoms: C_26  and  O_31
REMARK    9  A    between atoms: C_27  and  O_33
REMARK                            x       y       z     vdW  Elec       q    Type
REMARK                         _______ _______ _______ _____ _____    ______ ____
ROOT
ATOM      1  N   UNL     1      35.608 -17.323 -22.664  0.00  0.00    +0.390 N 
ATOM      2  N   UNL     1      34.209 -14.833 -22.700  0.00  0.00    -0.312 N 
ATOM      3  C   UNL     1      35.036 -16.774 -21.429  0.00  0.00    -0.055 C 
ATOM      4  C   UNL     1      34.761 -16.963 -23.809  0.00  0.00    -0.055 C 
ATOM      5  C   UNL     1      34.939 -15.247 -21.498  0.00  0.00    +0.068 C 
ATOM      6  C   UNL     1      34.656 -15.443 -23.958  0.00  0.00    +0.068 C 
ATOM      7  H   UNL     1      36.536 -16.924 -22.803  0.00  0.00    -0.080 HD
ENDROOT
BRANCH   2   8
ATOM      8  C   UNL     1      33.631 -13.559 -22.757  0.00  0.00    +0.048 C 
ATOM      9  C   UNL     1      32.880 -13.053 -21.677  0.00  0.00    +0.018 C 
ATOM     10  C   UNL     1      33.784 -12.744 -23.896  0.00  0.00    +0.015 C 
ATOM     11  C   UNL     1      32.306 -11.784 -21.734  0.00  0.00    +0.073 C 
ATOM     12  C   UNL     1      33.209 -11.473 -23.953  0.00  0.00    +0.001 C 
ATOM     13  C   UNL     1      32.469 -10.994 -22.872  0.00  0.00    +0.004 C 
BRANCH  11  17
ATOM     14  F   UNL     1      31.836  -9.993 -20.218  0.00  0.00    -0.166 F 
ATOM     15  F   UNL     1      30.168 -11.248 -20.805  0.00  0.00    -0.166 F 
ATOM     16  F   UNL     1      31.683 -12.022 -19.451  0.00  0.00    -0.166 F 
ATOM     17  C   UNL     1      31.514 -11.271 -20.579  0.00  0.00    +0.419 C 
ENDBRANCH  11  17
ENDBRANCH   2   8
BRANCH   1  18
ATOM     18  C   UNL     1      35.745 -18.775 -22.564  0.00  0.00    -0.069 C 
BRANCH  18  19
ATOM     19  C   UNL     1      35.084 -19.304 -21.292  0.00  0.00    +0.046 C 
BRANCH  19  21
ATOM     20  O   UNL     1      37.278 -19.440 -20.300  0.00  0.00    -0.291 OA
ATOM     21  C   UNL     1      36.106 -19.810 -20.284  0.00  0.00    +0.171 C 
BRANCH  21  22
ATOM     22  C   UNL     1      35.665 -20.788 -19.245  0.00  0.00    +0.039 C 
ATOM     23  C   UNL     1      36.536 -21.107 -18.229  0.00  0.00    +0.030 C 
ATOM     24  C   UNL     1      34.406 -21.333 -19.346  0.00  0.00    +0.043 C 
ATOM     25  C   UNL     1      36.125 -22.021 -17.260  0.00  0.00    +0.179 C 
ATOM     26  C   UNL     1      33.994 -22.247 -18.376  0.00  0.00    +0.169 C 
ATOM     27  C   UNL     1      34.853 -22.591 -17.333  0.00  0.00    +0.190 C 
BRANCH  25  30
ATOM     28  O   UNL     1      36.993 -23.526 -15.744  0.00  0.00    -0.126 OA
ATOM     29  O   UNL     1      37.793 -21.481 -15.761  0.00  0.00    -0.126 OA
ATOM     30  N   UNL     1      37.015 -22.360 -16.203  0.00  0.00    +0.061 N 
ENDBRANCH  25  30
BRANCH  26  31
ATOM     31  O   UNL     1      32.750 -22.796 -18.461  0.00  0.00    -0.503 OA
ATOM     32  H   UNL     1      32.558 -23.420 -19.133  0.00  0.00    +0.292 HD
ENDBRANCH  26  31
BRANCH  27  33
ATOM     33  O   UNL     1      34.440 -23.487 -16.390  0.00  0.00    -0.502 OA
ATOM     34  H   UNL     1      34.196 -24.355 -16.644  0.00  0.00    +0.292 HD
ENDBRANCH  27  33
ENDBRANCH  21  22
ENDBRANCH  19  21
ENDBRANCH  18  19
ENDBRANCH   1  18
TORSDOF 9
ENDMDL
MODEL 5
REMARK VINA RESULT:     -10.9      5.954      9.991
REMARK  Name = 4369285
REMARK  9 active torsions:
REMARK  status: ('A' for Active; 'I' for Inactive)
REMARK    1  A    between atoms: N_1  and  C_18
REMARK    2  A    between atoms: N_2  and  C_8
REMARK    3  A    between atoms: C_11  and  C_17
REMARK    4  A    between atoms: C_18  and  C_19
REMARK    5  A    between atoms: C_19  and  C_21
REMARK    6  A    between atoms: C_21  and  C_22
REMARK    7  A    between atoms: C_25  and  N_30
REMARK    8  A    between atoms: C_26  and  O_31
REMARK    9  A    between atoms: C_27  and  O_33
REMARK                            x       y       z     vdW  Elec       q    Type
REMARK                         _______ _______ _______ _____ _____    ______ ____
ROOT
ATOM      1  N   UNL     1      35.667 -22.012 -18.805  0.00  0.00    +0.390 N 
ATOM      2  N   UNL     1      33.752 -22.740 -16.814  0.00  0.00    -0.312 N 
ATOM      3  C   UNL     1      34.242 -21.720 -19.002  0.00  0.00    -0.055 C 
ATOM      4  C   UNL     1      36.004 -21.913 -17.380  0.00  0.00    -0.055 C 
ATOM      5  C   UNL     1      33.366 -22.708 -18.229  0.00  0.00    +0.068 C 
ATOM      6  C   UNL     1      35.187 -22.908 -16.551  0.00  0.00    +0.068 C 
ATOM      7  H   UNL     1      35.855 -22.963 -19.123  0.00  0.00    -0.080 HD
ENDROOT
BRANCH   2   8
ATOM      8  C   UNL     1      32.849 -23.217 -15.858  0.00  0.00    +0.048 C 
ATOM      9  C   UNL     1      31.458 -23.069 -16.034  0.00  0.00    +0.018 C 
ATOM     10  C   UNL     1      33.303 -23.861 -14.689  0.00  0.00    +0.015 C 
ATOM     11  C   UNL     1      30.559 -23.545 -15.081  0.00  0.00    +0.073 C 
ATOM     12  C   UNL     1      32.402 -24.337 -13.735  0.00  0.00    +0.001 C 
ATOM     13  C   UNL     1      31.030 -24.178 -13.931  0.00  0.00    +0.004 C 
BRANCH  11  17
ATOM     14  F   UNL     1      28.598 -22.208 -14.778  0.00  0.00    -0.166 F 
ATOM     15  F   UNL     1      28.722 -23.372 -16.603  0.00  0.00    -0.166 F 
ATOM     16  F   UNL     1      28.360 -24.369 -14.705  0.00  0.00    -0.166 F 
ATOM     17  C   UNL     1      29.092 -23.375 -15.289  0.00  0.00    +0.419 C 
ENDBRANCH  11  17
ENDBRANCH   2   8
BRANCH   1  18
ATOM     18  C   UNL     1      36.492 -21.097 -19.592  0.00  0.00    -0.069 C 
BRANCH  18  19
ATOM     19  C   UNL     1      35.627 -20.078 -20.335  0.00  0.00    +0.046 C 
BRANCH  19  21
ATOM     20  O   UNL     1      37.659 -18.830 -20.696  0.00  0.00    -0.291 OA
ATOM     21  C   UNL     1      36.435 -18.875 -20.801  0.00  0.00    +0.171 C 
BRANCH  21  22
ATOM     22  C   UNL     1      35.712 -17.717 -21.406  0.00  0.00    +0.039 C 
ATOM     23  C   UNL     1      35.348 -17.786 -22.730  0.00  0.00    +0.030 C 
ATOM     24  C   UNL     1      35.440 -16.625 -20.613  0.00  0.00    +0.043 C 
ATOM     25  C   UNL     1      34.674 -16.703 -23.295  0.00  0.00    +0.179 C 
ATOM     26  C   UNL     1      34.765 -15.542 -21.178  0.00  0.00    +0.169 C 
ATOM     27  C   UNL     1      34.381 -15.582 -22.518  0.00  0.00    +0.190 C 
BRANCH  25  30
ATOM     28  O   UNL     1      34.452 -15.746 -25.380  0.00  0.00    -0.126 OA
ATOM     29  O   UNL     1      33.802 -17.825 -25.111  0.00  0.00    -0.126 OA
ATOM     30  N   UNL     1      34.291 -16.761 -24.663  0.00  0.00    +0.061 N 
ENDBRANCH  25  30
BRANCH  26  31
ATOM     31  O   UNL     1      34.487 -14.453 -20.408  0.00  0.00    -0.503 OA
ATOM     32  H   UNL     1      33.737 -14.455 -19.846  0.00  0.00    +0.292 HD
ENDBRANCH  26  31
BRANCH  27  33
ATOM     33  O   UNL     1      33.723 -14.516 -23.060  0.00  0.00    -0.502 OA
ATOM     34  H   UNL     1      33.042 -14.656 -23.689  0.00  0.00    +0.292 HD
ENDBRANCH  27  33
ENDBRANCH  21  22
ENDBRANCH  19  21
ENDBRANCH  18  19
ENDBRANCH   1  18
TORSDOF 9
ENDMDL
MODEL 6
REMARK VINA RESULT:     -10.7      3.544      5.110
REMARK  Name = 4369285
REMARK  9 active torsions:
REMARK  status: ('A' for Active; 'I' for Inactive)
REMARK    1  A    between atoms: N_1  and  C_18
REMARK    2  A    between atoms: N_2  and  C_8
REMARK    3  A    between atoms: C_11  and  C_17
REMARK    4  A    between atoms: C_18  and  C_19
REMARK    5  A    between atoms: C_19  and  C_21
REMARK    6  A    between atoms: C_21  and  C_22
REMARK    7  A    between atoms: C_25  and  N_30
REMARK    8  A    between atoms: C_26  and  O_31
REMARK    9  A    between atoms: C_27  and  O_33
REMARK                            x       y       z     vdW  Elec       q    Type
REMARK                         _______ _______ _______ _____ _____    ______ ____
ROOT
ATOM      1  N   UNL     1      36.044 -20.438 -19.346  0.00  0.00    +0.390 N 
ATOM      2  N   UNL     1      35.354 -18.613 -21.433  0.00  0.00    -0.312 N 
ATOM      3  C   UNL     1      34.827 -20.643 -20.140  0.00  0.00    -0.055 C 
ATOM      4  C   UNL     1      37.090 -19.836 -20.183  0.00  0.00    -0.055 C 
ATOM      5  C   UNL     1      34.300 -19.316 -20.693  0.00  0.00    +0.068 C 
ATOM      6  C   UNL     1      36.640 -18.482 -20.738  0.00  0.00    +0.068 C 
ATOM      7  H   UNL     1      35.832 -19.803 -18.577  0.00  0.00    -0.080 HD
ENDROOT
BRANCH   2   8
ATOM      8  C   UNL     1      35.008 -17.629 -22.367  0.00  0.00    +0.048 C 
ATOM      9  C   UNL     1      34.816 -16.290 -21.973  0.00  0.00    +0.018 C 
ATOM     10  C   UNL     1      34.843 -17.949 -23.730  0.00  0.00    +0.015 C 
ATOM     11  C   UNL     1      34.472 -15.310 -22.904  0.00  0.00    +0.073 C 
ATOM     12  C   UNL     1      34.499 -16.969 -24.661  0.00  0.00    +0.001 C 
ATOM     13  C   UNL     1      34.313 -15.650 -24.248  0.00  0.00    +0.004 C 
BRANCH  11  17
ATOM     14  F   UNL     1      34.557 -12.978 -23.431  0.00  0.00    -0.166 F 
ATOM     15  F   UNL     1      32.992 -13.624 -22.075  0.00  0.00    -0.166 F 
ATOM     16  F   UNL     1      35.057 -13.567 -21.398  0.00  0.00    -0.166 F 
ATOM     17  C   UNL     1      34.271 -13.900 -22.464  0.00  0.00    +0.419 C 
ENDBRANCH  11  17
ENDBRANCH   2   8
BRANCH   1  18
ATOM     18  C   UNL     1      36.506 -21.703 -18.779  0.00  0.00    -0.069 C 
BRANCH  18  19
ATOM     19  C   UNL     1      35.786 -22.013 -17.466  0.00  0.00    +0.046 C 
BRANCH  19  21
ATOM     20  O   UNL     1      37.553 -21.123 -16.087  0.00  0.00    -0.291 OA
ATOM     21  C   UNL     1      36.740 -22.025 -16.280  0.00  0.00    +0.171 C 
BRANCH  21  22
ATOM     22  C   UNL     1      36.682 -23.170 -15.324  0.00  0.00    +0.039 C 
ATOM     23  C   UNL     1      37.844 -23.848 -15.036  0.00  0.00    +0.030 C 
ATOM     24  C   UNL     1      35.467 -23.503 -14.769  0.00  0.00    +0.043 C 
ATOM     25  C   UNL     1      37.788 -24.918 -14.144  0.00  0.00    +0.179 C 
ATOM     26  C   UNL     1      35.412 -24.573 -13.876  0.00  0.00    +0.169 C 
ATOM     27  C   UNL     1      36.573 -25.281 -13.563  0.00  0.00    +0.190 C 
BRANCH  25  30
ATOM     28  O   UNL     1      39.045 -26.851 -14.103  0.00  0.00    -0.126 OA
ATOM     29  O   UNL     1      39.935 -25.009 -13.307  0.00  0.00    -0.126 OA
ATOM     30  N   UNL     1      38.982 -25.628 -13.836  0.00  0.00    +0.061 N 
ENDBRANCH  25  30
BRANCH  26  31
ATOM     31  O   UNL     1      34.218 -24.917 -13.318  0.00  0.00    -0.503 OA
ATOM     32  H   UNL     1      33.558 -25.330 -13.840  0.00  0.00    +0.292 HD
ENDBRANCH  26  31
BRANCH  27  33
ATOM     33  O   UNL     1      36.507 -26.327 -12.689  0.00  0.00    -0.502 OA
ATOM     34  H   UNL     1      37.285 -26.793 -12.456  0.00  0.00    +0.292 HD
ENDBRANCH  27  33
ENDBRANCH  21  22
ENDBRANCH  19  21
ENDBRANCH  18  19
ENDBRANCH   1  18
TORSDOF 9
ENDMDL
MODEL 7
REMARK VINA RESULT:     -10.6      1.606      2.627
REMARK  Name = 4369285
REMARK  9 active torsions:
REMARK  status: ('A' for Active; 'I' for Inactive)
REMARK    1  A    between atoms: N_1  and  C_18
REMARK    2  A    between atoms: N_2  and  C_8
REMARK    3  A    between atoms: C_11  and  C_17
REMARK    4  A    between atoms: C_18  and  C_19
REMARK    5  A    between atoms: C_19  and  C_21
REMARK    6  A    between atoms: C_21  and  C_22
REMARK    7  A    between atoms: C_25  and  N_30
REMARK    8  A    between atoms: C_26  and  O_31
REMARK    9  A    between atoms: C_27  and  O_33
REMARK                            x       y       z     vdW  Elec       q    Type
REMARK                         _______ _______ _______ _____ _____    ______ ____
ROOT
ATOM      1  N   UNL     1      36.089 -20.839 -19.955  0.00  0.00    +0.390 N 
ATOM      2  N   UNL     1      35.403 -18.501 -21.446  0.00  0.00    -0.312 N 
ATOM      3  C   UNL     1      36.856 -19.599 -19.788  0.00  0.00    -0.055 C 
ATOM      4  C   UNL     1      34.682 -20.522 -20.233  0.00  0.00    -0.055 C 
ATOM      5  C   UNL     1      36.795 -18.739 -21.053  0.00  0.00    +0.068 C 
ATOM      6  C   UNL     1      34.548 -19.694 -21.513  0.00  0.00    +0.068 C 
ATOM      7  H   UNL     1      36.472 -21.359 -20.744  0.00  0.00    -0.080 HD
ENDROOT
BRANCH   2   8
ATOM      8  C   UNL     1      35.092 -17.422 -22.282  0.00  0.00    +0.048 C 
ATOM      9  C   UNL     1      34.854 -16.138 -21.753  0.00  0.00    +0.018 C 
ATOM     10  C   UNL     1      35.007 -17.589 -23.679  0.00  0.00    +0.015 C 
ATOM     11  C   UNL     1      34.545 -15.064 -22.586  0.00  0.00    +0.073 C 
ATOM     12  C   UNL     1      34.697 -16.514 -24.513  0.00  0.00    +0.001 C 
ATOM     13  C   UNL     1      34.466 -15.251 -23.966  0.00  0.00    +0.004 C 
BRANCH  11  17
ATOM     14  F   UNL     1      32.995 -13.506 -21.640  0.00  0.00    -0.166 F 
ATOM     15  F   UNL     1      35.024 -13.463 -20.875  0.00  0.00    -0.166 F 
ATOM     16  F   UNL     1      34.601 -12.704 -22.868  0.00  0.00    -0.166 F 
ATOM     17  C   UNL     1      34.296 -13.715 -22.003  0.00  0.00    +0.419 C 
ENDBRANCH  11  17
ENDBRANCH   2   8
BRANCH   1  18
ATOM     18  C   UNL     1      36.200 -21.675 -18.761  0.00  0.00    -0.069 C 
BRANCH  18  19
ATOM     19  C   UNL     1      34.837 -22.237 -18.354  0.00  0.00    +0.046 C 
BRANCH  19  21
ATOM     20  O   UNL     1      35.884 -23.118 -16.368  0.00  0.00    -0.291 OA
ATOM     21  C   UNL     1      34.845 -22.782 -16.933  0.00  0.00    +0.171 C 
BRANCH  21  22
ATOM     22  C   UNL     1      33.547 -22.909 -16.206  0.00  0.00    +0.039 C 
ATOM     23  C   UNL     1      33.567 -23.262 -14.877  0.00  0.00    +0.030 C 
ATOM     24  C   UNL     1      32.380 -22.670 -16.896  0.00  0.00    +0.043 C 
ATOM     25  C   UNL     1      32.355 -23.382 -14.200  0.00  0.00    +0.179 C 
ATOM     26  C   UNL     1      31.167 -22.789 -16.218  0.00  0.00    +0.169 C 
ATOM     27  C   UNL     1      31.154 -23.145 -14.870  0.00  0.00    +0.190 C 
BRANCH  25  30
ATOM     28  O   UNL     1      33.140 -24.649 -12.440  0.00  0.00    -0.126 OA
ATOM     29  O   UNL     1      31.587 -23.151 -12.037  0.00  0.00    -0.126 OA
ATOM     30  N   UNL     1      32.361 -23.746 -12.824  0.00  0.00    +0.061 N 
ENDBRANCH  25  30
BRANCH  26  31
ATOM     31  O   UNL     1      30.003 -22.556 -16.886  0.00  0.00    -0.503 OA
ATOM     32  H   UNL     1      29.981 -22.609 -17.822  0.00  0.00    +0.292 HD
ENDBRANCH  26  31
BRANCH  27  33
ATOM     33  O   UNL     1      29.961 -23.260 -14.217  0.00  0.00    -0.502 OA
ATOM     34  H   UNL     1      29.251 -22.688 -14.433  0.00  0.00    +0.292 HD
ENDBRANCH  27  33
ENDBRANCH  21  22
ENDBRANCH  19  21
ENDBRANCH  18  19
ENDBRANCH   1  18
TORSDOF 9
ENDMDL
MODEL 8
REMARK VINA RESULT:     -10.6      6.525     10.640
REMARK  Name = 4369285
REMARK  9 active torsions:
REMARK  status: ('A' for Active; 'I' for Inactive)
REMARK    1  A    between atoms: N_1  and  C_18
REMARK    2  A    between atoms: N_2  and  C_8
REMARK    3  A    between atoms: C_11  and  C_17
REMARK    4  A    between atoms: C_18  and  C_19
REMARK    5  A    between atoms: C_19  and  C_21
REMARK    6  A    between atoms: C_21  and  C_22
REMARK    7  A    between atoms: C_25  and  N_30
REMARK    8  A    between atoms: C_26  and  O_31
REMARK    9  A    between atoms: C_27  and  O_33
REMARK                            x       y       z     vdW  Elec       q    Type
REMARK                         _______ _______ _______ _____ _____    ______ ____
ROOT
ATOM      1  N   UNL     1      35.416 -21.429 -18.668  0.00  0.00    +0.390 N 
ATOM      2  N   UNL     1      35.578 -22.819 -16.177  0.00  0.00    -0.312 N 
ATOM      3  C   UNL     1      36.714 -21.635 -18.014  0.00  0.00    -0.055 C 
ATOM      4  C   UNL     1      34.534 -22.571 -18.396  0.00  0.00    -0.055 C 
ATOM      5  C   UNL     1      36.552 -21.771 -16.498  0.00  0.00    +0.068 C 
ATOM      6  C   UNL     1      34.298 -22.739 -16.893  0.00  0.00    +0.068 C 
ATOM      7  H   UNL     1      34.987 -20.585 -18.289  0.00  0.00    -0.080 HD
ENDROOT
BRANCH   2   8
ATOM      8  C   UNL     1      35.584 -23.408 -14.907  0.00  0.00    +0.048 C 
ATOM      9  C   UNL     1      36.788 -23.837 -14.312  0.00  0.00    +0.018 C 
ATOM     10  C   UNL     1      34.387 -23.590 -14.186  0.00  0.00    +0.015 C 
ATOM     11  C   UNL     1      36.794 -24.424 -13.047  0.00  0.00    +0.073 C 
ATOM     12  C   UNL     1      34.393 -24.177 -12.920  0.00  0.00    +0.001 C 
ATOM     13  C   UNL     1      35.597 -24.594 -12.351  0.00  0.00    +0.004 C 
BRANCH  11  17
ATOM     14  F   UNL     1      38.593 -23.988 -11.531  0.00  0.00    -0.166 F 
ATOM     15  F   UNL     1      37.984 -26.057 -11.767  0.00  0.00    -0.166 F 
ATOM     16  F   UNL     1      39.063 -25.055 -13.367  0.00  0.00    -0.166 F 
ATOM     17  C   UNL     1      38.079 -24.872 -12.439  0.00  0.00    +0.419 C 
ENDBRANCH  11  17
ENDBRANCH   2   8
BRANCH   1  18
ATOM     18  C   UNL     1      35.590 -21.247 -20.107  0.00  0.00    -0.069 C 
BRANCH  18  19
ATOM     19  C   UNL     1      34.863 -19.994 -20.596  0.00  0.00    +0.046 C 
BRANCH  19  21
ATOM     20  O   UNL     1      36.943 -18.808 -20.302  0.00  0.00    -0.291 OA
ATOM     21  C   UNL     1      35.813 -18.820 -20.786  0.00  0.00    +0.171 C 
BRANCH  21  22
ATOM     22  C   UNL     1      35.352 -17.647 -21.587  0.00  0.00    +0.039 C 
ATOM     23  C   UNL     1      35.031 -16.483 -20.928  0.00  0.00    +0.030 C 
ATOM     24  C   UNL     1      35.266 -17.777 -22.954  0.00  0.00    +0.043 C 
ATOM     25  C   UNL     1      34.599 -15.389 -21.676  0.00  0.00    +0.179 C 
ATOM     26  C   UNL     1      34.836 -16.682 -23.704  0.00  0.00    +0.169 C 
ATOM     27  C   UNL     1      34.503 -15.488 -23.065  0.00  0.00    +0.190 C 
BRANCH  25  30
ATOM     28  O   UNL     1      35.081 -13.694 -20.189  0.00  0.00    -0.126 OA
ATOM     29  O   UNL     1      33.163 -13.634 -21.256  0.00  0.00    -0.126 OA
ATOM     30  N   UNL     1      34.264 -14.179 -21.007  0.00  0.00    +0.061 N 
ENDBRANCH  25  30
BRANCH  26  31
ATOM     31  O   UNL     1      34.745 -16.793 -25.058  0.00  0.00    -0.503 OA
ATOM     32  H   UNL     1      34.691 -17.640 -25.456  0.00  0.00    +0.292 HD
ENDBRANCH  26  31
BRANCH  27  33
ATOM     33  O   UNL     1      34.081 -14.423 -23.808  0.00  0.00    -0.502 OA
ATOM     34  H   UNL     1      33.391 -14.531 -24.432  0.00  0.00    +0.292 HD
ENDBRANCH  27  33
ENDBRANCH  21  22
ENDBRANCH  19  21
ENDBRANCH  18  19
ENDBRANCH   1  18
TORSDOF 9
ENDMDL
MODEL 9
REMARK VINA RESULT:     -10.4      6.934     11.191
REMARK  Name = 4369285
REMARK  9 active torsions:
REMARK  status: ('A' for Active; 'I' for Inactive)
REMARK    1  A    between atoms: N_1  and  C_18
REMARK    2  A    between atoms: N_2  and  C_8
REMARK    3  A    between atoms: C_11  and  C_17
REMARK    4  A    between atoms: C_18  and  C_19
REMARK    5  A    between atoms: C_19  and  C_21
REMARK    6  A    between atoms: C_21  and  C_22
REMARK    7  A    between atoms: C_25  and  N_30
REMARK    8  A    between atoms: C_26  and  O_31
REMARK    9  A    between atoms: C_27  and  O_33
REMARK                            x       y       z     vdW  Elec       q    Type
REMARK                         _______ _______ _______ _____ _____    ______ ____
ROOT
ATOM      1  N   UNL     1      35.158 -17.391 -23.492  0.00  0.00    +0.390 N 
ATOM      2  N   UNL     1      35.344 -19.190 -21.281  0.00  0.00    -0.312 N 
ATOM      3  C   UNL     1      34.342 -18.611 -23.456  0.00  0.00    -0.055 C 
ATOM      4  C   UNL     1      35.347 -16.876 -22.130  0.00  0.00    -0.055 C 
ATOM      5  C   UNL     1      35.017 -19.699 -22.617  0.00  0.00    +0.068 C 
ATOM      6  C   UNL     1      36.056 -17.906 -21.247  0.00  0.00    +0.068 C 
ATOM      7  H   UNL     1      36.070 -17.617 -23.889  0.00  0.00    -0.080 HD
ENDROOT
BRANCH   2   8
ATOM      8  C   UNL     1      35.558 -20.088 -20.229  0.00  0.00    +0.048 C 
ATOM      9  C   UNL     1      34.500 -20.861 -19.708  0.00  0.00    +0.018 C 
ATOM     10  C   UNL     1      36.837 -20.246 -19.659  0.00  0.00    +0.015 C 
ATOM     11  C   UNL     1      34.714 -21.755 -18.660  0.00  0.00    +0.073 C 
ATOM     12  C   UNL     1      37.050 -21.141 -18.610  0.00  0.00    +0.001 C 
ATOM     13  C   UNL     1      35.988 -21.895 -18.110  0.00  0.00    +0.004 C 
BRANCH  11  17
ATOM     14  F   UNL     1      32.352 -22.018 -18.382  0.00  0.00    -0.166 F 
ATOM     15  F   UNL     1      33.521 -23.828 -18.629  0.00  0.00    -0.166 F 
ATOM     16  F   UNL     1      33.635 -22.709 -16.768  0.00  0.00    -0.166 F 
ATOM     17  C   UNL     1      33.579 -22.561 -18.124  0.00  0.00    +0.419 C 
ENDBRANCH  11  17
ENDBRANCH   2   8
BRANCH   1  18
ATOM     18  C   UNL     1      34.529 -16.379 -24.340  0.00  0.00    -0.069 C 
BRANCH  18  19
ATOM     19  C   UNL     1      34.452 -15.031 -23.623  0.00  0.00    +0.046 C 
BRANCH  19  21
ATOM     20  O   UNL     1      32.970 -14.324 -25.389  0.00  0.00    -0.291 OA
ATOM     21  C   UNL     1      33.461 -14.086 -24.287  0.00  0.00    +0.171 C 
BRANCH  21  22
ATOM     22  C   UNL     1      33.077 -12.832 -23.573  0.00  0.00    +0.039 C 
ATOM     23  C   UNL     1      33.751 -11.671 -23.871  0.00  0.00    +0.030 C 
ATOM     24  C   UNL     1      32.063 -12.888 -22.644  0.00  0.00    +0.043 C 
ATOM     25  C   UNL     1      33.392 -10.501 -23.203  0.00  0.00    +0.179 C 
ATOM     26  C   UNL     1      31.703 -11.718 -21.977  0.00  0.00    +0.169 C 
ATOM     27  C   UNL     1      32.368 -10.524 -22.256  0.00  0.00    +0.190 C 
BRANCH  25  30
ATOM     28  O   UNL     1      35.334  -9.288 -23.479  0.00  0.00    -0.126 OA
ATOM     29  O   UNL     1      33.414  -8.268 -23.777  0.00  0.00    -0.126 OA
ATOM     30  N   UNL     1      34.081  -9.292 -23.501  0.00  0.00    +0.061 N 
ENDBRANCH  25  30
BRANCH  26  31
ATOM     31  O   UNL     1      30.702 -11.755 -21.054  0.00  0.00    -0.503 OA
ATOM     32  H   UNL     1      29.809 -11.819 -21.333  0.00  0.00    +0.292 HD
ENDBRANCH  26  31
BRANCH  27  33
ATOM     33  O   UNL     1      32.009  -9.384 -21.596  0.00  0.00    -0.502 OA
ATOM     34  H   UNL     1      31.103  -9.161 -21.505  0.00  0.00    +0.292 HD
ENDBRANCH  27  33
ENDBRANCH  21  22
ENDBRANCH  19  21
ENDBRANCH  18  19
ENDBRANCH   1  18
TORSDOF 9
ENDMDL
