MODEL 1
REMARK VINA RESULT:     -10.3      0.000      0.000
REMARK  Name = 2742752
REMARK  5 active torsions:
REMARK  status: ('A' for Active; 'I' for Inactive)
REMARK    1  A    between atoms: N_1  and  C_7
REMARK    2  A    between atoms: C_3  and  N_18
REMARK    3  A    between atoms: C_5  and  C_14
REMARK    4  A    between atoms: N_18  and  S_20
REMARK    5  A    between atoms: S_20  and  C_24
REMARK                            x       y       z     vdW  Elec       q    Type
REMARK                         _______ _______ _______ _____ _____    ______ ____
ROOT
ATOM      1  N   UNL     1      34.722 -23.783 -15.500  0.00  0.00    -0.175 N 
ATOM      2  N   UNL     1      35.251 -23.006 -16.470  0.00  0.00    -0.172 NA
ATOM      3  C   UNL     1      33.369 -23.959 -15.632  0.00  0.00    +0.141 C 
ATOM      4  C   UNL     1      32.997 -23.256 -16.753  0.00  0.00    +0.054 C 
ATOM      5  C   UNL     1      34.196 -22.691 -17.227  0.00  0.00    +0.108 C 
ENDROOT
BRANCH   1   7
ATOM      6  F   UNL     1      37.934 -25.890 -11.548  0.00  0.00    -0.204 F 
ATOM      7  C   UNL     1      35.527 -24.311 -14.508  0.00  0.00    +0.075 C 
ATOM      8  C   UNL     1      35.769 -23.582 -13.344  0.00  0.00    +0.019 C 
ATOM      9  C   UNL     1      36.098 -25.573 -14.672  0.00  0.00    +0.019 C 
ATOM     10  C   UNL     1      36.583 -24.115 -12.344  0.00  0.00    +0.031 C 
ATOM     11  C   UNL     1      36.912 -26.107 -13.673  0.00  0.00    +0.031 C 
ATOM     12  C   UNL     1      37.154 -25.377 -12.508  0.00  0.00    +0.140 C 
ENDBRANCH   1   7
BRANCH   5  14
ATOM     13  S   UNL     1      35.829 -21.403 -19.121  0.00  0.00    -0.085 S 
ATOM     14  C   UNL     1      34.326 -21.838 -18.423  0.00  0.00    +0.049 C 
ATOM     15  C   UNL     1      33.261 -21.296 -19.111  0.00  0.00    +0.009 C 
ATOM     16  C   UNL     1      33.686 -20.515 -20.225  0.00  0.00    +0.008 C 
ATOM     17  C   UNL     1      35.058 -20.489 -20.347  0.00  0.00    +0.035 C 
ENDBRANCH   5  14
BRANCH   3  18
ATOM     18  N   UNL     1      32.495 -24.730 -14.769  0.00  0.00    -0.201 N 
ATOM     19  H   UNL     1      32.443 -25.711 -14.823  0.00  0.00    +0.175 HD
BRANCH  18  20
ATOM     20  S   UNL     1      31.549 -23.823 -13.642  0.00  0.00    +0.075 S 
ATOM     21  O   UNL     1      32.172 -22.531 -13.424  0.00  0.00    -0.150 OA
ATOM     22  O   UNL     1      31.190 -24.665 -12.518  0.00  0.00    -0.150 OA
BRANCH  20  24
ATOM     23  F   UNL     1      27.959 -25.315 -16.929  0.00  0.00    -0.204 F 
ATOM     24  C   UNL     1      30.070 -23.554 -14.575  0.00  0.00    +0.127 C 
ATOM     25  C   UNL     1      29.598 -24.562 -15.396  0.00  0.00    +0.050 C 
ATOM     26  C   UNL     1      29.413 -22.342 -14.462  0.00  0.00    +0.020 C 
ATOM     27  C   UNL     1      28.430 -24.352 -16.128  0.00  0.00    +0.141 C 
ATOM     28  C   UNL     1      28.245 -22.131 -15.194  0.00  0.00    +0.004 C 
ATOM     29  C   UNL     1      27.754 -23.135 -16.027  0.00  0.00    +0.030 C 
ENDBRANCH  20  24
ENDBRANCH  18  20
ENDBRANCH   3  18
TORSDOF 5
ENDMDL
MODEL 2
REMARK VINA RESULT:     -10.1      2.897      7.623
REMARK  Name = 2742752
REMARK  5 active torsions:
REMARK  status: ('A' for Active; 'I' for Inactive)
REMARK    1  A    between atoms: N_1  and  C_7
REMARK    2  A    between atoms: C_3  and  N_18
REMARK    3  A    between atoms: C_5  and  C_14
REMARK    4  A    between atoms: N_18  and  S_20
REMARK    5  A    between atoms: S_20  and  C_24
REMARK                            x       y       z     vdW  Elec       q    Type
REMARK                         _______ _______ _______ _____ _____    ______ ____
ROOT
ATOM      1  N   UNL     1      33.374 -22.305 -17.720  0.00  0.00    -0.175 N 
ATOM      2  N   UNL     1      32.042 -22.368 -17.505  0.00  0.00    -0.172 NA
ATOM      3  C   UNL     1      34.098 -23.035 -16.814  0.00  0.00    +0.141 C 
ATOM      4  C   UNL     1      33.185 -23.607 -15.962  0.00  0.00    +0.054 C 
ATOM      5  C   UNL     1      31.936 -23.161 -16.435  0.00  0.00    +0.108 C 
ENDROOT
BRANCH   1   7
ATOM      6  F   UNL     1      35.393 -19.328 -21.896  0.00  0.00    -0.204 F 
ATOM      7  C   UNL     1      33.881 -21.558 -18.768  0.00  0.00    +0.075 C 
ATOM      8  C   UNL     1      35.247 -21.584 -19.046  0.00  0.00    +0.019 C 
ATOM      9  C   UNL     1      33.025 -20.780 -19.547  0.00  0.00    +0.019 C 
ATOM     10  C   UNL     1      35.758 -20.829 -20.102  0.00  0.00    +0.031 C 
ATOM     11  C   UNL     1      33.535 -20.026 -20.604  0.00  0.00    +0.031 C 
ATOM     12  C   UNL     1      34.902 -20.051 -20.881  0.00  0.00    +0.140 C 
ENDBRANCH   1   7
BRANCH   5  14
ATOM     13  S   UNL     1      30.362 -24.867 -14.847  0.00  0.00    -0.085 S 
ATOM     14  C   UNL     1      30.627 -23.504 -15.851  0.00  0.00    +0.049 C 
ATOM     15  C   UNL     1      29.473 -22.773 -16.043  0.00  0.00    +0.009 C 
ATOM     16  C   UNL     1      28.360 -23.339 -15.357  0.00  0.00    +0.008 C 
ATOM     17  C   UNL     1      28.703 -24.482 -14.667  0.00  0.00    +0.035 C 
ENDBRANCH   5  14
BRANCH   3  18
ATOM     18  N   UNL     1      35.540 -23.184 -16.757  0.00  0.00    -0.201 N 
ATOM     19  H   UNL     1      36.058 -23.535 -17.516  0.00  0.00    +0.175 HD
BRANCH  18  20
ATOM     20  S   UNL     1      36.293 -22.709 -15.276  0.00  0.00    +0.075 S 
ATOM     21  O   UNL     1      35.270 -22.370 -14.305  0.00  0.00    -0.150 OA
ATOM     22  O   UNL     1      37.377 -21.786 -15.554  0.00  0.00    -0.150 OA
BRANCH  20  24
ATOM     23  F   UNL     1      40.255 -25.483 -13.687  0.00  0.00    -0.204 F 
ATOM     24  C   UNL     1      37.035 -24.232 -14.765  0.00  0.00    +0.127 C 
ATOM     25  C   UNL     1      38.375 -24.248 -14.424  0.00  0.00    +0.050 C 
ATOM     26  C   UNL     1      36.258 -25.375 -14.714  0.00  0.00    +0.020 C 
ATOM     27  C   UNL     1      38.959 -25.447 -14.019  0.00  0.00    +0.141 C 
ATOM     28  C   UNL     1      36.841 -26.576 -14.309  0.00  0.00    +0.004 C 
ATOM     29  C   UNL     1      38.192 -26.612 -13.961  0.00  0.00    +0.030 C 
ENDBRANCH  20  24
ENDBRANCH  18  20
ENDBRANCH   3  18
TORSDOF 5
ENDMDL
MODEL 3
REMARK VINA RESULT:     -10.0     13.071     16.221
REMARK  Name = 2742752
REMARK  5 active torsions:
REMARK  status: ('A' for Active; 'I' for Inactive)
REMARK    1  A    between atoms: N_1  and  C_7
REMARK    2  A    between atoms: C_3  and  N_18
REMARK    3  A    between atoms: C_5  and  C_14
REMARK    4  A    between atoms: N_18  and  S_20
REMARK    5  A    between atoms: S_20  and  C_24
REMARK                            x       y       z     vdW  Elec       q    Type
REMARK                         _______ _______ _______ _____ _____    ______ ____
ROOT
ATOM      1  N   UNL     1      32.882 -10.827 -23.203  0.00  0.00    -0.175 N 
ATOM      2  N   UNL     1      33.655 -11.788 -23.752  0.00  0.00    -0.172 NA
ATOM      3  C   UNL     1      31.959 -11.321 -22.318  0.00  0.00    +0.141 C 
ATOM      4  C   UNL     1      32.144 -12.683 -22.290  0.00  0.00    +0.054 C 
ATOM      5  C   UNL     1      33.200 -12.913 -23.192  0.00  0.00    +0.108 C 
ENDROOT
BRANCH   1   7
ATOM      6  F   UNL     1      33.604  -5.539 -24.577  0.00  0.00    -0.204 F 
ATOM      7  C   UNL     1      33.063  -9.500 -23.548  0.00  0.00    +0.075 C 
ATOM      8  C   UNL     1      32.110  -8.846 -24.329  0.00  0.00    +0.019 C 
ATOM      9  C   UNL     1      34.198  -8.815 -23.114  0.00  0.00    +0.019 C 
ATOM     10  C   UNL     1      32.294  -7.509 -24.678  0.00  0.00    +0.031 C 
ATOM     11  C   UNL     1      34.382  -7.477 -23.461  0.00  0.00    +0.031 C 
ATOM     12  C   UNL     1      33.429  -6.824 -24.244  0.00  0.00    +0.140 C 
ENDBRANCH   1   7
BRANCH   5  14
ATOM     13  S   UNL     1      33.484 -15.060 -24.986  0.00  0.00    -0.085 S 
ATOM     14  C   UNL     1      33.777 -14.230 -23.516  0.00  0.00    +0.049 C 
ATOM     15  C   UNL     1      34.613 -14.940 -22.681  0.00  0.00    +0.009 C 
ATOM     16  C   UNL     1      35.016 -16.180 -23.255  0.00  0.00    +0.008 C 
ATOM     17  C   UNL     1      34.475 -16.372 -24.508  0.00  0.00    +0.035 C 
ENDBRANCH   5  14
BRANCH   3  18
ATOM     18  N   UNL     1      30.980 -10.569 -21.558  0.00  0.00    -0.201 N 
ATOM     19  H   UNL     1      30.089 -10.360 -21.918  0.00  0.00    +0.175 HD
BRANCH  18  20
ATOM     20  S   UNL     1      31.471 -10.061 -19.980  0.00  0.00    +0.075 S 
ATOM     21  O   UNL     1      32.692 -10.753 -19.613  0.00  0.00    -0.150 OA
ATOM     22  O   UNL     1      30.328 -10.064 -19.089  0.00  0.00    -0.150 OA
BRANCH  20  24
ATOM     23  F   UNL     1      30.644  -5.538 -22.165  0.00  0.00    -0.204 F 
ATOM     24  C   UNL     1      31.884  -8.367 -20.280  0.00  0.00    +0.127 C 
ATOM     25  C   UNL     1      31.083  -7.616 -21.120  0.00  0.00    +0.050 C 
ATOM     26  C   UNL     1      32.999  -7.827 -19.665  0.00  0.00    +0.020 C 
ATOM     27  C   UNL     1      31.407  -6.280 -21.353  0.00  0.00    +0.141 C 
ATOM     28  C   UNL     1      33.324  -6.491 -19.898  0.00  0.00    +0.004 C 
ATOM     29  C   UNL     1      32.528  -5.717 -20.742  0.00  0.00    +0.030 C 
ENDBRANCH  20  24
ENDBRANCH  18  20
ENDBRANCH   3  18
TORSDOF 5
ENDMDL
MODEL 4
REMARK VINA RESULT:      -9.8      3.129      6.486
REMARK  Name = 2742752
REMARK  5 active torsions:
REMARK  status: ('A' for Active; 'I' for Inactive)
REMARK    1  A    between atoms: N_1  and  C_7
REMARK    2  A    between atoms: C_3  and  N_18
REMARK    3  A    between atoms: C_5  and  C_14
REMARK    4  A    between atoms: N_18  and  S_20
REMARK    5  A    between atoms: S_20  and  C_24
REMARK                            x       y       z     vdW  Elec       q    Type
REMARK                         _______ _______ _______ _____ _____    ______ ____
ROOT
ATOM      1  N   UNL     1      34.281 -23.720 -15.547  0.00  0.00    -0.175 N 
ATOM      2  N   UNL     1      33.234 -24.223 -14.859  0.00  0.00    -0.172 NA
ATOM      3  C   UNL     1      33.900 -22.955 -16.618  0.00  0.00    +0.141 C 
ATOM      4  C   UNL     1      32.526 -22.961 -16.626  0.00  0.00    +0.054 C 
ATOM      5  C   UNL     1      32.172 -23.757 -15.521  0.00  0.00    +0.108 C 
ENDROOT
BRANCH   1   7
ATOM      6  F   UNL     1      39.448 -24.807 -13.968  0.00  0.00    -0.204 F 
ATOM      7  C   UNL     1      35.577 -23.992 -15.150  0.00  0.00    +0.075 C 
ATOM      8  C   UNL     1      36.552 -22.997 -15.219  0.00  0.00    +0.019 C 
ATOM      9  C   UNL     1      35.911 -25.263 -14.682  0.00  0.00    +0.019 C 
ATOM     10  C   UNL     1      37.860 -23.272 -14.821  0.00  0.00    +0.031 C 
ATOM     11  C   UNL     1      37.218 -25.539 -14.283  0.00  0.00    +0.031 C 
ATOM     12  C   UNL     1      38.193 -24.543 -14.353  0.00  0.00    +0.140 C 
ENDBRANCH   1   7
BRANCH   5  14
ATOM     13  S   UNL     1      30.388 -25.400 -14.096  0.00  0.00    -0.085 S 
ATOM     14  C   UNL     1      30.795 -24.072 -15.099  0.00  0.00    +0.049 C 
ATOM     15  C   UNL     1      29.684 -23.339 -15.459  0.00  0.00    +0.009 C 
ATOM     16  C   UNL     1      28.485 -23.875 -14.905  0.00  0.00    +0.008 C 
ATOM     17  C   UNL     1      28.724 -24.997 -14.142  0.00  0.00    +0.035 C 
ENDBRANCH   5  14
BRANCH   3  18
ATOM     18  N   UNL     1      34.763 -22.270 -17.561  0.00  0.00    -0.201 N 
ATOM     19  H   UNL     1      35.597 -21.830 -17.279  0.00  0.00    +0.175 HD
BRANCH  18  20
ATOM     20  S   UNL     1      34.241 -22.272 -19.208  0.00  0.00    +0.075 S 
ATOM     21  O   UNL     1      32.841 -21.895 -19.267  0.00  0.00    -0.150 OA
ATOM     22  O   UNL     1      34.707 -23.477 -19.866  0.00  0.00    -0.150 OA
BRANCH  20  24
ATOM     23  F   UNL     1      34.799 -18.205 -22.220  0.00  0.00    -0.204 F 
ATOM     24  C   UNL     1      35.186 -20.930 -19.869  0.00  0.00    +0.127 C 
ATOM     25  C   UNL     1      34.603 -20.088 -20.799  0.00  0.00    +0.050 C 
ATOM     26  C   UNL     1      36.488 -20.747 -19.440  0.00  0.00    +0.020 C 
ATOM     27  C   UNL     1      35.346 -19.029 -21.317  0.00  0.00    +0.141 C 
ATOM     28  C   UNL     1      37.232 -19.688 -19.958  0.00  0.00    +0.004 C 
ATOM     29  C   UNL     1      36.662 -18.829 -20.897  0.00  0.00    +0.030 C 
ENDBRANCH  20  24
ENDBRANCH  18  20
ENDBRANCH   3  18
TORSDOF 5
ENDMDL
MODEL 5
REMARK VINA RESULT:      -9.7      2.702      5.349
REMARK  Name = 2742752
REMARK  5 active torsions:
REMARK  status: ('A' for Active; 'I' for Inactive)
REMARK    1  A    between atoms: N_1  and  C_7
REMARK    2  A    between atoms: C_3  and  N_18
REMARK    3  A    between atoms: C_5  and  C_14
REMARK    4  A    between atoms: N_18  and  S_20
REMARK    5  A    between atoms: S_20  and  C_24
REMARK                            x       y       z     vdW  Elec       q    Type
REMARK                         _______ _______ _______ _____ _____    ______ ____
ROOT
ATOM      1  N   UNL     1      35.122 -23.127 -16.169  0.00  0.00    -0.175 N 
ATOM      2  N   UNL     1      36.342 -23.545 -15.769  0.00  0.00    -0.172 NA
ATOM      3  C   UNL     1      34.125 -23.466 -15.291  0.00  0.00    +0.141 C 
ATOM      4  C   UNL     1      34.733 -24.144 -14.262  0.00  0.00    +0.054 C 
ATOM      5  C   UNL     1      36.097 -24.161 -14.610  0.00  0.00    +0.108 C 
ENDROOT
BRANCH   1   7
ATOM      6  F   UNL     1      34.522 -20.356 -20.895  0.00  0.00    -0.204 F 
ATOM      7  C   UNL     1      34.972 -22.432 -17.355  0.00  0.00    +0.075 C 
ATOM      8  C   UNL     1      36.064 -21.773 -17.920  0.00  0.00    +0.019 C 
ATOM      9  C   UNL     1      33.728 -22.389 -17.985  0.00  0.00    +0.019 C 
ATOM     10  C   UNL     1      35.911 -21.071 -19.116  0.00  0.00    +0.031 C 
ATOM     11  C   UNL     1      33.576 -21.688 -19.180  0.00  0.00    +0.031 C 
ATOM     12  C   UNL     1      34.668 -21.028 -19.746  0.00  0.00    +0.140 C 
ENDBRANCH   1   7
BRANCH   5  14
ATOM     13  S   UNL     1      36.973 -25.335 -12.208  0.00  0.00    -0.085 S 
ATOM     14  C   UNL     1      37.175 -24.779 -13.816  0.00  0.00    +0.049 C 
ATOM     15  C   UNL     1      38.461 -24.978 -14.272  0.00  0.00    +0.009 C 
ATOM     16  C   UNL     1      39.289 -25.595 -13.290  0.00  0.00    +0.008 C 
ATOM     17  C   UNL     1      38.605 -25.844 -12.119  0.00  0.00    +0.035 C 
ENDBRANCH   5  14
BRANCH   3  18
ATOM     18  N   UNL     1      32.710 -23.175 -15.413  0.00  0.00    -0.201 N 
ATOM     19  H   UNL     1      32.347 -22.657 -16.166  0.00  0.00    +0.175 HD
BRANCH  18  20
ATOM     20  S   UNL     1      31.698 -23.791 -14.155  0.00  0.00    +0.075 S 
ATOM     21  O   UNL     1      31.822 -22.946 -12.982  0.00  0.00    -0.150 OA
ATOM     22  O   UNL     1      31.871 -25.227 -14.048  0.00  0.00    -0.150 OA
BRANCH  20  24
ATOM     23  F   UNL     1      27.751 -25.156 -17.067  0.00  0.00    -0.204 F 
ATOM     24  C   UNL     1      30.091 -23.519 -14.844  0.00  0.00    +0.127 C 
ATOM     25  C   UNL     1      29.554 -24.465 -15.697  0.00  0.00    +0.050 C 
ATOM     26  C   UNL     1      29.403 -22.365 -14.513  0.00  0.00    +0.020 C 
ATOM     27  C   UNL     1      28.287 -24.252 -16.238  0.00  0.00    +0.141 C 
ATOM     28  C   UNL     1      28.136 -22.151 -15.054  0.00  0.00    +0.004 C 
ATOM     29  C   UNL     1      27.577 -23.094 -15.916  0.00  0.00    +0.030 C 
ENDBRANCH  20  24
ENDBRANCH  18  20
ENDBRANCH   3  18
TORSDOF 5
ENDMDL
MODEL 6
REMARK VINA RESULT:      -9.7      3.289      7.289
REMARK  Name = 2742752
REMARK  5 active torsions:
REMARK  status: ('A' for Active; 'I' for Inactive)
REMARK    1  A    between atoms: N_1  and  C_7
REMARK    2  A    between atoms: C_3  and  N_18
REMARK    3  A    between atoms: C_5  and  C_14
REMARK    4  A    between atoms: N_18  and  S_20
REMARK    5  A    between atoms: S_20  and  C_24
REMARK                            x       y       z     vdW  Elec       q    Type
REMARK                         _______ _______ _______ _____ _____    ______ ____
ROOT
ATOM      1  N   UNL     1      32.446 -23.606 -14.900  0.00  0.00    -0.175 N 
ATOM      2  N   UNL     1      32.981 -24.124 -13.773  0.00  0.00    -0.172 NA
ATOM      3  C   UNL     1      33.391 -23.236 -15.821  0.00  0.00    +0.141 C 
ATOM      4  C   UNL     1      34.611 -23.530 -15.260  0.00  0.00    +0.054 C 
ATOM      5  C   UNL     1      34.296 -24.074 -14.001  0.00  0.00    +0.108 C 
ENDROOT
BRANCH   1   7
ATOM      6  F   UNL     1      26.980 -23.161 -15.449  0.00  0.00    -0.204 F 
ATOM      7  C   UNL     1      31.075 -23.494 -15.038  0.00  0.00    +0.075 C 
ATOM      8  C   UNL     1      30.420 -22.346 -14.591  0.00  0.00    +0.019 C 
ATOM      9  C   UNL     1      30.346 -24.529 -15.624  0.00  0.00    +0.019 C 
ATOM     10  C   UNL     1      29.037 -22.234 -14.729  0.00  0.00    +0.031 C 
ATOM     11  C   UNL     1      28.963 -24.417 -15.763  0.00  0.00    +0.031 C 
ATOM     12  C   UNL     1      28.308 -23.269 -15.315  0.00  0.00    +0.140 C 
ENDBRANCH   1   7
BRANCH   5  14
ATOM     13  S   UNL     1      36.673 -25.455 -13.407  0.00  0.00    -0.085 S 
ATOM     14  C   UNL     1      35.274 -24.551 -13.006  0.00  0.00    +0.049 C 
ATOM     15  C   UNL     1      35.177 -24.325 -11.649  0.00  0.00    +0.009 C 
ATOM     16  C   UNL     1      36.264 -24.902 -10.931  0.00  0.00    +0.008 C 
ATOM     17  C   UNL     1      37.152 -25.547 -11.765  0.00  0.00    +0.035 C 
ENDBRANCH   5  14
BRANCH   3  18
ATOM     18  N   UNL     1      33.163 -22.651 -17.128  0.00  0.00    -0.201 N 
ATOM     19  H   UNL     1      32.347 -22.142 -17.336  0.00  0.00    +0.175 HD
BRANCH  18  20
ATOM     20  S   UNL     1      34.409 -22.900 -18.299  0.00  0.00    +0.075 S 
ATOM     21  O   UNL     1      34.090 -24.069 -19.098  0.00  0.00    -0.150 OA
ATOM     22  O   UNL     1      35.707 -22.775 -17.665  0.00  0.00    -0.150 OA
BRANCH  20  24
ATOM     23  F   UNL     1      36.224 -19.169 -21.250  0.00  0.00    -0.204 F 
ATOM     24  C   UNL     1      34.202 -21.475 -19.328  0.00  0.00    +0.127 C 
ATOM     25  C   UNL     1      35.318 -20.880 -19.888  0.00  0.00    +0.050 C 
ATOM     26  C   UNL     1      32.928 -20.987 -19.553  0.00  0.00    +0.020 C 
ATOM     27  C   UNL     1      35.155 -19.759 -20.700  0.00  0.00    +0.141 C 
ATOM     28  C   UNL     1      32.764 -19.865 -20.366  0.00  0.00    +0.004 C 
ATOM     29  C   UNL     1      33.878 -19.251 -20.940  0.00  0.00    +0.030 C 
ENDBRANCH  20  24
ENDBRANCH  18  20
ENDBRANCH   3  18
TORSDOF 5
ENDMDL
MODEL 7
REMARK VINA RESULT:      -9.6      3.278      7.289
REMARK  Name = 2742752
REMARK  5 active torsions:
REMARK  status: ('A' for Active; 'I' for Inactive)
REMARK    1  A    between atoms: N_1  and  C_7
REMARK    2  A    between atoms: C_3  and  N_18
REMARK    3  A    between atoms: C_5  and  C_14
REMARK    4  A    between atoms: N_18  and  S_20
REMARK    5  A    between atoms: S_20  and  C_24
REMARK                            x       y       z     vdW  Elec       q    Type
REMARK                         _______ _______ _______ _____ _____    ______ ____
ROOT
ATOM      1  N   UNL     1      33.363 -23.646 -15.427  0.00  0.00    -0.175 N 
ATOM      2  N   UNL     1      34.094 -24.472 -14.648  0.00  0.00    -0.172 NA
ATOM      3  C   UNL     1      34.131 -22.893 -16.277  0.00  0.00    +0.141 C 
ATOM      4  C   UNL     1      35.435 -23.251 -16.036  0.00  0.00    +0.054 C 
ATOM      5  C   UNL     1      35.352 -24.226 -15.024  0.00  0.00    +0.108 C 
ENDROOT
BRANCH   1   7
ATOM      6  F   UNL     1      27.869 -23.539 -15.009  0.00  0.00    -0.204 F 
ATOM      7  C   UNL     1      31.985 -23.619 -15.321  0.00  0.00    +0.075 C 
ATOM      8  C   UNL     1      31.344 -24.385 -14.347  0.00  0.00    +0.019 C 
ATOM      9  C   UNL     1      31.235 -22.826 -16.190  0.00  0.00    +0.019 C 
ATOM     10  C   UNL     1      29.954 -24.359 -14.242  0.00  0.00    +0.031 C 
ATOM     11  C   UNL     1      29.844 -22.799 -16.085  0.00  0.00    +0.031 C 
ATOM     12  C   UNL     1      29.204 -23.566 -15.111  0.00  0.00    +0.140 C 
ENDBRANCH   1   7
BRANCH   5  14
ATOM     13  S   UNL     1      37.509 -24.234 -13.220  0.00  0.00    -0.085 S 
ATOM     14  C   UNL     1      36.496 -24.928 -14.415  0.00  0.00    +0.049 C 
ATOM     15  C   UNL     1      36.880 -26.213 -14.734  0.00  0.00    +0.009 C 
ATOM     16  C   UNL     1      38.019 -26.632 -13.988  0.00  0.00    +0.008 C 
ATOM     17  C   UNL     1      38.463 -25.653 -13.126  0.00  0.00    +0.035 C 
ENDBRANCH   5  14
BRANCH   3  18
ATOM     18  N   UNL     1      33.670 -21.912 -17.241  0.00  0.00    -0.201 N 
ATOM     19  H   UNL     1      33.312 -21.038 -16.965  0.00  0.00    +0.175 HD
BRANCH  18  20
ATOM     20  S   UNL     1      33.788 -22.370 -18.903  0.00  0.00    +0.075 S 
ATOM     21  O   UNL     1      32.517 -22.123 -19.559  0.00  0.00    -0.150 OA
ATOM     22  O   UNL     1      34.431 -23.665 -19.009  0.00  0.00    -0.150 OA
BRANCH  20  24
ATOM     23  F   UNL     1      35.052 -18.399 -21.828  0.00  0.00    -0.204 F 
ATOM     24  C   UNL     1      34.944 -21.174 -19.507  0.00  0.00    +0.127 C 
ATOM     25  C   UNL     1      34.527 -20.247 -20.445  0.00  0.00    +0.050 C 
ATOM     26  C   UNL     1      36.240 -21.188 -19.026  0.00  0.00    +0.020 C 
ATOM     27  C   UNL     1      35.437 -19.303 -20.918  0.00  0.00    +0.141 C 
ATOM     28  C   UNL     1      37.151 -20.243 -19.499  0.00  0.00    +0.004 C 
ATOM     29  C   UNL     1      36.750 -19.301 -20.445  0.00  0.00    +0.030 C 
ENDBRANCH  20  24
ENDBRANCH  18  20
ENDBRANCH   3  18
TORSDOF 5
ENDMDL
MODEL 8
REMARK VINA RESULT:      -9.5      3.046      7.134
REMARK  Name = 2742752
REMARK  5 active torsions:
REMARK  status: ('A' for Active; 'I' for Inactive)
REMARK    1  A    between atoms: N_1  and  C_7
REMARK    2  A    between atoms: C_3  and  N_18
REMARK    3  A    between atoms: C_5  and  C_14
REMARK    4  A    between atoms: N_18  and  S_20
REMARK    5  A    between atoms: S_20  and  C_24
REMARK                            x       y       z     vdW  Elec       q    Type
REMARK                         _______ _______ _______ _____ _____    ______ ____
ROOT
ATOM      1  N   UNL     1      33.662 -22.613 -16.869  0.00  0.00    -0.175 N 
ATOM      2  N   UNL     1      32.380 -23.038 -16.864  0.00  0.00    -0.172 NA
ATOM      3  C   UNL     1      34.314 -22.864 -15.690  0.00  0.00    +0.141 C 
ATOM      4  C   UNL     1      33.404 -23.489 -14.872  0.00  0.00    +0.054 C 
ATOM      5  C   UNL     1      32.232 -23.570 -15.647  0.00  0.00    +0.108 C 
ENDROOT
BRANCH   1   7
ATOM      6  F   UNL     1      35.773 -20.150 -21.324  0.00  0.00    -0.204 F 
ATOM      7  C   UNL     1      34.192 -21.995 -17.987  0.00  0.00    +0.075 C 
ATOM      8  C   UNL     1      35.570 -22.004 -18.201  0.00  0.00    +0.019 C 
ATOM      9  C   UNL     1      33.348 -21.363 -18.900  0.00  0.00    +0.019 C 
ATOM     10  C   UNL     1      36.104 -21.379 -19.328  0.00  0.00    +0.031 C 
ATOM     11  C   UNL     1      33.881 -20.739 -20.027  0.00  0.00    +0.031 C 
ATOM     12  C   UNL     1      35.261 -20.747 -20.241  0.00  0.00    +0.140 C 
ENDBRANCH   1   7
BRANCH   5  14
ATOM     13  S   UNL     1      29.421 -23.601 -15.720  0.00  0.00    -0.085 S 
ATOM     14  C   UNL     1      30.956 -24.165 -15.211  0.00  0.00    +0.049 C 
ATOM     15  C   UNL     1      30.852 -25.236 -14.349  0.00  0.00    +0.009 C 
ATOM     16  C   UNL     1      29.495 -25.598 -14.105  0.00  0.00    +0.008 C 
ATOM     17  C   UNL     1      28.613 -24.790 -14.789  0.00  0.00    +0.035 C 
ENDBRANCH   5  14
BRANCH   3  18
ATOM     18  N   UNL     1      35.689 -22.541 -15.360  0.00  0.00    -0.201 N 
ATOM     19  H   UNL     1      36.027 -21.617 -15.382  0.00  0.00    +0.175 HD
BRANCH  18  20
ATOM     20  S   UNL     1      36.699 -23.874 -14.925  0.00  0.00    +0.075 S 
ATOM     21  O   UNL     1      38.062 -23.596 -15.335  0.00  0.00    -0.150 OA
ATOM     22  O   UNL     1      36.056 -25.117 -15.304  0.00  0.00    -0.150 OA
BRANCH  20  24
ATOM     23  F   UNL     1      35.011 -25.443 -10.385  0.00  0.00    -0.204 F 
ATOM     24  C   UNL     1      36.642 -23.785 -13.159  0.00  0.00    +0.127 C 
ATOM     25  C   UNL     1      35.832 -24.666 -12.465  0.00  0.00    +0.050 C 
ATOM     26  C   UNL     1      37.410 -22.838 -12.507  0.00  0.00    +0.020 C 
ATOM     27  C   UNL     1      35.790 -24.598 -11.073  0.00  0.00    +0.141 C 
ATOM     28  C   UNL     1      37.367 -22.768 -11.114  0.00  0.00    +0.004 C 
ATOM     29  C   UNL     1      36.557 -23.649 -10.398  0.00  0.00    +0.030 C 
ENDBRANCH  20  24
ENDBRANCH  18  20
ENDBRANCH   3  18
TORSDOF 5
ENDMDL
MODEL 9
REMARK VINA RESULT:      -9.2      1.965      6.323
REMARK  Name = 2742752
REMARK  5 active torsions:
REMARK  status: ('A' for Active; 'I' for Inactive)
REMARK    1  A    between atoms: N_1  and  C_7
REMARK    2  A    between atoms: C_3  and  N_18
REMARK    3  A    between atoms: C_5  and  C_14
REMARK    4  A    between atoms: N_18  and  S_20
REMARK    5  A    between atoms: S_20  and  C_24
REMARK                            x       y       z     vdW  Elec       q    Type
REMARK                         _______ _______ _______ _____ _____    ______ ____
ROOT
ATOM      1  N   UNL     1      32.728 -23.203 -16.541  0.00  0.00    -0.175 N 
ATOM      2  N   UNL     1      32.521 -22.357 -17.572  0.00  0.00    -0.172 NA
ATOM      3  C   UNL     1      34.047 -23.535 -16.376  0.00  0.00    +0.141 C 
ATOM      4  C   UNL     1      34.738 -22.866 -17.357  0.00  0.00    +0.054 C 
ATOM      5  C   UNL     1      33.748 -22.157 -18.063  0.00  0.00    +0.108 C 
ENDROOT
BRANCH   1   7
ATOM      6  F   UNL     1      28.496 -24.967 -13.483  0.00  0.00    -0.204 F 
ATOM      7  C   UNL     1      31.666 -23.646 -15.773  0.00  0.00    +0.075 C 
ATOM      8  C   UNL     1      30.979 -24.805 -16.136  0.00  0.00    +0.019 C 
ATOM      9  C   UNL     1      31.283 -22.934 -14.637  0.00  0.00    +0.019 C 
ATOM     10  C   UNL     1      29.907 -25.250 -15.363  0.00  0.00    +0.031 C 
ATOM     11  C   UNL     1      30.211 -23.380 -13.863  0.00  0.00    +0.031 C 
ATOM     12  C   UNL     1      29.523 -24.538 -14.226  0.00  0.00    +0.140 C 
ENDBRANCH   1   7
BRANCH   5  14
ATOM     13  S   UNL     1      35.544 -20.916 -19.835  0.00  0.00    -0.085 S 
ATOM     14  C   UNL     1      33.986 -21.278 -19.222  0.00  0.00    +0.049 C 
ATOM     15  C   UNL     1      32.991 -20.649 -19.940  0.00  0.00    +0.009 C 
ATOM     16  C   UNL     1      33.514 -19.862 -21.006  0.00  0.00    +0.008 C 
ATOM     17  C   UNL     1      34.890 -19.918 -21.063  0.00  0.00    +0.035 C 
ENDBRANCH   5  14
BRANCH   3  18
ATOM     18  N   UNL     1      34.614 -24.415 -15.371  0.00  0.00    -0.201 N 
ATOM     19  H   UNL     1      34.695 -25.385 -15.514  0.00  0.00    +0.175 HD
BRANCH  18  20
ATOM     20  S   UNL     1      35.138 -23.658 -13.909  0.00  0.00    +0.075 S 
ATOM     21  O   UNL     1      34.214 -23.988 -12.840  0.00  0.00    -0.150 OA
ATOM     22  O   UNL     1      35.493 -22.277 -14.174  0.00  0.00    -0.150 OA
BRANCH  20  24
ATOM     23  F   UNL     1      39.950 -24.879 -15.040  0.00  0.00    -0.204 F 
ATOM     24  C   UNL     1      36.649 -24.525 -13.598  0.00  0.00    +0.127 C 
ATOM     25  C   UNL     1      37.716 -24.352 -14.461  0.00  0.00    +0.050 C 
ATOM     26  C   UNL     1      36.734 -25.356 -12.496  0.00  0.00    +0.020 C 
ATOM     27  C   UNL     1      38.907 -25.032 -14.214  0.00  0.00    +0.141 C 
ATOM     28  C   UNL     1      37.926 -26.037 -12.248  0.00  0.00    +0.004 C 
ATOM     29  C   UNL     1      39.012 -25.875 -13.107  0.00  0.00    +0.030 C 
ENDBRANCH  20  24
ENDBRANCH  18  20
ENDBRANCH   3  18
TORSDOF 5
ENDMDL
