MODEL 1
REMARK VINA RESULT:     -11.4      0.000      0.000
REMARK  Name = 16752640
REMARK  7 active torsions:
REMARK  status: ('A' for Active; 'I' for Inactive)
REMARK    1  A    between atoms: C_1  and  N_4
REMARK    2  A    between atoms: C_1  and  C_18
REMARK    3  A    between atoms: C_1  and  C_21
REMARK    4  A    between atoms: C_11  and  C_14
REMARK    5  A    between atoms: C_14  and  O_15
REMARK    6  A    between atoms: C_18  and  O_19
REMARK    7  A    between atoms: C_21  and  C_22
REMARK                            x       y       z     vdW  Elec       q    Type
REMARK                         _______ _______ _______ _____ _____    ______ ____
ROOT
ATOM      1  C   UNL     1      34.289 -23.298 -16.042  0.00  0.00    +0.186 C 
ENDROOT
BRANCH   1   4
ATOM      2  O   UNL     1      36.847 -22.004 -16.875  0.00  0.00    -0.269 OA
ATOM      3  O   UNL     1      32.433 -22.448 -18.215  0.00  0.00    -0.269 OA
ATOM      4  N   UNL     1      34.559 -22.468 -17.200  0.00  0.00    -0.213 N 
ATOM      5  C   UNL     1      35.617 -21.159 -18.714  0.00  0.00    +0.059 C 
ATOM      6  C   UNL     1      35.793 -21.920 -17.478  0.00  0.00    +0.256 C 
ATOM      7  C   UNL     1      33.608 -22.140 -18.143  0.00  0.00    +0.256 C 
ATOM      8  C   UNL     1      34.296 -21.291 -19.116  0.00  0.00    +0.058 C 
ATOM      9  C   UNL     1      36.527 -20.413 -19.433  0.00  0.00    +0.011 C 
ATOM     10  C   UNL     1      33.816 -20.685 -20.259  0.00  0.00    +0.005 C 
ATOM     11  C   UNL     1      36.064 -19.789 -20.595  0.00  0.00    +0.076 C 
ATOM     12  C   UNL     1      34.721 -19.923 -21.003  0.00  0.00    +0.007 C 
BRANCH  11  14
ATOM     13  O   UNL     1      38.155 -18.744 -21.105  0.00  0.00    -0.245 OA
ATOM     14  C   UNL     1      36.979 -18.989 -21.394  0.00  0.00    +0.338 C 
BRANCH  14  15
ATOM     15  O   UNL     1      36.401 -18.518 -22.532  0.00  0.00    -0.477 OA
ATOM     16  H   UNL     1      35.470 -18.423 -22.580  0.00  0.00    +0.295 HD
ENDBRANCH  14  15
ENDBRANCH  11  14
ENDBRANCH   1   4
BRANCH   1  18
ATOM     17  O   UNL     1      36.212 -24.650 -15.466  0.00  0.00    -0.248 OA
ATOM     18  C   UNL     1      35.574 -23.617 -15.289  0.00  0.00    +0.333 C 
BRANCH  18  19
ATOM     19  O   UNL     1      35.968 -22.666 -14.408  0.00  0.00    -0.479 OA
ATOM     20  H   UNL     1      35.733 -21.770 -14.549  0.00  0.00    +0.295 HD
ENDBRANCH  18  19
ENDBRANCH   1  18
BRANCH   1  21
ATOM     21  C   UNL     1      33.281 -22.631 -15.097  0.00  0.00    +0.058 C 
BRANCH  21  22
ATOM     22  C   UNL     1      32.258 -23.598 -14.551  0.00  0.00    -0.020 C 
ATOM     23  C   UNL     1      30.925 -23.599 -14.992  0.00  0.00    -0.004 C 
ATOM     24  C   UNL     1      30.015 -24.531 -14.440  0.00  0.00    -0.000 C 
ATOM     25  C   UNL     1      32.688 -24.502 -13.579  0.00  0.00    -0.004 C 
ATOM     26  C   UNL     1      30.475 -22.695 -15.968  0.00  0.00    -0.000 C 
ATOM     27  C   UNL     1      30.464 -25.435 -13.464  0.00  0.00    -0.000 C 
ATOM     28  C   UNL     1      31.792 -25.419 -13.037  0.00  0.00    -0.000 C 
ATOM     29  C   UNL     1      28.681 -24.532 -14.881  0.00  0.00    -0.000 C 
ATOM     30  C   UNL     1      29.147 -22.710 -16.394  0.00  0.00    -0.000 C 
ATOM     31  C   UNL     1      28.251 -23.626 -15.852  0.00  0.00    -0.000 C 
ENDBRANCH  21  22
ENDBRANCH   1  21
TORSDOF 7
ENDMDL
MODEL 2
REMARK VINA RESULT:     -11.2      0.615      1.882
REMARK  Name = 16752640
REMARK  7 active torsions:
REMARK  status: ('A' for Active; 'I' for Inactive)
REMARK    1  A    between atoms: C_1  and  N_4
REMARK    2  A    between atoms: C_1  and  C_18
REMARK    3  A    between atoms: C_1  and  C_21
REMARK    4  A    between atoms: C_11  and  C_14
REMARK    5  A    between atoms: C_14  and  O_15
REMARK    6  A    between atoms: C_18  and  O_19
REMARK    7  A    between atoms: C_21  and  C_22
REMARK                            x       y       z     vdW  Elec       q    Type
REMARK                         _______ _______ _______ _____ _____    ______ ____
ROOT
ATOM      1  C   UNL     1      34.264 -23.362 -16.075  0.00  0.00    +0.186 C 
ENDROOT
BRANCH   1   4
ATOM      2  O   UNL     1      32.739 -22.380 -18.445  0.00  0.00    -0.269 OA
ATOM      3  O   UNL     1      36.950 -22.147 -16.525  0.00  0.00    -0.269 OA
ATOM      4  N   UNL     1      34.713 -22.517 -17.164  0.00  0.00    -0.213 N 
ATOM      5  C   UNL     1      34.753 -21.306 -19.078  0.00  0.00    +0.059 C 
ATOM      6  C   UNL     1      33.908 -22.131 -18.215  0.00  0.00    +0.256 C 
ATOM      7  C   UNL     1      35.993 -22.013 -17.265  0.00  0.00    +0.256 C 
ATOM      8  C   UNL     1      36.014 -21.236 -18.504  0.00  0.00    +0.058 C 
ATOM      9  C   UNL     1      34.454 -20.669 -20.264  0.00  0.00    +0.011 C 
ATOM     10  C   UNL     1      37.042 -20.523 -19.085  0.00  0.00    +0.005 C 
ATOM     11  C   UNL     1      35.481 -19.940 -20.871  0.00  0.00    +0.076 C 
ATOM     12  C   UNL     1      36.762 -19.869 -20.289  0.00  0.00    +0.007 C 
BRANCH  11  14
ATOM     13  O   UNL     1      34.222 -19.394 -22.832  0.00  0.00    -0.245 OA
ATOM     14  C   UNL     1      35.224 -19.246 -22.124  0.00  0.00    +0.338 C 
BRANCH  14  15
ATOM     15  O   UNL     1      36.224 -18.386 -22.457  0.00  0.00    -0.477 OA
ATOM     16  H   UNL     1      37.029 -18.396 -21.978  0.00  0.00    +0.295 HD
ENDBRANCH  14  15
ENDBRANCH  11  14
ENDBRANCH   1   4
BRANCH   1  18
ATOM     17  O   UNL     1      36.031 -24.880 -15.420  0.00  0.00    -0.248 OA
ATOM     18  C   UNL     1      35.439 -23.823 -15.224  0.00  0.00    +0.333 C 
BRANCH  18  19
ATOM     19  O   UNL     1      35.791 -22.973 -14.230  0.00  0.00    -0.479 OA
ATOM     20  H   UNL     1      35.692 -23.232 -13.335  0.00  0.00    +0.295 HD
ENDBRANCH  18  19
ENDBRANCH   1  18
BRANCH   1  21
ATOM     21  C   UNL     1      33.232 -22.642 -15.197  0.00  0.00    +0.058 C 
BRANCH  21  22
ATOM     22  C   UNL     1      32.205 -23.579 -14.608  0.00  0.00    -0.020 C 
ATOM     23  C   UNL     1      30.871 -23.591 -15.048  0.00  0.00    -0.004 C 
ATOM     24  C   UNL     1      29.957 -24.494 -14.455  0.00  0.00    -0.000 C 
ATOM     25  C   UNL     1      32.631 -24.442 -13.599  0.00  0.00    -0.004 C 
ATOM     26  C   UNL     1      30.425 -22.728 -16.061  0.00  0.00    -0.000 C 
ATOM     27  C   UNL     1      30.403 -25.357 -13.441  0.00  0.00    -0.000 C 
ATOM     28  C   UNL     1      31.731 -25.331 -13.016  0.00  0.00    -0.000 C 
ATOM     29  C   UNL     1      28.623 -24.507 -14.894  0.00  0.00    -0.000 C 
ATOM     30  C   UNL     1      29.096 -22.754 -16.485  0.00  0.00    -0.000 C 
ATOM     31  C   UNL     1      28.197 -23.642 -15.902  0.00  0.00    -0.000 C 
ENDBRANCH  21  22
ENDBRANCH   1  21
TORSDOF 7
ENDMDL
MODEL 3
REMARK VINA RESULT:     -10.7     10.697     14.876
REMARK  Name = 16752640
REMARK  7 active torsions:
REMARK  status: ('A' for Active; 'I' for Inactive)
REMARK    1  A    between atoms: C_1  and  N_4
REMARK    2  A    between atoms: C_1  and  C_18
REMARK    3  A    between atoms: C_1  and  C_21
REMARK    4  A    between atoms: C_11  and  C_14
REMARK    5  A    between atoms: C_14  and  O_15
REMARK    6  A    between atoms: C_18  and  O_19
REMARK    7  A    between atoms: C_21  and  C_22
REMARK                            x       y       z     vdW  Elec       q    Type
REMARK                         _______ _______ _______ _____ _____    ______ ____
ROOT
ATOM      1  C   UNL     1      31.632  -9.404 -20.395  0.00  0.00    +0.186 C 
ENDROOT
BRANCH   1   4
ATOM      2  O   UNL     1      31.870 -10.001 -23.309  0.00  0.00    -0.269 OA
ATOM      3  O   UNL     1      32.538 -11.965 -19.166  0.00  0.00    -0.269 OA
ATOM      4  N   UNL     1      32.070 -10.624 -21.045  0.00  0.00    -0.213 N 
ATOM      5  C   UNL     1      32.611 -12.147 -22.631  0.00  0.00    +0.059 C 
ATOM      6  C   UNL     1      32.135 -10.781 -22.413  0.00  0.00    +0.256 C 
ATOM      7  C   UNL     1      32.467 -11.754 -20.362  0.00  0.00    +0.256 C 
ATOM      8  C   UNL     1      32.811 -12.735 -21.391  0.00  0.00    +0.058 C 
ATOM      9  C   UNL     1      32.851 -12.825 -23.808  0.00  0.00    +0.011 C 
ATOM     10  C   UNL     1      33.263 -14.032 -21.263  0.00  0.00    +0.005 C 
ATOM     11  C   UNL     1      33.310 -14.141 -23.703  0.00  0.00    +0.076 C 
ATOM     12  C   UNL     1      33.513 -14.739 -22.443  0.00  0.00    +0.007 C 
BRANCH  11  14
ATOM     13  O   UNL     1      34.515 -15.700 -25.059  0.00  0.00    -0.245 OA
ATOM     14  C   UNL     1      33.582 -14.905 -24.911  0.00  0.00    +0.338 C 
BRANCH  14  15
ATOM     15  O   UNL     1      32.680 -14.655 -25.898  0.00  0.00    -0.477 OA
ATOM     16  H   UNL     1      31.912 -15.185 -25.977  0.00  0.00    +0.295 HD
ENDBRANCH  14  15
ENDBRANCH  11  14
ENDBRANCH   1   4
BRANCH   1  18
ATOM     17  O   UNL     1      30.091 -10.068 -18.652  0.00  0.00    -0.248 OA
ATOM     18  C   UNL     1      31.212  -9.673 -18.957  0.00  0.00    +0.333 C 
BRANCH  18  19
ATOM     19  O   UNL     1      32.175  -9.450 -18.031  0.00  0.00    -0.479 OA
ATOM     20  H   UNL     1      33.036  -9.199 -18.303  0.00  0.00    +0.295 HD
ENDBRANCH  18  19
ENDBRANCH   1  18
BRANCH   1  21
ATOM     21  C   UNL     1      32.725  -8.328 -20.429  0.00  0.00    +0.058 C 
BRANCH  21  22
ATOM     22  C   UNL     1      32.414  -7.203 -21.388  0.00  0.00    -0.020 C 
ATOM     23  C   UNL     1      33.286  -6.852 -22.430  0.00  0.00    -0.004 C 
ATOM     24  C   UNL     1      32.937  -5.788 -23.295  0.00  0.00    -0.000 C 
ATOM     25  C   UNL     1      31.214  -6.516 -21.199  0.00  0.00    -0.004 C 
ATOM     26  C   UNL     1      34.497  -7.532 -22.634  0.00  0.00    -0.000 C 
ATOM     27  C   UNL     1      31.725  -5.107 -23.092  0.00  0.00    -0.000 C 
ATOM     28  C   UNL     1      30.871  -5.469 -22.051  0.00  0.00    -0.000 C 
ATOM     29  C   UNL     1      33.809  -5.436 -24.338  0.00  0.00    -0.000 C 
ATOM     30  C   UNL     1      35.352  -7.170 -23.675  0.00  0.00    -0.000 C 
ATOM     31  C   UNL     1      35.009  -6.123 -24.525  0.00  0.00    -0.000 C 
ENDBRANCH  21  22
ENDBRANCH   1  21
TORSDOF 7
ENDMDL
MODEL 4
REMARK VINA RESULT:     -10.6      2.185      4.179
REMARK  Name = 16752640
REMARK  7 active torsions:
REMARK  status: ('A' for Active; 'I' for Inactive)
REMARK    1  A    between atoms: C_1  and  N_4
REMARK    2  A    between atoms: C_1  and  C_18
REMARK    3  A    between atoms: C_1  and  C_21
REMARK    4  A    between atoms: C_11  and  C_14
REMARK    5  A    between atoms: C_14  and  O_15
REMARK    6  A    between atoms: C_18  and  O_19
REMARK    7  A    between atoms: C_21  and  C_22
REMARK                            x       y       z     vdW  Elec       q    Type
REMARK                         _______ _______ _______ _____ _____    ______ ____
ROOT
ATOM      1  C   UNL     1      34.051 -22.583 -18.058  0.00  0.00    +0.186 C 
ENDROOT
BRANCH   1   4
ATOM      2  O   UNL     1      32.530 -20.910 -20.006  0.00  0.00    -0.269 OA
ATOM      3  O   UNL     1      36.839 -21.602 -18.449  0.00  0.00    -0.269 OA
ATOM      4  N   UNL     1      34.541 -21.562 -18.962  0.00  0.00    -0.213 N 
ATOM      5  C   UNL     1      34.626 -19.948 -20.549  0.00  0.00    +0.059 C 
ATOM      6  C   UNL     1      33.733 -20.853 -19.826  0.00  0.00    +0.256 C 
ATOM      7  C   UNL     1      35.867 -21.194 -19.055  0.00  0.00    +0.256 C 
ATOM      8  C   UNL     1      35.916 -20.154 -20.083  0.00  0.00    +0.058 C 
ATOM      9  C   UNL     1      34.344 -19.021 -21.530  0.00  0.00    +0.011 C 
ATOM     10  C   UNL     1      36.992 -19.444 -20.574  0.00  0.00    +0.005 C 
ATOM     11  C   UNL     1      35.418 -18.288 -22.042  0.00  0.00    +0.076 C 
ATOM     12  C   UNL     1      36.730 -18.499 -21.570  0.00  0.00    +0.007 C 
BRANCH  11  14
ATOM     13  O   UNL     1      34.557 -17.491 -24.127  0.00  0.00    -0.245 OA
ATOM     14  C   UNL     1      35.181 -17.296 -23.079  0.00  0.00    +0.338 C 
BRANCH  14  15
ATOM     15  O   UNL     1      35.730 -16.088 -22.778  0.00  0.00    -0.477 OA
ATOM     16  H   UNL     1      35.349 -15.303 -23.118  0.00  0.00    +0.295 HD
ENDBRANCH  14  15
ENDBRANCH  11  14
ENDBRANCH   1   4
BRANCH   1  18
ATOM     17  O   UNL     1      34.347 -24.113 -19.909  0.00  0.00    -0.248 OA
ATOM     18  C   UNL     1      33.993 -23.940 -18.747  0.00  0.00    +0.333 C 
BRANCH  18  19
ATOM     19  O   UNL     1      33.525 -24.950 -17.976  0.00  0.00    -0.479 OA
ATOM     20  H   UNL     1      32.943 -24.766 -17.265  0.00  0.00    +0.295 HD
ENDBRANCH  18  19
ENDBRANCH   1  18
BRANCH   1  21
ATOM     21  C   UNL     1      34.917 -22.675 -16.794  0.00  0.00    +0.058 C 
BRANCH  21  22
ATOM     22  C   UNL     1      34.124 -23.041 -15.562  0.00  0.00    -0.020 C 
ATOM     23  C   UNL     1      34.731 -23.604 -14.428  0.00  0.00    -0.004 C 
ATOM     24  C   UNL     1      33.932 -23.925 -13.305  0.00  0.00    -0.000 C 
ATOM     25  C   UNL     1      32.751 -22.799 -15.590  0.00  0.00    -0.004 C 
ATOM     26  C   UNL     1      36.112 -23.855 -14.383  0.00  0.00    -0.000 C 
ATOM     27  C   UNL     1      32.551 -23.673 -13.349  0.00  0.00    -0.000 C 
ATOM     28  C   UNL     1      31.965 -23.115 -14.485  0.00  0.00    -0.000 C 
ATOM     29  C   UNL     1      34.539 -24.487 -12.170  0.00  0.00    -0.000 C 
ATOM     30  C   UNL     1      36.697 -24.415 -13.248  0.00  0.00    -0.000 C 
ATOM     31  C   UNL     1      35.913 -24.731 -12.143  0.00  0.00    -0.000 C 
ENDBRANCH  21  22
ENDBRANCH   1  21
TORSDOF 7
ENDMDL
MODEL 5
REMARK VINA RESULT:     -10.4     11.732     14.982
REMARK  Name = 16752640
REMARK  7 active torsions:
REMARK  status: ('A' for Active; 'I' for Inactive)
REMARK    1  A    between atoms: C_1  and  N_4
REMARK    2  A    between atoms: C_1  and  C_18
REMARK    3  A    between atoms: C_1  and  C_21
REMARK    4  A    between atoms: C_11  and  C_14
REMARK    5  A    between atoms: C_14  and  O_15
REMARK    6  A    between atoms: C_18  and  O_19
REMARK    7  A    between atoms: C_21  and  C_22
REMARK                            x       y       z     vdW  Elec       q    Type
REMARK                         _______ _______ _______ _____ _____    ______ ____
ROOT
ATOM      1  C   UNL     1      32.056  -9.763 -20.494  0.00  0.00    +0.186 C 
ENDROOT
BRANCH   1   4
ATOM      2  O   UNL     1      30.650  -8.862 -22.967  0.00  0.00    -0.269 OA
ATOM      3  O   UNL     1      33.064  -7.185 -19.386  0.00  0.00    -0.269 OA
ATOM      4  N   UNL     1      31.906  -8.421 -21.022  0.00  0.00    -0.213 N 
ATOM      5  C   UNL     1      31.330  -6.679 -22.350  0.00  0.00    +0.059 C 
ATOM      6  C   UNL     1      31.229  -8.129 -22.188  0.00  0.00    +0.256 C 
ATOM      7  C   UNL     1      32.424  -7.297 -20.415  0.00  0.00    +0.256 C 
ATOM      8  C   UNL     1      32.053  -6.176 -21.278  0.00  0.00    +0.058 C 
ATOM      9  C   UNL     1      30.836  -5.861 -23.344  0.00  0.00    +0.011 C 
ATOM     10  C   UNL     1      32.318  -4.829 -21.144  0.00  0.00    +0.005 C 
ATOM     11  C   UNL     1      31.092  -4.492 -23.229  0.00  0.00    +0.076 C 
ATOM     12  C   UNL     1      31.827  -3.981 -22.141  0.00  0.00    +0.007 C 
BRANCH  11  14
ATOM     13  O   UNL     1      29.698  -2.746 -24.085  0.00  0.00    -0.245 OA
ATOM     14  C   UNL     1      30.594  -3.581 -24.248  0.00  0.00    +0.338 C 
BRANCH  14  15
ATOM     15  O   UNL     1      31.229  -3.737 -25.441  0.00  0.00    -0.477 OA
ATOM     16  H   UNL     1      31.172  -3.067 -26.093  0.00  0.00    +0.295 HD
ENDBRANCH  14  15
ENDBRANCH  11  14
ENDBRANCH   1   4
BRANCH   1  18
ATOM     17  O   UNL     1      30.260 -10.094 -18.908  0.00  0.00    -0.248 OA
ATOM     18  C   UNL     1      31.451  -9.872 -19.102  0.00  0.00    +0.333 C 
BRANCH  18  19
ATOM     19  O   UNL     1      32.330  -9.712 -18.085  0.00  0.00    -0.479 OA
ATOM     20  H   UNL     1      32.046  -9.817 -17.198  0.00  0.00    +0.295 HD
ENDBRANCH  18  19
ENDBRANCH   1  18
BRANCH   1  21
ATOM     21  C   UNL     1      31.422 -10.805 -21.424  0.00  0.00    +0.058 C 
BRANCH  21  22
ATOM     22  C   UNL     1      32.442 -11.696 -22.093  0.00  0.00    -0.020 C 
ATOM     23  C   UNL     1      32.910 -12.874 -21.488  0.00  0.00    -0.004 C 
ATOM     24  C   UNL     1      33.866 -13.666 -22.167  0.00  0.00    -0.000 C 
ATOM     25  C   UNL     1      32.909 -11.304 -23.347  0.00  0.00    -0.004 C 
ATOM     26  C   UNL     1      32.451 -13.283 -20.226  0.00  0.00    -0.000 C 
ATOM     27  C   UNL     1      34.325 -13.258 -23.430  0.00  0.00    -0.000 C 
ATOM     28  C   UNL     1      33.850 -12.084 -24.015  0.00  0.00    -0.000 C 
ATOM     29  C   UNL     1      34.334 -14.844 -21.563  0.00  0.00    -0.000 C 
ATOM     30  C   UNL     1      32.927 -14.456 -19.640  0.00  0.00    -0.000 C 
ATOM     31  C   UNL     1      33.868 -15.235 -20.308  0.00  0.00    -0.000 C 
ENDBRANCH  21  22
ENDBRANCH   1  21
TORSDOF 7
ENDMDL
MODEL 6
REMARK VINA RESULT:     -10.3      3.105      7.336
REMARK  Name = 16752640
REMARK  7 active torsions:
REMARK  status: ('A' for Active; 'I' for Inactive)
REMARK    1  A    between atoms: C_1  and  N_4
REMARK    2  A    between atoms: C_1  and  C_18
REMARK    3  A    between atoms: C_1  and  C_21
REMARK    4  A    between atoms: C_11  and  C_14
REMARK    5  A    between atoms: C_14  and  O_15
REMARK    6  A    between atoms: C_18  and  O_19
REMARK    7  A    between atoms: C_21  and  C_22
REMARK                            x       y       z     vdW  Elec       q    Type
REMARK                         _______ _______ _______ _____ _____    ______ ____
ROOT
ATOM      1  C   UNL     1      34.106 -23.732 -15.767  0.00  0.00    +0.186 C 
ENDROOT
BRANCH   1   4
ATOM      2  O   UNL     1      32.158 -22.074 -17.303  0.00  0.00    -0.269 OA
ATOM      3  O   UNL     1      32.328 -25.129 -13.824  0.00  0.00    -0.269 OA
ATOM      4  N   UNL     1      32.669 -23.629 -15.608  0.00  0.00    -0.213 N 
ATOM      5  C   UNL     1      30.508 -23.009 -15.884  0.00  0.00    +0.059 C 
ATOM      6  C   UNL     1      31.869 -22.817 -16.384  0.00  0.00    +0.256 C 
ATOM      7  C   UNL     1      31.951 -24.331 -14.662  0.00  0.00    +0.256 C 
ATOM      8  C   UNL     1      30.558 -23.924 -14.842  0.00  0.00    +0.058 C 
ATOM      9  C   UNL     1      29.323 -22.439 -16.297  0.00  0.00    +0.011 C 
ATOM     10  C   UNL     1      29.425 -24.317 -14.161  0.00  0.00    +0.005 C 
ATOM     11  C   UNL     1      28.161 -22.821 -15.621  0.00  0.00    +0.076 C 
ATOM     12  C   UNL     1      28.211 -23.750 -14.562  0.00  0.00    +0.007 C 
BRANCH  11  14
ATOM     13  O   UNL     1      25.848 -22.278 -15.336  0.00  0.00    -0.245 OA
ATOM     14  C   UNL     1      26.881 -22.253 -16.014  0.00  0.00    +0.338 C 
BRANCH  14  15
ATOM     15  O   UNL     1      26.926 -21.669 -17.242  0.00  0.00    -0.477 OA
ATOM     16  H   UNL     1      27.688 -21.194 -17.507  0.00  0.00    +0.295 HD
ENDBRANCH  14  15
ENDBRANCH  11  14
ENDBRANCH   1   4
BRANCH   1  18
ATOM     17  O   UNL     1      35.380 -22.547 -17.448  0.00  0.00    -0.248 OA
ATOM     18  C   UNL     1      34.523 -23.385 -17.190  0.00  0.00    +0.333 C 
BRANCH  18  19
ATOM     19  O   UNL     1      33.878 -24.080 -18.157  0.00  0.00    -0.479 OA
ATOM     20  H   UNL     1      33.784 -23.714 -19.014  0.00  0.00    +0.295 HD
ENDBRANCH  18  19
ENDBRANCH   1  18
BRANCH   1  21
ATOM     21  C   UNL     1      34.846 -22.831 -14.770  0.00  0.00    +0.058 C 
BRANCH  21  22
ATOM     22  C   UNL     1      35.512 -23.606 -13.658  0.00  0.00    -0.020 C 
ATOM     23  C   UNL     1      36.817 -24.110 -13.781  0.00  0.00    -0.004 C 
ATOM     24  C   UNL     1      37.384 -24.828 -12.702  0.00  0.00    -0.000 C 
ATOM     25  C   UNL     1      34.777 -23.806 -12.489  0.00  0.00    -0.004 C 
ATOM     26  C   UNL     1      37.570 -23.919 -14.951  0.00  0.00    -0.000 C 
ATOM     27  C   UNL     1      36.631 -25.020 -11.532  0.00  0.00    -0.000 C 
ATOM     28  C   UNL     1      35.337 -24.512 -11.428  0.00  0.00    -0.000 C 
ATOM     29  C   UNL     1      38.689 -25.333 -12.824  0.00  0.00    -0.000 C 
ATOM     30  C   UNL     1      38.865 -24.428 -15.055  0.00  0.00    -0.000 C 
ATOM     31  C   UNL     1      39.423 -25.134 -13.994  0.00  0.00    -0.000 C 
ENDBRANCH  21  22
ENDBRANCH   1  21
TORSDOF 7
ENDMDL
MODEL 7
REMARK VINA RESULT:     -10.2     11.890     15.352
REMARK  Name = 16752640
REMARK  7 active torsions:
REMARK  status: ('A' for Active; 'I' for Inactive)
REMARK    1  A    between atoms: C_1  and  N_4
REMARK    2  A    between atoms: C_1  and  C_18
REMARK    3  A    between atoms: C_1  and  C_21
REMARK    4  A    between atoms: C_11  and  C_14
REMARK    5  A    between atoms: C_14  and  O_15
REMARK    6  A    between atoms: C_18  and  O_19
REMARK    7  A    between atoms: C_21  and  C_22
REMARK                            x       y       z     vdW  Elec       q    Type
REMARK                         _______ _______ _______ _____ _____    ______ ____
ROOT
ATOM      1  C   UNL     1      32.950  -8.560 -21.203  0.00  0.00    +0.186 C 
ENDROOT
BRANCH   1   4
ATOM      2  O   UNL     1      35.361  -8.297 -22.942  0.00  0.00    -0.269 OA
ATOM      3  O   UNL     1      31.225  -6.343 -22.202  0.00  0.00    -0.269 OA
ATOM      4  N   UNL     1      33.215  -7.601 -22.257  0.00  0.00    -0.213 N 
ATOM      5  C   UNL     1      34.234  -6.460 -23.927  0.00  0.00    +0.059 C 
ATOM      6  C   UNL     1      34.380  -7.578 -22.995  0.00  0.00    +0.256 C 
ATOM      7  C   UNL     1      32.332  -6.610 -22.631  0.00  0.00    +0.256 C 
ATOM      8  C   UNL     1      32.996  -5.875 -23.707  0.00  0.00    +0.058 C 
ATOM      9  C   UNL     1      35.103  -5.988 -24.889  0.00  0.00    +0.011 C 
ATOM     10  C   UNL     1      32.562  -4.788 -24.436  0.00  0.00    +0.005 C 
ATOM     11  C   UNL     1      34.685  -4.887 -25.641  0.00  0.00    +0.076 C 
ATOM     12  C   UNL     1      33.427  -4.292 -25.416  0.00  0.00    +0.007 C 
BRANCH  11  14
ATOM     13  O   UNL     1      35.686  -3.149 -26.944  0.00  0.00    -0.245 OA
ATOM     14  C   UNL     1      35.559  -4.347 -26.670  0.00  0.00    +0.338 C 
BRANCH  14  15
ATOM     15  O   UNL     1      36.251  -5.316 -27.327  0.00  0.00    -0.477 OA
ATOM     16  H   UNL     1      37.187  -5.290 -27.351  0.00  0.00    +0.295 HD
ENDBRANCH  14  15
ENDBRANCH  11  14
ENDBRANCH   1   4
BRANCH   1  18
ATOM     17  O   UNL     1      31.591  -7.942 -19.299  0.00  0.00    -0.248 OA
ATOM     18  C   UNL     1      32.666  -7.855 -19.884  0.00  0.00    +0.333 C 
BRANCH  18  19
ATOM     19  O   UNL     1      33.697  -7.126 -19.395  0.00  0.00    -0.479 OA
ATOM     20  H   UNL     1      34.495  -7.549 -19.149  0.00  0.00    +0.295 HD
ENDBRANCH  18  19
ENDBRANCH   1  18
BRANCH   1  21
ATOM     21  C   UNL     1      31.779  -9.482 -21.567  0.00  0.00    +0.058 C 
BRANCH  21  22
ATOM     22  C   UNL     1      32.064 -10.937 -21.280  0.00  0.00    -0.020 C 
ATOM     23  C   UNL     1      32.650 -11.783 -22.236  0.00  0.00    -0.004 C 
ATOM     24  C   UNL     1      32.892 -13.137 -21.905  0.00  0.00    -0.000 C 
ATOM     25  C   UNL     1      31.722 -11.418 -20.016  0.00  0.00    -0.004 C 
ATOM     26  C   UNL     1      33.000 -11.315 -23.513  0.00  0.00    -0.000 C 
ATOM     27  C   UNL     1      32.542 -13.605 -20.628  0.00  0.00    -0.000 C 
ATOM     28  C   UNL     1      31.960 -12.751 -19.691  0.00  0.00    -0.000 C 
ATOM     29  C   UNL     1      33.478 -13.983 -22.861  0.00  0.00    -0.000 C 
ATOM     30  C   UNL     1      33.581 -12.169 -24.450  0.00  0.00    -0.000 C 
ATOM     31  C   UNL     1      33.819 -13.501 -24.125  0.00  0.00    -0.000 C 
ENDBRANCH  21  22
ENDBRANCH   1  21
TORSDOF 7
ENDMDL
MODEL 8
REMARK VINA RESULT:     -10.2      2.968      7.265
REMARK  Name = 16752640
REMARK  7 active torsions:
REMARK  status: ('A' for Active; 'I' for Inactive)
REMARK    1  A    between atoms: C_1  and  N_4
REMARK    2  A    between atoms: C_1  and  C_18
REMARK    3  A    between atoms: C_1  and  C_21
REMARK    4  A    between atoms: C_11  and  C_14
REMARK    5  A    between atoms: C_14  and  O_15
REMARK    6  A    between atoms: C_18  and  O_19
REMARK    7  A    between atoms: C_21  and  C_22
REMARK                            x       y       z     vdW  Elec       q    Type
REMARK                         _______ _______ _______ _____ _____    ______ ____
ROOT
ATOM      1  C   UNL     1      34.181 -23.555 -16.095  0.00  0.00    +0.186 C 
ENDROOT
BRANCH   1   4
ATOM      2  O   UNL     1      32.079 -21.990 -17.522  0.00  0.00    -0.269 OA
ATOM      3  O   UNL     1      32.588 -24.961 -14.003  0.00  0.00    -0.269 OA
ATOM      4  N   UNL     1      32.756 -23.491 -15.836  0.00  0.00    -0.213 N 
ATOM      5  C   UNL     1      30.563 -22.942 -15.971  0.00  0.00    +0.059 C 
ATOM      6  C   UNL     1      31.879 -22.721 -16.570  0.00  0.00    +0.256 C 
ATOM      7  C   UNL     1      32.129 -24.193 -14.828  0.00  0.00    +0.256 C 
ATOM      8  C   UNL     1      30.714 -23.832 -14.917  0.00  0.00    +0.058 C 
ATOM      9  C   UNL     1      29.335 -22.416 -16.311  0.00  0.00    +0.011 C 
ATOM     10  C   UNL     1      29.645 -24.243 -14.149  0.00  0.00    +0.005 C 
ATOM     11  C   UNL     1      28.235 -22.818 -15.546  0.00  0.00    +0.076 C 
ATOM     12  C   UNL     1      28.389 -23.721 -14.475  0.00  0.00    +0.007 C 
BRANCH  11  14
ATOM     13  O   UNL     1      25.922 -22.375 -15.127  0.00  0.00    -0.245 OA
ATOM     14  C   UNL     1      26.914 -22.297 -15.859  0.00  0.00    +0.338 C 
BRANCH  14  15
ATOM     15  O   UNL     1      26.868 -21.691 -17.077  0.00  0.00    -0.477 OA
ATOM     16  H   UNL     1      26.743 -22.204 -17.850  0.00  0.00    +0.295 HD
ENDBRANCH  14  15
ENDBRANCH  11  14
ENDBRANCH   1   4
BRANCH   1  18
ATOM     17  O   UNL     1      35.231 -22.331 -17.898  0.00  0.00    -0.248 OA
ATOM     18  C   UNL     1      34.485 -23.242 -17.553  0.00  0.00    +0.333 C 
BRANCH  18  19
ATOM     19  O   UNL     1      33.873 -24.052 -18.449  0.00  0.00    -0.479 OA
ATOM     20  H   UNL     1      32.937 -24.068 -18.503  0.00  0.00    +0.295 HD
ENDBRANCH  18  19
ENDBRANCH   1  18
BRANCH   1  21
ATOM     21  C   UNL     1      34.960 -22.601 -15.180  0.00  0.00    +0.058 C 
BRANCH  21  22
ATOM     22  C   UNL     1      36.190 -23.236 -14.577  0.00  0.00    -0.020 C 
ATOM     23  C   UNL     1      36.206 -23.721 -13.259  0.00  0.00    -0.004 C 
ATOM     24  C   UNL     1      37.391 -24.305 -12.752  0.00  0.00    -0.000 C 
ATOM     25  C   UNL     1      37.324 -23.326 -15.384  0.00  0.00    -0.004 C 
ATOM     26  C   UNL     1      35.074 -23.637 -12.433  0.00  0.00    -0.000 C 
ATOM     27  C   UNL     1      38.524 -24.389 -13.579  0.00  0.00    -0.000 C 
ATOM     28  C   UNL     1      38.490 -23.902 -14.885  0.00  0.00    -0.000 C 
ATOM     29  C   UNL     1      37.408 -24.790 -11.434  0.00  0.00    -0.000 C 
ATOM     30  C   UNL     1      35.108 -24.124 -11.126  0.00  0.00    -0.000 C 
ATOM     31  C   UNL     1      36.273 -24.699 -10.627  0.00  0.00    -0.000 C 
ENDBRANCH  21  22
ENDBRANCH   1  21
TORSDOF 7
ENDMDL
MODEL 9
REMARK VINA RESULT:     -10.2     11.376     14.521
REMARK  Name = 16752640
REMARK  7 active torsions:
REMARK  status: ('A' for Active; 'I' for Inactive)
REMARK    1  A    between atoms: C_1  and  N_4
REMARK    2  A    between atoms: C_1  and  C_18
REMARK    3  A    between atoms: C_1  and  C_21
REMARK    4  A    between atoms: C_11  and  C_14
REMARK    5  A    between atoms: C_14  and  O_15
REMARK    6  A    between atoms: C_18  and  O_19
REMARK    7  A    between atoms: C_21  and  C_22
REMARK                            x       y       z     vdW  Elec       q    Type
REMARK                         _______ _______ _______ _____ _____    ______ ____
ROOT
ATOM      1  C   UNL     1      32.024 -10.074 -20.101  0.00  0.00    +0.186 C 
ENDROOT
BRANCH   1   4
ATOM      2  O   UNL     1      30.842  -9.445 -22.768  0.00  0.00    -0.269 OA
ATOM      3  O   UNL     1      32.951  -7.391 -19.190  0.00  0.00    -0.269 OA
ATOM      4  N   UNL     1      31.929  -8.797 -20.780  0.00  0.00    -0.213 N 
ATOM      5  C   UNL     1      31.483  -7.206 -22.329  0.00  0.00    +0.059 C 
ATOM      6  C   UNL     1      31.358  -8.631 -22.024  0.00  0.00    +0.256 C 
ATOM      7  C   UNL     1      32.401  -7.613 -20.252  0.00  0.00    +0.256 C 
ATOM      8  C   UNL     1      32.113  -6.591 -21.258  0.00  0.00    +0.058 C 
ATOM      9  C   UNL     1      31.081  -6.500 -23.444  0.00  0.00    +0.011 C 
ATOM     10  C   UNL     1      32.376  -5.237 -21.245  0.00  0.00    +0.005 C 
ATOM     11  C   UNL     1      31.336  -5.126 -23.453  0.00  0.00    +0.076 C 
ATOM     12  C   UNL     1      31.978  -4.500 -22.365  0.00  0.00    +0.007 C 
BRANCH  11  14
ATOM     13  O   UNL     1      31.442  -4.390 -25.727  0.00  0.00    -0.245 OA
ATOM     14  C   UNL     1      30.935  -4.329 -24.602  0.00  0.00    +0.338 C 
BRANCH  14  15
ATOM     15  O   UNL     1      29.912  -3.479 -24.315  0.00  0.00    -0.477 OA
ATOM     16  H   UNL     1      30.027  -2.556 -24.423  0.00  0.00    +0.295 HD
ENDBRANCH  14  15
ENDBRANCH  11  14
ENDBRANCH   1   4
BRANCH   1  18
ATOM     17  O   UNL     1      30.188 -10.054 -18.526  0.00  0.00    -0.248 OA
ATOM     18  C   UNL     1      31.399 -10.003 -18.715  0.00  0.00    +0.333 C 
BRANCH  18  19
ATOM     19  O   UNL     1      32.284  -9.886 -17.697  0.00  0.00    -0.479 OA
ATOM     20  H   UNL     1      33.183 -10.117 -17.829  0.00  0.00    +0.295 HD
ENDBRANCH  18  19
ENDBRANCH   1  18
BRANCH   1  21
ATOM     21  C   UNL     1      31.363 -11.192 -20.918  0.00  0.00    +0.058 C 
BRANCH  21  22
ATOM     22  C   UNL     1      32.148 -12.482 -20.894  0.00  0.00    -0.020 C 
ATOM     23  C   UNL     1      32.870 -12.933 -22.011  0.00  0.00    -0.004 C 
ATOM     24  C   UNL     1      33.586 -14.150 -21.925  0.00  0.00    -0.000 C 
ATOM     25  C   UNL     1      32.130 -13.220 -19.710  0.00  0.00    -0.004 C 
ATOM     26  C   UNL     1      32.898 -12.203 -23.210  0.00  0.00    -0.000 C 
ATOM     27  C   UNL     1      33.559 -14.881 -20.725  0.00  0.00    -0.000 C 
ATOM     28  C   UNL     1      32.835 -14.418 -19.626  0.00  0.00    -0.000 C 
ATOM     29  C   UNL     1      34.309 -14.602 -23.041  0.00  0.00    -0.000 C 
ATOM     30  C   UNL     1      33.621 -12.667 -24.309  0.00  0.00    -0.000 C 
ATOM     31  C   UNL     1      34.325 -13.864 -24.225  0.00  0.00    -0.000 C 
ENDBRANCH  21  22
ENDBRANCH   1  21
TORSDOF 7
ENDMDL
