MODEL 1
REMARK VINA RESULT:     -11.8      0.000      0.000
REMARK  Name = 447735
REMARK  4 active torsions:
REMARK  status: ('A' for Active; 'I' for Inactive)
REMARK    1  A    between atoms: N_2  and  C_13
REMARK    2  A    between atoms: C_3  and  C_18
REMARK    3  A    between atoms: C_7  and  C_15
REMARK    4  A    between atoms: C_26  and  C_30
REMARK                            x       y       z     vdW  Elec       q    Type
REMARK                         _______ _______ _______ _____ _____    ______ ____
ROOT
ATOM      1  O   UNL     1      34.009 -23.950 -17.730  0.00  0.00    -0.270 OA
ATOM      2  N   UNL     1      35.130 -22.410 -16.351  0.00  0.00    -0.280 N 
ATOM      3  C   UNL     1      34.481 -22.838 -17.517  0.00  0.00    +0.249 C 
ATOM      4  H   UNL     1      35.448 -21.478 -16.352  0.00  0.00    +0.155 HD
ENDROOT
BRANCH   2  13
ATOM      5  N   UNL     1      38.533 -25.501 -12.360  0.00  0.00    -0.274 NA
ATOM      6  C   UNL     1      36.877 -24.441 -13.817  0.00  0.00    +0.010 C 
ATOM      7  C   UNL     1      38.178 -25.100 -13.536  0.00  0.00    +0.053 C 
ATOM      8  C   UNL     1      35.871 -24.594 -12.853  0.00  0.00    -0.019 C 
ATOM      9  C   UNL     1      36.163 -25.411 -11.630  0.00  0.00    +0.053 C 
ATOM     10  C   UNL     1      37.624 -25.229 -11.241  0.00  0.00    +0.130 C 
ATOM     11  C   UNL     1      36.636 -23.711 -14.982  0.00  0.00    +0.016 C 
ATOM     12  C   UNL     1      34.610 -24.033 -13.077  0.00  0.00    -0.003 C 
ATOM     13  C   UNL     1      35.379 -23.140 -15.189  0.00  0.00    +0.051 C 
ATOM     14  C   UNL     1      34.368 -23.304 -14.241  0.00  0.00    +0.014 C 
BRANCH   7  15
ATOM     15  C   UNL     1      39.141 -25.323 -14.677  0.00  0.00    +0.040 C 
ATOM     16  C   UNL     1      39.588 -23.972 -15.206  0.00  0.00    +0.006 C 
ATOM     17  C   UNL     1      40.310 -26.158 -14.187  0.00  0.00    +0.006 C 
ENDBRANCH   7  15
ENDBRANCH   2  13
BRANCH   3  18
ATOM     18  C   UNL     1      34.393 -21.829 -18.605  0.00  0.00    +0.054 C 
ATOM     19  C   UNL     1      35.480 -20.250 -20.056  0.00  0.00    +0.000 C 
ATOM     20  C   UNL     1      34.226 -19.946 -20.637  0.00  0.00    +0.000 C 
ATOM     21  C   UNL     1      35.547 -21.206 -19.029  0.00  0.00    +0.005 C 
ATOM     22  C   UNL     1      33.161 -21.552 -19.151  0.00  0.00    +0.005 C 
ATOM     23  C   UNL     1      33.075 -20.605 -20.173  0.00  0.00    +0.000 C 
ATOM     24  C   UNL     1      34.158 -18.989 -21.663  0.00  0.00    +0.003 C 
ATOM     25  C   UNL     1      36.629 -19.590 -20.520  0.00  0.00    +0.000 C 
ATOM     26  C   UNL     1      35.311 -18.343 -22.112  0.00  0.00    +0.031 C 
ATOM     27  C   UNL     1      36.544 -18.643 -21.541  0.00  0.00    +0.003 C 
BRANCH  26  30
ATOM     28  N   UNL     1      34.629 -17.660 -24.399  0.00  0.00    -0.343 N 
ATOM     29  N   UNL     1      35.720 -16.145 -22.993  0.00  0.00    -0.285 NA
ATOM     30  C   UNL     1      35.224 -17.357 -23.176  0.00  0.00    +0.117 C 
ATOM     31  H   UNL     1      34.581 -16.976 -25.106  0.00  0.00    +0.144 HD
ATOM     32  H   UNL     1      34.256 -18.557 -24.557  0.00  0.00    +0.144 HD
ATOM     33  H   UNL     1      35.664 -15.475 -23.713  0.00  0.00    +0.188 HD
ENDBRANCH  26  30
ENDBRANCH   3  18
TORSDOF 4
ENDMDL
MODEL 2
REMARK VINA RESULT:     -11.7      2.154     10.172
REMARK  Name = 447735
REMARK  4 active torsions:
REMARK  status: ('A' for Active; 'I' for Inactive)
REMARK    1  A    between atoms: N_2  and  C_13
REMARK    2  A    between atoms: C_3  and  C_18
REMARK    3  A    between atoms: C_7  and  C_15
REMARK    4  A    between atoms: C_26  and  C_30
REMARK                            x       y       z     vdW  Elec       q    Type
REMARK                         _______ _______ _______ _____ _____    ______ ____
ROOT
ATOM      1  O   UNL     1      32.858 -21.160 -20.000  0.00  0.00    -0.270 OA
ATOM      2  N   UNL     1      34.978 -20.145 -20.073  0.00  0.00    -0.280 N 
ATOM      3  C   UNL     1      33.995 -21.006 -19.568  0.00  0.00    +0.249 C 
ATOM      4  H   UNL     1      35.840 -20.150 -19.600  0.00  0.00    +0.155 HD
ENDROOT
BRANCH   2  13
ATOM      5  N   UNL     1      34.954 -14.756 -22.906  0.00  0.00    -0.274 NA
ATOM      6  C   UNL     1      34.773 -17.046 -22.063  0.00  0.00    +0.010 C 
ATOM      7  C   UNL     1      34.724 -15.568 -21.928  0.00  0.00    +0.053 C 
ATOM      8  C   UNL     1      34.705 -17.564 -23.363  0.00  0.00    -0.019 C 
ATOM      9  C   UNL     1      34.575 -16.610 -24.512  0.00  0.00    +0.053 C 
ATOM     10  C   UNL     1      35.345 -15.334 -24.197  0.00  0.00    +0.130 C 
ATOM     11  C   UNL     1      34.867 -17.902 -20.963  0.00  0.00    +0.016 C 
ATOM     12  C   UNL     1      34.706 -18.949 -23.555  0.00  0.00    -0.003 C 
ATOM     13  C   UNL     1      34.883 -19.283 -21.166  0.00  0.00    +0.051 C 
ATOM     14  C   UNL     1      34.799 -19.804 -22.457  0.00  0.00    +0.014 C 
BRANCH   7  15
ATOM     15  C   UNL     1      34.383 -14.972 -20.584  0.00  0.00    +0.040 C 
ATOM     16  C   UNL     1      35.126 -13.656 -20.434  0.00  0.00    +0.006 C 
ATOM     17  C   UNL     1      32.879 -14.790 -20.485  0.00  0.00    +0.006 C 
ENDBRANCH   7  15
ENDBRANCH   2  13
BRANCH   3  18
ATOM     18  C   UNL     1      34.388 -21.786 -18.365  0.00  0.00    +0.054 C 
ATOM     19  C   UNL     1      36.061 -22.389 -16.746  0.00  0.00    +0.000 C 
ATOM     20  C   UNL     1      35.121 -23.240 -16.117  0.00  0.00    +0.000 C 
ATOM     21  C   UNL     1      35.674 -21.659 -17.881  0.00  0.00    +0.005 C 
ATOM     22  C   UNL     1      33.456 -22.606 -17.773  0.00  0.00    +0.005 C 
ATOM     23  C   UNL     1      33.822 -23.338 -16.643  0.00  0.00    +0.000 C 
ATOM     24  C   UNL     1      35.508 -23.970 -14.981  0.00  0.00    +0.003 C 
ATOM     25  C   UNL     1      37.359 -22.292 -16.219  0.00  0.00    +0.000 C 
ATOM     26  C   UNL     1      36.803 -23.861 -14.472  0.00  0.00    +0.031 C 
ATOM     27  C   UNL     1      37.727 -23.024 -15.090  0.00  0.00    +0.003 C 
BRANCH  26  30
ATOM     28  N   UNL     1      36.396 -25.664 -12.813  0.00  0.00    -0.343 N 
ATOM     29  N   UNL     1      38.307 -24.328 -12.657  0.00  0.00    -0.285 NA
ATOM     30  C   UNL     1      37.188 -24.623 -13.294  0.00  0.00    +0.117 C 
ATOM     31  H   UNL     1      36.676 -26.166 -12.014  0.00  0.00    +0.144 HD
ATOM     32  H   UNL     1      35.557 -25.897 -13.272  0.00  0.00    +0.144 HD
ATOM     33  H   UNL     1      38.570 -24.842 -11.858  0.00  0.00    +0.188 HD
ENDBRANCH  26  30
ENDBRANCH   3  18
TORSDOF 4
ENDMDL
MODEL 3
REMARK VINA RESULT:     -11.7      2.115     10.386
REMARK  Name = 447735
REMARK  4 active torsions:
REMARK  status: ('A' for Active; 'I' for Inactive)
REMARK    1  A    between atoms: N_2  and  C_13
REMARK    2  A    between atoms: C_3  and  C_18
REMARK    3  A    between atoms: C_7  and  C_15
REMARK    4  A    between atoms: C_26  and  C_30
REMARK                            x       y       z     vdW  Elec       q    Type
REMARK                         _______ _______ _______ _____ _____    ______ ____
ROOT
ATOM      1  O   UNL     1      33.710 -21.462 -19.723  0.00  0.00    -0.270 OA
ATOM      2  N   UNL     1      35.596 -20.065 -19.881  0.00  0.00    -0.280 N 
ATOM      3  C   UNL     1      34.802 -21.075 -19.321  0.00  0.00    +0.249 C 
ATOM      4  H   UNL     1      36.449 -19.885 -19.425  0.00  0.00    +0.155 HD
ENDROOT
BRANCH   2  13
ATOM      5  N   UNL     1      34.871 -14.892 -23.007  0.00  0.00    -0.274 NA
ATOM      6  C   UNL     1      34.953 -17.128 -22.016  0.00  0.00    +0.010 C 
ATOM      7  C   UNL     1      34.805 -15.651 -21.964  0.00  0.00    +0.053 C 
ATOM      8  C   UNL     1      34.793 -17.734 -23.269  0.00  0.00    -0.019 C 
ATOM      9  C   UNL     1      34.474 -16.870 -24.452  0.00  0.00    +0.053 C 
ATOM     10  C   UNL     1      35.171 -15.525 -24.296  0.00  0.00    +0.130 C 
ATOM     11  C   UNL     1      35.224 -17.900 -20.885  0.00  0.00    +0.016 C 
ATOM     12  C   UNL     1      34.880 -19.125 -23.378  0.00  0.00    -0.003 C 
ATOM     13  C   UNL     1      35.325 -19.287 -21.007  0.00  0.00    +0.051 C 
ATOM     14  C   UNL     1      35.150 -19.897 -22.248  0.00  0.00    +0.014 C 
BRANCH   7  15
ATOM     15  C   UNL     1      34.558 -14.992 -20.628  0.00  0.00    +0.040 C 
ATOM     16  C   UNL     1      35.131 -13.586 -20.668  0.00  0.00    +0.006 C 
ATOM     17  C   UNL     1      33.067 -14.991 -20.340  0.00  0.00    +0.006 C 
ENDBRANCH   7  15
ENDBRANCH   2  13
BRANCH   3  18
ATOM     18  C   UNL     1      35.352 -21.711 -18.094  0.00  0.00    +0.054 C 
ATOM     19  C   UNL     1      35.026 -23.103 -16.161  0.00  0.00    +0.000 C 
ATOM     20  C   UNL     1      36.381 -22.899 -15.806  0.00  0.00    +0.000 C 
ATOM     21  C   UNL     1      34.521 -22.496 -17.322  0.00  0.00    +0.005 C 
ATOM     22  C   UNL     1      36.672 -21.496 -17.772  0.00  0.00    +0.005 C 
ATOM     23  C   UNL     1      37.191 -22.092 -16.622  0.00  0.00    +0.000 C 
ATOM     24  C   UNL     1      36.886 -23.506 -14.645  0.00  0.00    +0.003 C 
ATOM     25  C   UNL     1      34.217 -23.909 -15.344  0.00  0.00    +0.000 C 
ATOM     26  C   UNL     1      36.067 -24.304 -13.845  0.00  0.00    +0.031 C 
ATOM     27  C   UNL     1      34.735 -24.505 -14.194  0.00  0.00    +0.003 C 
BRANCH  26  30
ATOM     28  N   UNL     1      37.978 -25.066 -12.455  0.00  0.00    -0.343 N 
ATOM     29  N   UNL     1      35.784 -25.378 -11.714  0.00  0.00    -0.285 NA
ATOM     30  C   UNL     1      36.605 -24.927 -12.646  0.00  0.00    +0.117 C 
ATOM     31  H   UNL     1      38.320 -25.490 -11.635  0.00  0.00    +0.144 HD
ATOM     32  H   UNL     1      38.606 -24.739 -13.139  0.00  0.00    +0.144 HD
ATOM     33  H   UNL     1      36.146 -25.801 -10.901  0.00  0.00    +0.188 HD
ENDBRANCH  26  30
ENDBRANCH   3  18
TORSDOF 4
ENDMDL
MODEL 4
REMARK VINA RESULT:     -11.6      7.873     14.965
REMARK  Name = 447735
REMARK  4 active torsions:
REMARK  status: ('A' for Active; 'I' for Inactive)
REMARK    1  A    between atoms: N_2  and  C_13
REMARK    2  A    between atoms: C_3  and  C_18
REMARK    3  A    between atoms: C_7  and  C_15
REMARK    4  A    between atoms: C_26  and  C_30
REMARK                            x       y       z     vdW  Elec       q    Type
REMARK                         _______ _______ _______ _____ _____    ______ ____
ROOT
ATOM      1  O   UNL     1      33.390 -12.216 -24.535  0.00  0.00    -0.270 OA
ATOM      2  N   UNL     1      32.972 -11.179 -22.466  0.00  0.00    -0.280 N 
ATOM      3  C   UNL     1      33.400 -12.214 -23.310  0.00  0.00    +0.249 C 
ATOM      4  H   UNL     1      33.053 -11.349 -21.500  0.00  0.00    +0.155 HD
ENDROOT
BRANCH   2  13
ATOM      5  N   UNL     1      33.010  -5.707 -25.135  0.00  0.00    -0.274 NA
ATOM      6  C   UNL     1      32.729  -7.766 -23.843  0.00  0.00    +0.010 C 
ATOM      7  C   UNL     1      33.532  -6.715 -24.517  0.00  0.00    +0.053 C 
ATOM      8  C   UNL     1      31.392  -7.456 -23.562  0.00  0.00    -0.019 C 
ATOM      9  C   UNL     1      30.872  -6.102 -23.939  0.00  0.00    +0.053 C 
ATOM     10  C   UNL     1      31.547  -5.644 -25.225  0.00  0.00    +0.130 C 
ATOM     11  C   UNL     1      33.259  -9.007 -23.483  0.00  0.00    +0.016 C 
ATOM     12  C   UNL     1      30.594  -8.389 -22.892  0.00  0.00    -0.003 C 
ATOM     13  C   UNL     1      32.450  -9.938 -22.829  0.00  0.00    +0.051 C 
ATOM     14  C   UNL     1      31.123  -9.628 -22.532  0.00  0.00    +0.014 C 
BRANCH   7  15
ATOM     15  C   UNL     1      35.038  -6.813 -24.478  0.00  0.00    +0.040 C 
ATOM     16  C   UNL     1      35.621  -5.631 -25.232  0.00  0.00    +0.006 C 
ATOM     17  C   UNL     1      35.499  -6.849 -23.032  0.00  0.00    +0.006 C 
ENDBRANCH   7  15
ENDBRANCH   2  13
BRANCH   3  18
ATOM     18  C   UNL     1      33.887 -13.438 -22.620  0.00  0.00    +0.054 C 
ATOM     19  C   UNL     1      34.673 -15.707 -22.741  0.00  0.00    +0.000 C 
ATOM     20  C   UNL     1      34.798 -15.721 -21.331  0.00  0.00    +0.000 C 
ATOM     21  C   UNL     1      34.211 -14.543 -23.378  0.00  0.00    +0.005 C 
ATOM     22  C   UNL     1      33.999 -13.424 -21.249  0.00  0.00    +0.005 C 
ATOM     23  C   UNL     1      34.457 -14.571 -20.599  0.00  0.00    +0.000 C 
ATOM     24  C   UNL     1      35.260 -16.885 -20.694  0.00  0.00    +0.003 C 
ATOM     25  C   UNL     1      35.014 -16.856 -23.471  0.00  0.00    +0.000 C 
ATOM     26  C   UNL     1      35.594 -18.018 -21.437  0.00  0.00    +0.031 C 
ATOM     27  C   UNL     1      35.471 -18.004 -22.823  0.00  0.00    +0.003 C 
BRANCH  26  30
ATOM     28  N   UNL     1      35.303 -20.375 -20.715  0.00  0.00    -0.343 N 
ATOM     29  N   UNL     1      37.256 -19.210 -20.175  0.00  0.00    -0.285 NA
ATOM     30  C   UNL     1      36.072 -19.214 -20.763  0.00  0.00    +0.117 C 
ATOM     31  H   UNL     1      35.647 -21.174 -20.253  0.00  0.00    +0.144 HD
ATOM     32  H   UNL     1      34.417 -20.398 -21.144  0.00  0.00    +0.144 HD
ATOM     33  H   UNL     1      37.581 -20.019 -19.717  0.00  0.00    +0.188 HD
ENDBRANCH  26  30
ENDBRANCH   3  18
TORSDOF 4
ENDMDL
MODEL 5
REMARK VINA RESULT:     -11.6      8.772     15.679
REMARK  Name = 447735
REMARK  4 active torsions:
REMARK  status: ('A' for Active; 'I' for Inactive)
REMARK    1  A    between atoms: N_2  and  C_13
REMARK    2  A    between atoms: C_3  and  C_18
REMARK    3  A    between atoms: C_7  and  C_15
REMARK    4  A    between atoms: C_26  and  C_30
REMARK                            x       y       z     vdW  Elec       q    Type
REMARK                         _______ _______ _______ _____ _____    ______ ____
ROOT
ATOM      1  O   UNL     1      31.138 -11.062 -22.400  0.00  0.00    -0.270 OA
ATOM      2  N   UNL     1      33.243 -10.013 -22.442  0.00  0.00    -0.280 N 
ATOM      3  C   UNL     1      32.359 -11.100 -22.505  0.00  0.00    +0.249 C 
ATOM      4  H   UNL     1      34.197 -10.227 -22.548  0.00  0.00    +0.155 HD
ENDROOT
BRANCH   2  13
ATOM      5  N   UNL     1      32.212  -4.261 -24.150  0.00  0.00    -0.274 NA
ATOM      6  C   UNL     1      32.700  -6.431 -23.128  0.00  0.00    +0.010 C 
ATOM      7  C   UNL     1      32.782  -5.419 -24.212  0.00  0.00    +0.053 C 
ATOM      8  C   UNL     1      32.302  -5.971 -21.865  0.00  0.00    -0.019 C 
ATOM      9  C   UNL     1      32.005  -4.512 -21.690  0.00  0.00    +0.053 C 
ATOM     10  C   UNL     1      31.390  -3.966 -22.971  0.00  0.00    +0.130 C 
ATOM     11  C   UNL     1      33.011  -7.778 -23.326  0.00  0.00    +0.016 C 
ATOM     12  C   UNL     1      32.243  -6.867 -20.793  0.00  0.00    -0.003 C 
ATOM     13  C   UNL     1      32.933  -8.666 -22.252  0.00  0.00    +0.051 C 
ATOM     14  C   UNL     1      32.554  -8.212 -20.989  0.00  0.00    +0.014 C 
BRANCH   7  15
ATOM     15  C   UNL     1      33.577  -5.747 -25.453  0.00  0.00    +0.040 C 
ATOM     16  C   UNL     1      33.092  -4.862 -26.587  0.00  0.00    +0.006 C 
ATOM     17  C   UNL     1      35.055  -5.547 -25.167  0.00  0.00    +0.006 C 
ENDBRANCH   7  15
ENDBRANCH   2  13
BRANCH   3  18
ATOM     18  C   UNL     1      32.997 -12.430 -22.691  0.00  0.00    +0.054 C 
ATOM     19  C   UNL     1      34.030 -14.382 -21.739  0.00  0.00    +0.000 C 
ATOM     20  C   UNL     1      34.187 -14.913 -23.040  0.00  0.00    +0.000 C 
ATOM     21  C   UNL     1      33.425 -13.124 -21.579  0.00  0.00    +0.005 C 
ATOM     22  C   UNL     1      33.139 -12.923 -23.968  0.00  0.00    +0.005 C 
ATOM     23  C   UNL     1      33.736 -14.172 -24.146  0.00  0.00    +0.000 C 
ATOM     24  C   UNL     1      34.792 -16.171 -23.200  0.00  0.00    +0.003 C 
ATOM     25  C   UNL     1      34.481 -15.124 -20.635  0.00  0.00    +0.000 C 
ATOM     26  C   UNL     1      35.234 -16.894 -22.092  0.00  0.00    +0.031 C 
ATOM     27  C   UNL     1      35.079 -16.371 -20.812  0.00  0.00    +0.003 C 
BRANCH  26  30
ATOM     28  N   UNL     1      37.193 -18.412 -21.942  0.00  0.00    -0.343 N 
ATOM     29  N   UNL     1      35.153 -19.199 -22.768  0.00  0.00    -0.285 NA
ATOM     30  C   UNL     1      35.857 -18.195 -22.274  0.00  0.00    +0.117 C 
ATOM     31  H   UNL     1      37.594 -19.302 -22.074  0.00  0.00    +0.144 HD
ATOM     32  H   UNL     1      37.735 -17.677 -21.576  0.00  0.00    +0.144 HD
ATOM     33  H   UNL     1      35.573 -20.081 -22.893  0.00  0.00    +0.188 HD
ENDBRANCH  26  30
ENDBRANCH   3  18
TORSDOF 4
ENDMDL
MODEL 6
REMARK VINA RESULT:     -11.4      8.882     15.644
REMARK  Name = 447735
REMARK  4 active torsions:
REMARK  status: ('A' for Active; 'I' for Inactive)
REMARK    1  A    between atoms: N_2  and  C_13
REMARK    2  A    between atoms: C_3  and  C_18
REMARK    3  A    between atoms: C_7  and  C_15
REMARK    4  A    between atoms: C_26  and  C_30
REMARK                            x       y       z     vdW  Elec       q    Type
REMARK                         _______ _______ _______ _____ _____    ______ ____
ROOT
ATOM      1  O   UNL     1      30.781 -10.937 -22.077  0.00  0.00    -0.270 OA
ATOM      2  N   UNL     1      32.785  -9.825 -21.550  0.00  0.00    -0.280 N 
ATOM      3  C   UNL     1      31.960 -10.942 -21.741  0.00  0.00    +0.249 C 
ATOM      4  H   UNL     1      33.712 -10.015 -21.279  0.00  0.00    +0.155 HD
ENDROOT
BRANCH   2  13
ATOM      5  N   UNL     1      32.154  -4.565 -24.549  0.00  0.00    -0.274 NA
ATOM      6  C   UNL     1      32.414  -6.470 -23.035  0.00  0.00    +0.010 C 
ATOM      7  C   UNL     1      32.717  -5.692 -24.263  0.00  0.00    +0.053 C 
ATOM      8  C   UNL     1      31.777  -5.783 -21.994  0.00  0.00    -0.019 C 
ATOM      9  C   UNL     1      31.462  -4.328 -22.177  0.00  0.00    +0.053 C 
ATOM     10  C   UNL     1      31.117  -4.069 -23.638  0.00  0.00    +0.130 C 
ATOM     11  C   UNL     1      32.749  -7.819 -22.893  0.00  0.00    +0.016 C 
ATOM     12  C   UNL     1      31.501  -6.448 -20.795  0.00  0.00    -0.003 C 
ATOM     13  C   UNL     1      32.454  -8.478 -21.699  0.00  0.00    +0.051 C 
ATOM     14  C   UNL     1      31.835  -7.794 -20.653  0.00  0.00    +0.014 C 
BRANCH   7  15
ATOM     15  C   UNL     1      33.740  -6.233 -25.233  0.00  0.00    +0.040 C 
ATOM     16  C   UNL     1      33.430  -5.692 -26.617  0.00  0.00    +0.006 C 
ATOM     17  C   UNL     1      35.129  -5.838 -24.765  0.00  0.00    +0.006 C 
ENDBRANCH   7  15
ENDBRANCH   2  13
BRANCH   3  18
ATOM     18  C   UNL     1      32.598 -12.258 -21.476  0.00  0.00    +0.054 C 
ATOM     19  C   UNL     1      33.909 -14.117 -22.257  0.00  0.00    +0.000 C 
ATOM     20  C   UNL     1      33.791 -14.715 -20.980  0.00  0.00    +0.000 C 
ATOM     21  C   UNL     1      33.301 -12.873 -22.492  0.00  0.00    +0.005 C 
ATOM     22  C   UNL     1      32.468 -12.818 -20.226  0.00  0.00    +0.005 C 
ATOM     23  C   UNL     1      33.066 -14.053 -19.975  0.00  0.00    +0.000 C 
ATOM     24  C   UNL     1      34.399 -15.959 -20.746  0.00  0.00    +0.003 C 
ATOM     25  C   UNL     1      34.633 -14.780 -23.261  0.00  0.00    +0.000 C 
ATOM     26  C   UNL     1      35.115 -16.604 -21.755  0.00  0.00    +0.031 C 
ATOM     27  C   UNL     1      35.232 -16.015 -23.011  0.00  0.00    +0.003 C 
BRANCH  26  30
ATOM     28  N   UNL     1      35.179 -18.803 -20.605  0.00  0.00    -0.343 N 
ATOM     29  N   UNL     1      36.866 -18.211 -22.111  0.00  0.00    -0.285 NA
ATOM     30  C   UNL     1      35.740 -17.891 -21.496  0.00  0.00    +0.117 C 
ATOM     31  H   UNL     1      35.620 -19.669 -20.445  0.00  0.00    +0.144 HD
ATOM     32  H   UNL     1      34.343 -18.581 -20.135  0.00  0.00    +0.144 HD
ATOM     33  H   UNL     1      37.292 -19.082 -21.936  0.00  0.00    +0.188 HD
ENDBRANCH  26  30
ENDBRANCH   3  18
TORSDOF 4
ENDMDL
MODEL 7
REMARK VINA RESULT:     -11.0      1.023      2.693
REMARK  Name = 447735
REMARK  4 active torsions:
REMARK  status: ('A' for Active; 'I' for Inactive)
REMARK    1  A    between atoms: N_2  and  C_13
REMARK    2  A    between atoms: C_3  and  C_18
REMARK    3  A    between atoms: C_7  and  C_15
REMARK    4  A    between atoms: C_26  and  C_30
REMARK                            x       y       z     vdW  Elec       q    Type
REMARK                         _______ _______ _______ _____ _____    ______ ____
ROOT
ATOM      1  O   UNL     1      34.495 -23.354 -17.321  0.00  0.00    -0.270 OA
ATOM      2  N   UNL     1      36.530 -22.258 -16.889  0.00  0.00    -0.280 N 
ATOM      3  C   UNL     1      35.317 -22.475 -17.556  0.00  0.00    +0.249 C 
ATOM      4  H   UNL     1      37.069 -21.500 -17.211  0.00  0.00    +0.155 HD
ENDROOT
BRANCH   2  13
ATOM      5  N   UNL     1      36.355 -25.475 -11.724  0.00  0.00    -0.274 NA
ATOM      6  C   UNL     1      36.780 -24.111 -13.710  0.00  0.00    +0.010 C 
ATOM      7  C   UNL     1      35.972 -24.555 -12.546  0.00  0.00    +0.053 C 
ATOM      8  C   UNL     1      38.141 -24.441 -13.697  0.00  0.00    -0.019 C 
ATOM      9  C   UNL     1      38.688 -25.195 -12.521  0.00  0.00    +0.053 C 
ATOM     10  C   UNL     1      37.626 -26.154 -12.000  0.00  0.00    +0.130 C 
ATOM     11  C   UNL     1      36.237 -23.387 -14.774  0.00  0.00    +0.016 C 
ATOM     12  C   UNL     1      38.965 -24.017 -14.744  0.00  0.00    -0.003 C 
ATOM     13  C   UNL     1      37.064 -22.982 -15.823  0.00  0.00    +0.051 C 
ATOM     14  C   UNL     1      38.424 -23.293 -15.806  0.00  0.00    +0.014 C 
BRANCH   7  15
ATOM     15  C   UNL     1      34.635 -23.900 -12.297  0.00  0.00    +0.040 C 
ATOM     16  C   UNL     1      33.548 -24.770 -12.903  0.00  0.00    +0.006 C 
ATOM     17  C   UNL     1      34.443 -23.709 -10.803  0.00  0.00    +0.006 C 
ENDBRANCH   7  15
ENDBRANCH   2  13
BRANCH   3  18
ATOM     18  C   UNL     1      35.032 -21.544 -18.680  0.00  0.00    +0.054 C 
ATOM     19  C   UNL     1      35.821 -19.942 -20.291  0.00  0.00    +0.000 C 
ATOM     20  C   UNL     1      34.500 -19.808 -20.779  0.00  0.00    +0.000 C 
ATOM     21  C   UNL     1      36.074 -20.826 -19.229  0.00  0.00    +0.005 C 
ATOM     22  C   UNL     1      33.739 -21.432 -19.135  0.00  0.00    +0.005 C 
ATOM     23  C   UNL     1      33.469 -20.560 -20.191  0.00  0.00    +0.000 C 
ATOM     24  C   UNL     1      34.247 -18.924 -21.841  0.00  0.00    +0.003 C 
ATOM     25  C   UNL     1      36.850 -19.190 -20.880  0.00  0.00    +0.000 C 
ATOM     26  C   UNL     1      35.282 -18.185 -22.415  0.00  0.00    +0.031 C 
ATOM     27  C   UNL     1      36.581 -18.318 -21.934  0.00  0.00    +0.003 C 
BRANCH  26  30
ATOM     28  N   UNL     1      35.417 -15.945 -23.477  0.00  0.00    -0.343 N 
ATOM     29  N   UNL     1      34.343 -17.707 -24.574  0.00  0.00    -0.285 NA
ATOM     30  C   UNL     1      35.004 -17.275 -23.514  0.00  0.00    +0.117 C 
ATOM     31  H   UNL     1      35.217 -15.347 -24.233  0.00  0.00    +0.144 HD
ATOM     32  H   UNL     1      35.907 -15.603 -22.695  0.00  0.00    +0.144 HD
ATOM     33  H   UNL     1      34.153 -17.093 -25.320  0.00  0.00    +0.188 HD
ENDBRANCH  26  30
ENDBRANCH   3  18
TORSDOF 4
ENDMDL
MODEL 8
REMARK VINA RESULT:     -10.8     10.374     17.254
REMARK  Name = 447735
REMARK  4 active torsions:
REMARK  status: ('A' for Active; 'I' for Inactive)
REMARK    1  A    between atoms: N_2  and  C_13
REMARK    2  A    between atoms: C_3  and  C_18
REMARK    3  A    between atoms: C_7  and  C_15
REMARK    4  A    between atoms: C_26  and  C_30
REMARK                            x       y       z     vdW  Elec       q    Type
REMARK                         _______ _______ _______ _____ _____    ______ ____
ROOT
ATOM      1  O   UNL     1      30.643  -9.232 -22.921  0.00  0.00    -0.270 OA
ATOM      2  N   UNL     1      32.682  -8.127 -22.536  0.00  0.00    -0.280 N 
ATOM      3  C   UNL     1      31.859  -9.237 -22.767  0.00  0.00    +0.249 C 
ATOM      4  H   UNL     1      33.643  -8.316 -22.435  0.00  0.00    +0.155 HD
ENDROOT
BRANCH   2  13
ATOM      5  N   UNL     1      31.686  -2.473 -24.561  0.00  0.00    -0.274 NA
ATOM      6  C   UNL     1      32.112  -4.590 -23.409  0.00  0.00    +0.010 C 
ATOM      7  C   UNL     1      32.298  -3.610 -24.510  0.00  0.00    +0.053 C 
ATOM      8  C   UNL     1      31.541  -4.107 -22.224  0.00  0.00    -0.019 C 
ATOM      9  C   UNL     1      31.177  -2.656 -22.139  0.00  0.00    +0.053 C 
ATOM     10  C   UNL     1      30.711  -2.172 -23.506  0.00  0.00    +0.130 C 
ATOM     11  C   UNL     1      32.490  -5.930 -23.519  0.00  0.00    +0.016 C 
ATOM     12  C   UNL     1      31.377  -4.971 -21.137  0.00  0.00    -0.003 C 
ATOM     13  C   UNL     1      32.307  -6.787 -22.433  0.00  0.00    +0.051 C 
ATOM     14  C   UNL     1      31.755  -6.308 -21.245  0.00  0.00    +0.014 C 
BRANCH   7  15
ATOM     15  C   UNL     1      33.255  -3.945 -25.628  0.00  0.00    +0.040 C 
ATOM     16  C   UNL     1      32.474  -4.601 -26.753  0.00  0.00    +0.006 C 
ATOM     17  C   UNL     1      33.955  -2.678 -26.084  0.00  0.00    +0.006 C 
ENDBRANCH   7  15
ENDBRANCH   2  13
BRANCH   3  18
ATOM     18  C   UNL     1      32.555 -10.551 -22.796  0.00  0.00    +0.054 C 
ATOM     19  C   UNL     1      33.132 -12.612 -21.701  0.00  0.00    +0.000 C 
ATOM     20  C   UNL     1      33.853 -13.004 -22.854  0.00  0.00    +0.000 C 
ATOM     21  C   UNL     1      32.480 -11.368 -21.688  0.00  0.00    +0.005 C 
ATOM     22  C   UNL     1      33.249 -10.907 -23.930  0.00  0.00    +0.005 C 
ATOM     23  C   UNL     1      33.902 -12.140 -23.961  0.00  0.00    +0.000 C 
ATOM     24  C   UNL     1      34.505 -14.248 -22.866  0.00  0.00    +0.003 C 
ATOM     25  C   UNL     1      33.084 -13.477 -20.595  0.00  0.00    +0.000 C 
ATOM     26  C   UNL     1      34.447 -15.094 -21.758  0.00  0.00    +0.031 C 
ATOM     27  C   UNL     1      33.738 -14.709 -20.625  0.00  0.00    +0.003 C 
BRANCH  26  30
ATOM     28  N   UNL     1      35.623 -16.909 -22.976  0.00  0.00    -0.343 N 
ATOM     29  N   UNL     1      35.278 -17.069 -20.670  0.00  0.00    -0.285 NA
ATOM     30  C   UNL     1      35.126 -16.379 -21.788  0.00  0.00    +0.117 C 
ATOM     31  H   UNL     1      36.081 -17.781 -22.973  0.00  0.00    +0.144 HD
ATOM     32  H   UNL     1      35.518 -16.412 -23.820  0.00  0.00    +0.144 HD
ATOM     33  H   UNL     1      35.738 -17.940 -20.688  0.00  0.00    +0.188 HD
ENDBRANCH  26  30
ENDBRANCH   3  18
TORSDOF 4
ENDMDL
MODEL 9
REMARK VINA RESULT:     -10.2      2.649      4.654
REMARK  Name = 447735
REMARK  4 active torsions:
REMARK  status: ('A' for Active; 'I' for Inactive)
REMARK    1  A    between atoms: N_2  and  C_13
REMARK    2  A    between atoms: C_3  and  C_18
REMARK    3  A    between atoms: C_7  and  C_15
REMARK    4  A    between atoms: C_26  and  C_30
REMARK                            x       y       z     vdW  Elec       q    Type
REMARK                         _______ _______ _______ _____ _____    ______ ____
ROOT
ATOM      1  O   UNL     1      37.600 -20.012 -19.771  0.00  0.00    -0.270 OA
ATOM      2  N   UNL     1      35.446 -20.661 -19.087  0.00  0.00    -0.280 N 
ATOM      3  C   UNL     1      36.380 -19.999 -19.895  0.00  0.00    +0.249 C 
ATOM      4  H   UNL     1      34.501 -20.541 -19.333  0.00  0.00    +0.155 HD
ENDROOT
BRANCH   2  13
ATOM      5  N   UNL     1      34.001 -24.507 -14.594  0.00  0.00    -0.274 NA
ATOM      6  C   UNL     1      34.879 -22.875 -16.193  0.00  0.00    +0.010 C 
ATOM      7  C   UNL     1      33.798 -23.522 -15.406  0.00  0.00    +0.053 C 
ATOM      8  C   UNL     1      36.194 -23.101 -15.764  0.00  0.00    -0.019 C 
ATOM      9  C   UNL     1      36.420 -23.953 -14.551  0.00  0.00    +0.053 C 
ATOM     10  C   UNL     1      35.362 -25.048 -14.501  0.00  0.00    +0.130 C 
ATOM     11  C   UNL     1      34.625 -22.066 -17.302  0.00  0.00    +0.016 C 
ATOM     12  C   UNL     1      37.254 -22.488 -16.439  0.00  0.00    -0.003 C 
ATOM     13  C   UNL     1      35.692 -21.471 -17.978  0.00  0.00    +0.051 C 
ATOM     14  C   UNL     1      37.001 -21.679 -17.546  0.00  0.00    +0.014 C 
BRANCH   7  15
ATOM     15  C   UNL     1      32.387 -23.006 -15.548  0.00  0.00    +0.040 C 
ATOM     16  C   UNL     1      31.509 -24.132 -16.063  0.00  0.00    +0.006 C 
ATOM     17  C   UNL     1      31.910 -22.480 -14.207  0.00  0.00    +0.006 C 
ENDBRANCH   7  15
ENDBRANCH   2  13
BRANCH   3  18
ATOM     18  C   UNL     1      35.805 -19.182 -20.996  0.00  0.00    +0.054 C 
ATOM     19  C   UNL     1      35.163 -17.031 -21.857  0.00  0.00    +0.000 C 
ATOM     20  C   UNL     1      34.733 -17.656 -23.052  0.00  0.00    +0.000 C 
ATOM     21  C   UNL     1      35.704 -17.817 -20.827  0.00  0.00    +0.005 C 
ATOM     22  C   UNL     1      35.395 -19.815 -22.146  0.00  0.00    +0.005 C 
ATOM     23  C   UNL     1      34.855 -19.050 -23.181  0.00  0.00    +0.000 C 
ATOM     24  C   UNL     1      34.192 -16.870 -24.082  0.00  0.00    +0.003 C 
ATOM     25  C   UNL     1      35.039 -15.638 -21.730  0.00  0.00    +0.000 C 
ATOM     26  C   UNL     1      34.077 -15.487 -23.938  0.00  0.00    +0.031 C 
ATOM     27  C   UNL     1      34.500 -14.872 -22.763  0.00  0.00    +0.003 C 
BRANCH  26  30
ATOM     28  N   UNL     1      33.407 -13.302 -24.908  0.00  0.00    -0.343 N 
ATOM     29  N   UNL     1      33.091 -15.276 -26.119  0.00  0.00    -0.285 NA
ATOM     30  C   UNL     1      33.515 -14.688 -25.014  0.00  0.00    +0.117 C 
ATOM     31  H   UNL     1      33.024 -12.781 -25.650  0.00  0.00    +0.144 HD
ATOM     32  H   UNL     1      33.715 -12.845 -24.092  0.00  0.00    +0.144 HD
ATOM     33  H   UNL     1      32.710 -14.737 -26.850  0.00  0.00    +0.188 HD
ENDBRANCH  26  30
ENDBRANCH   3  18
TORSDOF 4
ENDMDL
