MODEL 1
REMARK VINA RESULT:     -11.4      0.000      0.000
REMARK  Name = 73777259
REMARK  4 active torsions:
REMARK  status: ('A' for Active; 'I' for Inactive)
REMARK    1  A    between atoms: N_3  and  C_16
REMARK    2  A    between atoms: N_4  and  C_23
REMARK    3  A    between atoms: C_16  and  C_17
REMARK    4  A    between atoms: C_23  and  C_24
REMARK                            x       y       z     vdW  Elec       q    Type
REMARK                         _______ _______ _______ _____ _____    ______ ____
ROOT
ATOM      1  O   UNL     1      33.947 -12.687 -24.549  0.00  0.00    -0.270 OA
ATOM      2  N   UNL     1      32.739 -12.580 -20.702  0.00  0.00    -0.240 N 
ATOM      3  N   UNL     1      34.633 -16.090 -22.070  0.00  0.00    +0.393 N 
ATOM      4  N   UNL     1      32.781 -11.570 -22.860  0.00  0.00    -0.224 N 
ATOM      5  N   UNL     1      31.660 -10.585 -20.998  0.00  0.00    -0.214 NA
ATOM      6  C   UNL     1      33.482 -13.654 -21.143  0.00  0.00    +0.032 C 
ATOM      7  C   UNL     1      33.890 -13.737 -22.425  0.00  0.00    +0.021 C 
ATOM      8  C   UNL     1      33.840 -14.747 -20.164  0.00  0.00    +0.019 C 
ATOM      9  C   UNL     1      34.673 -14.912 -22.953  0.00  0.00    -0.044 C 
ATOM     10  C   UNL     1      34.924 -15.703 -20.685  0.00  0.00    -0.070 C 
ATOM     11  C   UNL     1      32.376 -11.547 -21.526  0.00  0.00    +0.202 C 
ATOM     12  C   UNL     1      32.217 -12.335 -19.380  0.00  0.00    +0.092 C 
ATOM     13  C   UNL     1      33.549 -12.624 -23.385  0.00  0.00    +0.250 C 
ATOM     14  C   UNL     1      31.477 -11.005 -19.579  0.00  0.00    +0.118 C 
ATOM     15  H   UNL     1      33.692 -16.484 -22.097  0.00  0.00    -0.079 HD
ENDROOT
BRANCH   3  16
ATOM     16  C   UNL     1      35.565 -17.116 -22.534  0.00  0.00    -0.049 C 
BRANCH  16  17
ATOM     17  C   UNL     1      35.589 -18.308 -21.615  0.00  0.00    -0.043 C 
ATOM     18  C   UNL     1      34.426 -19.045 -21.397  0.00  0.00    -0.006 C 
ATOM     19  C   UNL     1      36.777 -18.675 -20.981  0.00  0.00    -0.006 C 
ATOM     20  C   UNL     1      34.448 -20.149 -20.544  0.00  0.00    -0.000 C 
ATOM     21  C   UNL     1      36.800 -19.778 -20.128  0.00  0.00    -0.000 C 
ATOM     22  C   UNL     1      35.635 -20.515 -19.911  0.00  0.00    -0.000 C 
ENDBRANCH  16  17
ENDBRANCH   3  16
BRANCH   4  23
ATOM     23  C   UNL     1      32.399 -10.462 -23.730  0.00  0.00    +0.127 C 
BRANCH  23  24
ATOM     24  C   UNL     1      33.274  -9.255 -23.516  0.00  0.00    -0.006 C 
ATOM     25  C   UNL     1      32.717  -8.005 -23.246  0.00  0.00    -0.024 C 
ATOM     26  C   UNL     1      34.659  -9.400 -23.592  0.00  0.00    -0.003 C 
ATOM     27  C   UNL     1      33.546  -6.900 -23.052  0.00  0.00    -0.005 C 
ATOM     28  C   UNL     1      31.237  -7.825 -23.160  0.00  0.00    +0.031 C 
ATOM     29  C   UNL     1      35.488  -8.295 -23.397  0.00  0.00    -0.000 C 
ATOM     30  C   UNL     1      34.931  -7.045 -23.127  0.00  0.00    -0.000 C 
ENDBRANCH  23  24
ENDBRANCH   4  23
TORSDOF 4
ENDMDL
MODEL 2
REMARK VINA RESULT:     -10.6      6.948     13.187
REMARK  Name = 73777259
REMARK  4 active torsions:
REMARK  status: ('A' for Active; 'I' for Inactive)
REMARK    1  A    between atoms: N_3  and  C_16
REMARK    2  A    between atoms: N_4  and  C_23
REMARK    3  A    between atoms: C_16  and  C_17
REMARK    4  A    between atoms: C_23  and  C_24
REMARK                            x       y       z     vdW  Elec       q    Type
REMARK                         _______ _______ _______ _____ _____    ______ ____
ROOT
ATOM      1  O   UNL     1      37.305 -22.189 -15.626  0.00  0.00    -0.270 OA
ATOM      2  N   UNL     1      33.430 -22.895 -16.495  0.00  0.00    -0.240 N 
ATOM      3  N   UNL     1      35.705 -20.709 -19.292  0.00  0.00    +0.393 N 
ATOM      4  N   UNL     1      35.226 -22.998 -14.932  0.00  0.00    -0.224 N 
ATOM      5  N   UNL     1      33.031 -23.784 -14.426  0.00  0.00    -0.214 NA
ATOM      6  C   UNL     1      34.236 -22.305 -17.446  0.00  0.00    +0.032 C 
ATOM      7  C   UNL     1      35.531 -22.036 -17.189  0.00  0.00    +0.021 C 
ATOM      8  C   UNL     1      33.646 -21.963 -18.793  0.00  0.00    +0.019 C 
ATOM      9  C   UNL     1      36.433 -21.360 -18.190  0.00  0.00    -0.044 C 
ATOM     10  C   UNL     1      34.702 -21.620 -19.854  0.00  0.00    -0.070 C 
ATOM     11  C   UNL     1      33.890 -23.239 -15.251  0.00  0.00    +0.202 C 
ATOM     12  C   UNL     1      32.035 -23.244 -16.595  0.00  0.00    +0.092 C 
ATOM     13  C   UNL     1      36.114 -22.409 -15.849  0.00  0.00    +0.250 C 
ATOM     14  C   UNL     1      31.757 -23.824 -15.202  0.00  0.00    +0.118 C 
ATOM     15  H   UNL     1      35.218 -19.893 -18.921  0.00  0.00    -0.079 HD
ENDROOT
BRANCH   3  16
ATOM     16  C   UNL     1      36.633 -20.250 -20.324  0.00  0.00    -0.049 C 
BRANCH  16  17
ATOM     17  C   UNL     1      35.977 -19.289 -21.280  0.00  0.00    -0.043 C 
ATOM     18  C   UNL     1      35.305 -19.771 -22.403  0.00  0.00    -0.006 C 
ATOM     19  C   UNL     1      36.040 -17.916 -21.041  0.00  0.00    -0.006 C 
ATOM     20  C   UNL     1      34.698 -18.880 -23.289  0.00  0.00    -0.000 C 
ATOM     21  C   UNL     1      35.433 -17.025 -21.926  0.00  0.00    -0.000 C 
ATOM     22  C   UNL     1      34.762 -17.508 -23.050  0.00  0.00    -0.000 C 
ENDBRANCH  16  17
ENDBRANCH   3  16
BRANCH   4  23
ATOM     23  C   UNL     1      35.712 -23.375 -13.608  0.00  0.00    +0.127 C 
BRANCH  23  24
ATOM     24  C   UNL     1      36.515 -24.649 -13.648  0.00  0.00    -0.006 C 
ATOM     25  C   UNL     1      37.556 -24.868 -12.746  0.00  0.00    -0.024 C 
ATOM     26  C   UNL     1      36.203 -25.616 -14.603  0.00  0.00    -0.003 C 
ATOM     27  C   UNL     1      38.286 -26.054 -12.801  0.00  0.00    -0.005 C 
ATOM     28  C   UNL     1      37.908 -23.847 -11.715  0.00  0.00    +0.031 C 
ATOM     29  C   UNL     1      36.933 -26.803 -14.656  0.00  0.00    -0.000 C 
ATOM     30  C   UNL     1      37.976 -27.022 -13.756  0.00  0.00    -0.000 C 
ENDBRANCH  23  24
ENDBRANCH   4  23
TORSDOF 4
ENDMDL
MODEL 3
REMARK VINA RESULT:     -10.5      1.250      1.799
REMARK  Name = 73777259
REMARK  4 active torsions:
REMARK  status: ('A' for Active; 'I' for Inactive)
REMARK    1  A    between atoms: N_3  and  C_16
REMARK    2  A    between atoms: N_4  and  C_23
REMARK    3  A    between atoms: C_16  and  C_17
REMARK    4  A    between atoms: C_23  and  C_24
REMARK                            x       y       z     vdW  Elec       q    Type
REMARK                         _______ _______ _______ _____ _____    ______ ____
ROOT
ATOM      1  O   UNL     1      33.107 -10.963 -24.515  0.00  0.00    -0.270 OA
ATOM      2  N   UNL     1      32.368 -11.673 -20.613  0.00  0.00    -0.240 N 
ATOM      3  N   UNL     1      34.059 -14.791 -22.893  0.00  0.00    +0.393 N 
ATOM      4  N   UNL     1      32.160 -10.239 -22.505  0.00  0.00    -0.224 N 
ATOM      5  N   UNL     1      31.277  -9.680 -20.360  0.00  0.00    -0.214 NA
ATOM      6  C   UNL     1      33.045 -12.620 -21.353  0.00  0.00    +0.032 C 
ATOM      7  C   UNL     1      33.297 -12.429 -22.663  0.00  0.00    +0.021 C 
ATOM      8  C   UNL     1      33.510 -13.885 -20.671  0.00  0.00    +0.019 C 
ATOM      9  C   UNL     1      34.002 -13.457 -23.512  0.00  0.00    -0.044 C 
ATOM     10  C   UNL     1      34.516 -14.694 -21.503  0.00  0.00    -0.070 C 
ATOM     11  C   UNL     1      31.918 -10.499 -21.157  0.00  0.00    +0.202 C 
ATOM     12  C   UNL     1      32.011 -11.716 -19.217  0.00  0.00    +0.092 C 
ATOM     13  C   UNL     1      32.851 -11.149 -23.324  0.00  0.00    +0.250 C 
ATOM     14  C   UNL     1      31.262 -10.387 -19.047  0.00  0.00    +0.118 C 
ATOM     15  H   UNL     1      33.119 -15.188 -22.890  0.00  0.00    -0.079 HD
ENDROOT
BRANCH   3  16
ATOM     16  C   UNL     1      34.921 -15.683 -23.667  0.00  0.00    -0.049 C 
BRANCH  16  17
ATOM     17  C   UNL     1      34.955 -17.072 -23.087  0.00  0.00    -0.043 C 
ATOM     18  C   UNL     1      35.484 -17.284 -21.814  0.00  0.00    -0.006 C 
ATOM     19  C   UNL     1      34.458 -18.147 -23.823  0.00  0.00    -0.006 C 
ATOM     20  C   UNL     1      35.516 -18.571 -21.277  0.00  0.00    -0.000 C 
ATOM     21  C   UNL     1      34.491 -19.435 -23.287  0.00  0.00    -0.000 C 
ATOM     22  C   UNL     1      35.020 -19.646 -22.014  0.00  0.00    -0.000 C 
ENDBRANCH  16  17
ENDBRANCH   3  16
BRANCH   4  23
ATOM     23  C   UNL     1      31.685  -8.982 -23.075  0.00  0.00    +0.127 C 
BRANCH  23  24
ATOM     24  C   UNL     1      32.817  -8.028 -23.351  0.00  0.00    -0.006 C 
ATOM     25  C   UNL     1      32.609  -6.861 -24.086  0.00  0.00    -0.024 C 
ATOM     26  C   UNL     1      34.088  -8.326 -22.859  0.00  0.00    -0.003 C 
ATOM     27  C   UNL     1      33.672  -5.993 -24.329  0.00  0.00    -0.005 C 
ATOM     28  C   UNL     1      31.257  -6.523 -24.622  0.00  0.00    +0.031 C 
ATOM     29  C   UNL     1      35.151  -7.456 -23.102  0.00  0.00    -0.000 C 
ATOM     30  C   UNL     1      34.942  -6.289 -23.838  0.00  0.00    -0.000 C 
ENDBRANCH  23  24
ENDBRANCH   4  23
TORSDOF 4
ENDMDL
MODEL 4
REMARK VINA RESULT:     -10.2      0.417      1.584
REMARK  Name = 73777259
REMARK  4 active torsions:
REMARK  status: ('A' for Active; 'I' for Inactive)
REMARK    1  A    between atoms: N_3  and  C_16
REMARK    2  A    between atoms: N_4  and  C_23
REMARK    3  A    between atoms: C_16  and  C_17
REMARK    4  A    between atoms: C_23  and  C_24
REMARK                            x       y       z     vdW  Elec       q    Type
REMARK                         _______ _______ _______ _____ _____    ______ ____
ROOT
ATOM      1  O   UNL     1      34.073 -12.670 -24.589  0.00  0.00    -0.270 OA
ATOM      2  N   UNL     1      32.712 -12.536 -20.794  0.00  0.00    -0.240 N 
ATOM      3  N   UNL     1      34.643 -16.062 -22.067  0.00  0.00    +0.393 N 
ATOM      4  N   UNL     1      32.846 -11.538 -22.955  0.00  0.00    -0.224 N 
ATOM      5  N   UNL     1      31.656 -10.538 -21.144  0.00  0.00    -0.214 NA
ATOM      6  C   UNL     1      33.467 -13.616 -21.200  0.00  0.00    +0.032 C 
ATOM      7  C   UNL     1      33.926 -13.707 -22.464  0.00  0.00    +0.021 C 
ATOM      8  C   UNL     1      33.781 -14.705 -20.202  0.00  0.00    +0.019 C 
ATOM      9  C   UNL     1      34.724 -14.889 -22.954  0.00  0.00    -0.044 C 
ATOM     10  C   UNL     1      34.880 -15.669 -20.674  0.00  0.00    -0.070 C 
ATOM     11  C   UNL     1      32.388 -11.505 -21.638  0.00  0.00    +0.202 C 
ATOM     12  C   UNL     1      32.139 -12.281 -19.496  0.00  0.00    +0.092 C 
ATOM     13  C   UNL     1      33.628 -12.599 -23.443  0.00  0.00    +0.250 C 
ATOM     14  C   UNL     1      31.414 -10.949 -19.731  0.00  0.00    +0.118 C 
ATOM     15  H   UNL     1      33.702 -16.451 -22.130  0.00  0.00    -0.079 HD
ENDROOT
BRANCH   3  16
ATOM     16  C   UNL     1      35.588 -17.094 -22.488  0.00  0.00    -0.049 C 
BRANCH  16  17
ATOM     17  C   UNL     1      35.539 -18.299 -21.587  0.00  0.00    -0.043 C 
ATOM     18  C   UNL     1      36.691 -18.724 -20.925  0.00  0.00    -0.006 C 
ATOM     19  C   UNL     1      34.339 -18.992 -21.414  0.00  0.00    -0.006 C 
ATOM     20  C   UNL     1      36.645 -19.841 -20.091  0.00  0.00    -0.000 C 
ATOM     21  C   UNL     1      34.294 -20.109 -20.580  0.00  0.00    -0.000 C 
ATOM     22  C   UNL     1      35.446 -20.533 -19.918  0.00  0.00    -0.000 C 
ENDBRANCH  16  17
ENDBRANCH   3  16
BRANCH   4  23
ATOM     23  C   UNL     1      32.505 -10.433 -23.845  0.00  0.00    +0.127 C 
BRANCH  23  24
ATOM     24  C   UNL     1      32.999  -9.113 -23.315  0.00  0.00    -0.006 C 
ATOM     25  C   UNL     1      34.356  -8.791 -23.345  0.00  0.00    -0.024 C 
ATOM     26  C   UNL     1      32.078  -8.207 -22.790  0.00  0.00    -0.003 C 
ATOM     27  C   UNL     1      34.791  -7.563 -22.848  0.00  0.00    -0.005 C 
ATOM     28  C   UNL     1      35.360  -9.746 -23.901  0.00  0.00    +0.031 C 
ATOM     29  C   UNL     1      32.514  -6.978 -22.295  0.00  0.00    -0.000 C 
ATOM     30  C   UNL     1      33.871  -6.656 -22.324  0.00  0.00    -0.000 C 
ENDBRANCH  23  24
ENDBRANCH   4  23
TORSDOF 4
ENDMDL
MODEL 5
REMARK VINA RESULT:      -9.6      2.599      8.876
REMARK  Name = 73777259
REMARK  4 active torsions:
REMARK  status: ('A' for Active; 'I' for Inactive)
REMARK    1  A    between atoms: N_3  and  C_16
REMARK    2  A    between atoms: N_4  and  C_23
REMARK    3  A    between atoms: C_16  and  C_17
REMARK    4  A    between atoms: C_23  and  C_24
REMARK                            x       y       z     vdW  Elec       q    Type
REMARK                         _______ _______ _______ _____ _____    ______ ____
ROOT
ATOM      1  O   UNL     1      33.159 -10.881 -24.123  0.00  0.00    -0.270 OA
ATOM      2  N   UNL     1      32.077  -9.249 -20.597  0.00  0.00    -0.240 N 
ATOM      3  N   UNL     1      34.618  -7.005 -23.103  0.00  0.00    +0.393 N 
ATOM      4  N   UNL     1      32.100 -11.133 -22.056  0.00  0.00    -0.224 N 
ATOM      5  N   UNL     1      31.059 -11.178 -19.909  0.00  0.00    -0.214 NA
ATOM      6  C   UNL     1      32.792  -8.489 -21.498  0.00  0.00    +0.032 C 
ATOM      7  C   UNL     1      33.188  -9.002 -22.679  0.00  0.00    +0.021 C 
ATOM      8  C   UNL     1      33.128  -7.060 -21.144  0.00  0.00    +0.019 C 
ATOM      9  C   UNL     1      34.002  -8.215 -23.674  0.00  0.00    -0.044 C 
ATOM     10  C   UNL     1      33.630  -6.237 -22.340  0.00  0.00    -0.070 C 
ATOM     11  C   UNL     1      31.729 -10.551 -20.844  0.00  0.00    +0.202 C 
ATOM     12  C   UNL     1      31.583  -8.867 -19.297  0.00  0.00    +0.092 C 
ATOM     13  C   UNL     1      32.822 -10.423 -23.031  0.00  0.00    +0.250 C 
ATOM     14  C   UNL     1      30.915 -10.166 -18.824  0.00  0.00    +0.118 C 
ATOM     15  H   UNL     1      35.360  -7.291 -22.463  0.00  0.00    -0.079 HD
ENDROOT
BRANCH   3  16
ATOM     16  C   UNL     1      35.221  -6.187 -24.154  0.00  0.00    -0.049 C 
BRANCH  16  17
ATOM     17  C   UNL     1      34.183  -5.597 -25.070  0.00  0.00    -0.043 C 
ATOM     18  C   UNL     1      33.188  -4.767 -24.554  0.00  0.00    -0.006 C 
ATOM     19  C   UNL     1      34.216  -5.882 -26.436  0.00  0.00    -0.006 C 
ATOM     20  C   UNL     1      32.225  -4.221 -25.404  0.00  0.00    -0.000 C 
ATOM     21  C   UNL     1      33.253  -5.336 -27.285  0.00  0.00    -0.000 C 
ATOM     22  C   UNL     1      32.258  -4.505 -26.769  0.00  0.00    -0.000 C 
ENDBRANCH  16  17
ENDBRANCH   3  16
BRANCH   4  23
ATOM     23  C   UNL     1      31.719 -12.518 -22.316  0.00  0.00    +0.127 C 
BRANCH  23  24
ATOM     24  C   UNL     1      32.825 -13.479 -21.968  0.00  0.00    -0.006 C 
ATOM     25  C   UNL     1      33.484 -14.203 -22.961  0.00  0.00    -0.024 C 
ATOM     26  C   UNL     1      33.187 -13.638 -20.631  0.00  0.00    -0.003 C 
ATOM     27  C   UNL     1      34.506 -15.087 -22.616  0.00  0.00    -0.005 C 
ATOM     28  C   UNL     1      33.113 -14.049 -24.399  0.00  0.00    +0.031 C 
ATOM     29  C   UNL     1      34.210 -14.522 -20.286  0.00  0.00    -0.000 C 
ATOM     30  C   UNL     1      34.868 -15.247 -21.279  0.00  0.00    -0.000 C 
ENDBRANCH  23  24
ENDBRANCH   4  23
TORSDOF 4
ENDMDL
MODEL 6
REMARK VINA RESULT:      -9.3      3.182      8.972
REMARK  Name = 73777259
REMARK  4 active torsions:
REMARK  status: ('A' for Active; 'I' for Inactive)
REMARK    1  A    between atoms: N_3  and  C_16
REMARK    2  A    between atoms: N_4  and  C_23
REMARK    3  A    between atoms: C_16  and  C_17
REMARK    4  A    between atoms: C_23  and  C_24
REMARK                            x       y       z     vdW  Elec       q    Type
REMARK                         _______ _______ _______ _____ _____    ______ ____
ROOT
ATOM      1  O   UNL     1      31.620  -9.697 -24.088  0.00  0.00    -0.270 OA
ATOM      2  N   UNL     1      31.865  -8.810 -20.161  0.00  0.00    -0.240 N 
ATOM      3  N   UNL     1      32.812  -5.770 -22.925  0.00  0.00    +0.393 N 
ATOM      4  N   UNL     1      31.550 -10.437 -21.873  0.00  0.00    -0.224 N 
ATOM      5  N   UNL     1      31.500 -10.983 -19.551  0.00  0.00    -0.214 NA
ATOM      6  C   UNL     1      32.033  -7.804 -21.089  0.00  0.00    +0.032 C 
ATOM      7  C   UNL     1      31.976  -8.062 -22.411  0.00  0.00    +0.021 C 
ATOM      8  C   UNL     1      32.281  -6.396 -20.604  0.00  0.00    +0.019 C 
ATOM      9  C   UNL     1      32.191  -6.996 -23.455  0.00  0.00    -0.044 C 
ATOM     10  C   UNL     1      32.127  -5.335 -21.704  0.00  0.00    -0.070 C 
ATOM     11  C   UNL     1      31.633 -10.112 -20.520  0.00  0.00    +0.202 C 
ATOM     12  C   UNL     1      31.901  -8.716 -18.722  0.00  0.00    +0.092 C 
ATOM     13  C   UNL     1      31.701  -9.468 -22.881  0.00  0.00    +0.250 C 
ATOM     14  C   UNL     1      31.675 -10.176 -18.309  0.00  0.00    +0.118 C 
ATOM     15  H   UNL     1      33.783  -5.976 -22.688  0.00  0.00    -0.079 HD
ENDROOT
BRANCH   3  16
ATOM     16  C   UNL     1      32.809  -4.712 -23.934  0.00  0.00    -0.049 C 
BRANCH  16  17
ATOM     17  C   UNL     1      33.548  -5.124 -25.179  0.00  0.00    -0.043 C 
ATOM     18  C   UNL     1      34.889  -5.499 -25.104  0.00  0.00    -0.006 C 
ATOM     19  C   UNL     1      32.890  -5.130 -26.410  0.00  0.00    -0.006 C 
ATOM     20  C   UNL     1      35.573  -5.879 -26.259  0.00  0.00    -0.000 C 
ATOM     21  C   UNL     1      33.574  -5.510 -27.565  0.00  0.00    -0.000 C 
ATOM     22  C   UNL     1      34.915  -5.884 -27.489  0.00  0.00    -0.000 C 
ENDBRANCH  16  17
ENDBRANCH   3  16
BRANCH   4  23
ATOM     23  C   UNL     1      31.293 -11.824 -22.248  0.00  0.00    +0.127 C 
BRANCH  23  24
ATOM     24  C   UNL     1      32.376 -12.748 -21.756  0.00  0.00    -0.006 C 
ATOM     25  C   UNL     1      33.571 -12.893 -22.461  0.00  0.00    -0.024 C 
ATOM     26  C   UNL     1      32.171 -13.462 -20.576  0.00  0.00    -0.003 C 
ATOM     27  C   UNL     1      34.560 -13.754 -21.987  0.00  0.00    -0.005 C 
ATOM     28  C   UNL     1      33.812 -12.138 -23.727  0.00  0.00    +0.031 C 
ATOM     29  C   UNL     1      33.162 -14.323 -20.101  0.00  0.00    -0.000 C 
ATOM     30  C   UNL     1      34.356 -14.469 -20.808  0.00  0.00    -0.000 C 
ENDBRANCH  23  24
ENDBRANCH   4  23
TORSDOF 4
ENDMDL
MODEL 7
REMARK VINA RESULT:      -9.1      2.207      3.661
REMARK  Name = 73777259
REMARK  4 active torsions:
REMARK  status: ('A' for Active; 'I' for Inactive)
REMARK    1  A    between atoms: N_3  and  C_16
REMARK    2  A    between atoms: N_4  and  C_23
REMARK    3  A    between atoms: C_16  and  C_17
REMARK    4  A    between atoms: C_23  and  C_24
REMARK                            x       y       z     vdW  Elec       q    Type
REMARK                         _______ _______ _______ _____ _____    ______ ____
ROOT
ATOM      1  O   UNL     1      34.403  -9.195 -23.958  0.00  0.00    -0.270 OA
ATOM      2  N   UNL     1      32.001 -10.323 -20.920  0.00  0.00    -0.240 N 
ATOM      3  N   UNL     1      32.731 -13.119 -23.991  0.00  0.00    +0.393 N 
ATOM      4  N   UNL     1      33.232  -8.606 -22.024  0.00  0.00    -0.224 N 
ATOM      5  N   UNL     1      31.982  -8.217 -20.028  0.00  0.00    -0.214 NA
ATOM      6  C   UNL     1      32.370 -11.255 -21.867  0.00  0.00    +0.032 C 
ATOM      7  C   UNL     1      33.157 -10.915 -22.907  0.00  0.00    +0.021 C 
ATOM      8  C   UNL     1      31.882 -12.677 -21.722  0.00  0.00    +0.019 C 
ATOM      9  C   UNL     1      33.553 -11.897 -23.980  0.00  0.00    -0.044 C 
ATOM     10  C   UNL     1      32.614 -13.670 -22.637  0.00  0.00    -0.070 C 
ATOM     11  C   UNL     1      32.405  -9.015 -20.978  0.00  0.00    +0.202 C 
ATOM     12  C   UNL     1      31.167 -10.509 -19.758  0.00  0.00    +0.092 C 
ATOM     13  C   UNL     1      33.660  -9.498 -23.023  0.00  0.00    +0.250 C 
ATOM     14  C   UNL     1      31.137  -9.093 -19.166  0.00  0.00    +0.118 C 
ATOM     15  H   UNL     1      31.795 -12.877 -24.316  0.00  0.00    -0.079 HD
ENDROOT
BRANCH   3  16
ATOM     16  C   UNL     1      33.287 -14.107 -24.913  0.00  0.00    -0.049 C 
BRANCH  16  17
ATOM     17  C   UNL     1      33.972 -15.231 -24.184  0.00  0.00    -0.043 C 
ATOM     18  C   UNL     1      33.923 -16.528 -24.695  0.00  0.00    -0.006 C 
ATOM     19  C   UNL     1      34.656 -14.976 -22.994  0.00  0.00    -0.006 C 
ATOM     20  C   UNL     1      34.557 -17.570 -24.018  0.00  0.00    -0.000 C 
ATOM     21  C   UNL     1      35.290 -16.018 -22.317  0.00  0.00    -0.000 C 
ATOM     22  C   UNL     1      35.241 -17.314 -22.829  0.00  0.00    -0.000 C 
ENDBRANCH  16  17
ENDBRANCH   3  16
BRANCH   4  23
ATOM     23  C   UNL     1      33.666  -7.214 -22.074  0.00  0.00    +0.127 C 
BRANCH  23  24
ATOM     24  C   UNL     1      32.976  -6.451 -23.173  0.00  0.00    -0.006 C 
ATOM     25  C   UNL     1      33.702  -5.906 -24.232  0.00  0.00    -0.024 C 
ATOM     26  C   UNL     1      31.592  -6.293 -23.122  0.00  0.00    -0.003 C 
ATOM     27  C   UNL     1      33.043  -5.202 -25.239  0.00  0.00    -0.005 C 
ATOM     28  C   UNL     1      35.185  -6.061 -24.308  0.00  0.00    +0.031 C 
ATOM     29  C   UNL     1      30.932  -5.590 -24.131  0.00  0.00    -0.000 C 
ATOM     30  C   UNL     1      31.658  -5.044 -25.189  0.00  0.00    -0.000 C 
ENDBRANCH  23  24
ENDBRANCH   4  23
TORSDOF 4
ENDMDL
MODEL 8
REMARK VINA RESULT:      -9.1      8.722     13.190
REMARK  Name = 73777259
REMARK  4 active torsions:
REMARK  status: ('A' for Active; 'I' for Inactive)
REMARK    1  A    between atoms: N_3  and  C_16
REMARK    2  A    between atoms: N_4  and  C_23
REMARK    3  A    between atoms: C_16  and  C_17
REMARK    4  A    between atoms: C_23  and  C_24
REMARK                            x       y       z     vdW  Elec       q    Type
REMARK                         _______ _______ _______ _____ _____    ______ ____
ROOT
ATOM      1  O   UNL     1      32.798 -23.817 -16.458  0.00  0.00    -0.270 OA
ATOM      2  N   UNL     1      35.587 -23.336 -13.583  0.00  0.00    -0.240 N 
ATOM      3  N   UNL     1      36.601 -22.200 -17.515  0.00  0.00    +0.393 N 
ATOM      4  N   UNL     1      33.457 -24.177 -14.245  0.00  0.00    -0.224 N 
ATOM      5  N   UNL     1      34.309 -24.424 -12.030  0.00  0.00    -0.214 NA
ATOM      6  C   UNL     1      35.835 -22.849 -14.849  0.00  0.00    +0.032 C 
ATOM      7  C   UNL     1      34.938 -23.004 -15.842  0.00  0.00    +0.021 C 
ATOM      8  C   UNL     1      37.136 -22.129 -15.113  0.00  0.00    +0.019 C 
ATOM      9  C   UNL     1      35.189 -22.518 -17.247  0.00  0.00    -0.044 C 
ATOM     10  C   UNL     1      37.152 -21.363 -16.444  0.00  0.00    -0.070 C 
ATOM     11  C   UNL     1      34.430 -23.997 -13.262  0.00  0.00    +0.202 C 
ATOM     12  C   UNL     1      36.430 -23.265 -12.415  0.00  0.00    +0.092 C 
ATOM     13  C   UNL     1      33.630 -23.702 -15.557  0.00  0.00    +0.250 C 
ATOM     14  C   UNL     1      35.584 -24.011 -11.375  0.00  0.00    +0.118 C 
ATOM     15  H   UNL     1      37.130 -23.073 -17.538  0.00  0.00    -0.079 HD
ENDROOT
BRANCH   3  16
ATOM     16  C   UNL     1      36.746 -21.551 -18.816  0.00  0.00    -0.049 C 
BRANCH  16  17
ATOM     17  C   UNL     1      35.420 -21.102 -19.370  0.00  0.00    -0.043 C 
ATOM     18  C   UNL     1      34.257 -21.801 -19.048  0.00  0.00    -0.006 C 
ATOM     19  C   UNL     1      35.355 -19.986 -20.205  0.00  0.00    -0.006 C 
ATOM     20  C   UNL     1      33.029 -21.386 -19.563  0.00  0.00    -0.000 C 
ATOM     21  C   UNL     1      34.127 -19.571 -20.719  0.00  0.00    -0.000 C 
ATOM     22  C   UNL     1      32.964 -20.271 -20.398  0.00  0.00    -0.000 C 
ENDBRANCH  16  17
ENDBRANCH   3  16
BRANCH   4  23
ATOM     23  C   UNL     1      32.224 -24.873 -13.894  0.00  0.00    +0.127 C 
BRANCH  23  24
ATOM     24  C   UNL     1      31.003 -24.069 -14.255  0.00  0.00    -0.006 C 
ATOM     25  C   UNL     1      29.906 -24.669 -14.872  0.00  0.00    -0.024 C 
ATOM     26  C   UNL     1      30.981 -22.705 -13.964  0.00  0.00    -0.003 C 
ATOM     27  C   UNL     1      28.786 -23.905 -15.198  0.00  0.00    -0.005 C 
ATOM     28  C   UNL     1      29.908 -26.127 -15.194  0.00  0.00    +0.031 C 
ATOM     29  C   UNL     1      29.860 -21.941 -14.290  0.00  0.00    -0.000 C 
ATOM     30  C   UNL     1      28.762 -22.541 -14.907  0.00  0.00    -0.000 C 
ENDBRANCH  23  24
ENDBRANCH   4  23
TORSDOF 4
ENDMDL
MODEL 9
REMARK VINA RESULT:      -9.1      2.263      4.168
REMARK  Name = 73777259
REMARK  4 active torsions:
REMARK  status: ('A' for Active; 'I' for Inactive)
REMARK    1  A    between atoms: N_3  and  C_16
REMARK    2  A    between atoms: N_4  and  C_23
REMARK    3  A    between atoms: C_16  and  C_17
REMARK    4  A    between atoms: C_23  and  C_24
REMARK                            x       y       z     vdW  Elec       q    Type
REMARK                         _______ _______ _______ _____ _____    ______ ____
ROOT
ATOM      1  O   UNL     1      35.408 -14.301 -20.689  0.00  0.00    -0.270 OA
ATOM      2  N   UNL     1      33.956 -15.662 -24.198  0.00  0.00    -0.240 N 
ATOM      3  N   UNL     1      36.058 -18.380 -21.754  0.00  0.00    +0.393 N 
ATOM      4  N   UNL     1      34.377 -13.830 -22.733  0.00  0.00    -0.224 N 
ATOM      5  N   UNL     1      33.322 -13.566 -24.857  0.00  0.00    -0.214 NA
ATOM      6  C   UNL     1      34.526 -16.554 -23.315  0.00  0.00    +0.032 C 
ATOM      7  C   UNL     1      35.039 -16.138 -22.140  0.00  0.00    +0.021 C 
ATOM      8  C   UNL     1      34.568 -18.019 -23.681  0.00  0.00    +0.019 C 
ATOM      9  C   UNL     1      35.703 -17.078 -21.166  0.00  0.00    -0.044 C 
ATOM     10  C   UNL     1      34.923 -18.934 -22.499  0.00  0.00    -0.070 C 
ATOM     11  C   UNL     1      33.876 -14.319 -23.939  0.00  0.00    +0.202 C 
ATOM     12  C   UNL     1      33.371 -15.930 -25.489  0.00  0.00    +0.092 C 
ATOM     13  C   UNL     1      34.965 -14.676 -21.776  0.00  0.00    +0.250 C 
ATOM     14  C   UNL     1      32.961 -14.522 -25.943  0.00  0.00    +0.118 C 
ATOM     15  H   UNL     1      36.828 -18.240 -22.409  0.00  0.00    -0.079 HD
ENDROOT
BRANCH   3  16
ATOM     16  C   UNL     1      36.510 -19.308 -20.719  0.00  0.00    -0.049 C 
BRANCH  16  17
ATOM     17  C   UNL     1      35.382 -20.156 -20.196  0.00  0.00    -0.043 C 
ATOM     18  C   UNL     1      34.062 -19.731 -20.344  0.00  0.00    -0.006 C 
ATOM     19  C   UNL     1      35.658 -21.369 -19.563  0.00  0.00    -0.006 C 
ATOM     20  C   UNL     1      33.017 -20.517 -19.858  0.00  0.00    -0.000 C 
ATOM     21  C   UNL     1      34.613 -22.155 -19.077  0.00  0.00    -0.000 C 
ATOM     22  C   UNL     1      33.293 -21.729 -19.225  0.00  0.00    -0.000 C 
ENDBRANCH  16  17
ENDBRANCH   3  16
BRANCH   4  23
ATOM     23  C   UNL     1      34.280 -12.400 -22.460  0.00  0.00    +0.127 C 
BRANCH  23  24
ATOM     24  C   UNL     1      32.924 -12.022 -21.926  0.00  0.00    -0.006 C 
ATOM     25  C   UNL     1      32.159 -11.035 -22.548  0.00  0.00    -0.024 C 
ATOM     26  C   UNL     1      32.435 -12.674 -20.795  0.00  0.00    -0.003 C 
ATOM     27  C   UNL     1      30.905 -10.701 -22.037  0.00  0.00    -0.005 C 
ATOM     28  C   UNL     1      32.661 -10.323 -23.760  0.00  0.00    +0.031 C 
ATOM     29  C   UNL     1      31.180 -12.340 -20.285  0.00  0.00    -0.000 C 
ATOM     30  C   UNL     1      30.416 -11.352 -20.906  0.00  0.00    -0.000 C 
ENDBRANCH  23  24
ENDBRANCH   4  23
TORSDOF 4
ENDMDL
