MODEL 1
REMARK VINA RESULT:     -11.3      0.000      0.000
REMARK  Name = 44177328
REMARK  2 active torsions:
REMARK  status: ('A' for Active; 'I' for Inactive)
REMARK    1  A    between atoms: N_1  and  C_15
REMARK    2  A    between atoms: C_6  and  C_23
REMARK                            x       y       z     vdW  Elec       q    Type
REMARK                         _______ _______ _______ _____ _____    ______ ____
ROOT
ATOM      1  N   UNL     1      32.486 -22.626 -17.747  0.00  0.00    -0.286 N 
ATOM      2  N   UNL     1      33.472 -23.527 -15.792  0.00  0.00    -0.386 NA
ATOM      3  N   UNL     1      30.945 -23.597 -14.576  0.00  0.00    -0.246 NA
ATOM      4  N   UNL     1      29.986 -22.694 -16.550  0.00  0.00    -0.340 N 
ATOM      5  C   UNL     1      32.361 -23.109 -16.431  0.00  0.00    +0.214 C 
ATOM      6  C   UNL     1      33.297 -23.981 -14.535  0.00  0.00    +0.135 C 
ATOM      7  C   UNL     1      31.120 -23.144 -15.834  0.00  0.00    +0.166 C 
ATOM      8  C   UNL     1      32.056 -24.014 -13.938  0.00  0.00    +0.185 C 
ATOM      9  H   UNL     1      31.687 -22.777 -18.302  0.00  0.00    +0.155 HD
ATOM     10  H   UNL     1      29.097 -22.716 -16.128  0.00  0.00    +0.144 HD
ATOM     11  H   UNL     1      30.087 -22.358 -17.470  0.00  0.00    +0.144 HD
ENDROOT
BRANCH   1  15
ATOM     12  N   UNL     1      36.418 -19.919 -20.542  0.00  0.00    -0.312 N 
ATOM     13  C   UNL     1      34.281 -20.371 -20.089  0.00  0.00    +0.016 C 
ATOM     14  C   UNL     1      35.598 -20.687 -19.747  0.00  0.00    +0.048 C 
ATOM     15  C   UNL     1      33.535 -21.968 -18.427  0.00  0.00    +0.050 C 
ATOM     16  C   UNL     1      33.230 -21.025 -19.415  0.00  0.00    +0.016 C 
ATOM     17  C   UNL     1      35.917 -21.626 -18.760  0.00  0.00    +0.016 C 
ATOM     18  C   UNL     1      34.858 -22.263 -18.106  0.00  0.00    +0.016 C 
ATOM     19  C   UNL     1      34.340 -19.388 -21.116  0.00  0.00    +0.017 C 
ATOM     20  C   UNL     1      35.667 -19.131 -21.373  0.00  0.00    +0.062 C 
ATOM     21  H   UNL     1      37.402 -19.935 -20.518  0.00  0.00    +0.152 HD
ENDBRANCH   1  15
BRANCH   6  23
ATOM     22  N   UNL     1      36.796 -25.282 -12.532  0.00  0.00    -0.242 NA
ATOM     23  C   UNL     1      34.487 -24.423 -13.853  0.00  0.00    +0.031 C 
ATOM     24  C   UNL     1      34.601 -24.269 -12.476  0.00  0.00    +0.023 C 
ATOM     25  C   UNL     1      35.525 -25.007 -14.571  0.00  0.00    +0.023 C 
ATOM     26  C   UNL     1      35.765 -24.710 -11.869  0.00  0.00    +0.099 C 
ATOM     27  C   UNL     1      36.649 -25.416 -13.870  0.00  0.00    +0.099 C 
ENDBRANCH   6  23
TORSDOF 2
ENDMDL
MODEL 2
REMARK VINA RESULT:     -11.0      0.984      1.258
REMARK  Name = 44177328
REMARK  2 active torsions:
REMARK  status: ('A' for Active; 'I' for Inactive)
REMARK    1  A    between atoms: N_1  and  C_15
REMARK    2  A    between atoms: C_6  and  C_23
REMARK                            x       y       z     vdW  Elec       q    Type
REMARK                         _______ _______ _______ _____ _____    ______ ____
ROOT
ATOM      1  N   UNL     1      32.998 -22.522 -18.042  0.00  0.00    -0.286 N 
ATOM      2  N   UNL     1      34.219 -23.450 -16.238  0.00  0.00    -0.386 NA
ATOM      3  N   UNL     1      31.829 -23.740 -14.798  0.00  0.00    -0.246 NA
ATOM      4  N   UNL     1      30.633 -22.809 -16.623  0.00  0.00    -0.340 N 
ATOM      5  C   UNL     1      33.029 -23.074 -16.748  0.00  0.00    +0.214 C 
ATOM      6  C   UNL     1      34.194 -23.972 -14.996  0.00  0.00    +0.135 C 
ATOM      7  C   UNL     1      31.855 -23.218 -16.041  0.00  0.00    +0.166 C 
ATOM      8  C   UNL     1      33.020 -24.115 -14.289  0.00  0.00    +0.185 C 
ATOM      9  H   UNL     1      32.160 -22.698 -18.527  0.00  0.00    +0.155 HD
ATOM     10  H   UNL     1      29.791 -22.908 -16.122  0.00  0.00    +0.144 HD
ATOM     11  H   UNL     1      30.625 -22.424 -17.529  0.00  0.00    +0.144 HD
ENDROOT
BRANCH   1  15
ATOM     12  N   UNL     1      36.473 -19.444 -21.051  0.00  0.00    -0.312 N 
ATOM     13  C   UNL     1      34.420 -20.090 -20.461  0.00  0.00    +0.016 C 
ATOM     14  C   UNL     1      35.781 -20.292 -20.215  0.00  0.00    +0.048 C 
ATOM     15  C   UNL     1      33.935 -21.765 -18.780  0.00  0.00    +0.050 C 
ATOM     16  C   UNL     1      33.480 -20.842 -19.728  0.00  0.00    +0.016 C 
ATOM     17  C   UNL     1      36.249 -21.210 -19.269  0.00  0.00    +0.016 C 
ATOM     18  C   UNL     1      35.298 -21.946 -18.556  0.00  0.00    +0.016 C 
ATOM     19  C   UNL     1      34.322 -19.094 -21.472  0.00  0.00    +0.017 C 
ATOM     20  C   UNL     1      35.600 -18.717 -21.815  0.00  0.00    +0.062 C 
ATOM     21  H   UNL     1      37.454 -19.373 -21.094  0.00  0.00    +0.152 HD
ENDBRANCH   1  15
BRANCH   6  23
ATOM     22  N   UNL     1      37.939 -25.137 -13.398  0.00  0.00    -0.242 NA
ATOM     23  C   UNL     1      35.467 -24.369 -14.453  0.00  0.00    +0.031 C 
ATOM     24  C   UNL     1      35.941 -25.661 -14.654  0.00  0.00    +0.023 C 
ATOM     25  C   UNL     1      36.229 -23.460 -13.726  0.00  0.00    +0.023 C 
ATOM     26  C   UNL     1      37.171 -25.992 -14.110  0.00  0.00    +0.099 C 
ATOM     27  C   UNL     1      37.447 -23.890 -13.224  0.00  0.00    +0.099 C 
ENDBRANCH   6  23
TORSDOF 2
ENDMDL
MODEL 3
REMARK VINA RESULT:     -10.4      1.622      3.986
REMARK  Name = 44177328
REMARK  2 active torsions:
REMARK  status: ('A' for Active; 'I' for Inactive)
REMARK    1  A    between atoms: N_1  and  C_15
REMARK    2  A    between atoms: C_6  and  C_23
REMARK                            x       y       z     vdW  Elec       q    Type
REMARK                         _______ _______ _______ _____ _____    ______ ____
ROOT
ATOM      1  N   UNL     1      36.708 -22.186 -16.636  0.00  0.00    -0.286 N 
ATOM      2  N   UNL     1      34.894 -23.059 -15.391  0.00  0.00    -0.386 NA
ATOM      3  N   UNL     1      36.672 -24.740 -14.020  0.00  0.00    -0.246 NA
ATOM      4  N   UNL     1      38.470 -23.845 -15.282  0.00  0.00    -0.340 N 
ATOM      5  C   UNL     1      36.217 -23.060 -15.648  0.00  0.00    +0.214 C 
ATOM      6  C   UNL     1      34.475 -23.913 -14.437  0.00  0.00    +0.135 C 
ATOM      7  C   UNL     1      37.091 -23.884 -14.974  0.00  0.00    +0.166 C 
ATOM      8  C   UNL     1      35.349 -24.739 -13.763  0.00  0.00    +0.185 C 
ATOM      9  H   UNL     1      37.631 -21.883 -16.474  0.00  0.00    +0.155 HD
ATOM     10  H   UNL     1      39.098 -24.432 -14.804  0.00  0.00    +0.144 HD
ATOM     11  H   UNL     1      38.801 -23.229 -15.975  0.00  0.00    +0.144 HD
ENDROOT
BRANCH   1  15
ATOM     12  N   UNL     1      34.674 -19.976 -21.282  0.00  0.00    -0.312 N 
ATOM     13  C   UNL     1      36.262 -20.176 -19.727  0.00  0.00    +0.016 C 
ATOM     14  C   UNL     1      35.002 -20.636 -20.119  0.00  0.00    +0.048 C 
ATOM     15  C   UNL     1      36.136 -21.658 -17.815  0.00  0.00    +0.050 C 
ATOM     16  C   UNL     1      36.838 -20.698 -18.551  0.00  0.00    +0.016 C 
ATOM     17  C   UNL     1      34.290 -21.596 -19.393  0.00  0.00    +0.016 C 
ATOM     18  C   UNL     1      34.881 -22.099 -18.230  0.00  0.00    +0.016 C 
ATOM     19  C   UNL     1      36.676 -19.217 -20.693  0.00  0.00    +0.017 C 
ATOM     20  C   UNL     1      35.679 -19.116 -21.636  0.00  0.00    +0.062 C 
ATOM     21  H   UNL     1      33.837 -20.102 -21.784  0.00  0.00    +0.152 HD
ENDBRANCH   1  15
BRANCH   6  23
ATOM     22  N   UNL     1      30.314 -23.911 -13.645  0.00  0.00    -0.242 NA
ATOM     23  C   UNL     1      33.060 -23.913 -14.167  0.00  0.00    +0.031 C 
ATOM     24  C   UNL     1      32.494 -24.929 -13.404  0.00  0.00    +0.023 C 
ATOM     25  C   UNL     1      32.254 -22.896 -14.668  0.00  0.00    +0.023 C 
ATOM     26  C   UNL     1      31.129 -24.882 -13.174  0.00  0.00    +0.099 C 
ATOM     27  C   UNL     1      30.899 -22.941 -14.381  0.00  0.00    +0.099 C 
ENDBRANCH   6  23
TORSDOF 2
ENDMDL
MODEL 4
REMARK VINA RESULT:     -10.3     10.561     13.908
REMARK  Name = 44177328
REMARK  2 active torsions:
REMARK  status: ('A' for Active; 'I' for Inactive)
REMARK    1  A    between atoms: N_1  and  C_15
REMARK    2  A    between atoms: C_6  and  C_23
REMARK                            x       y       z     vdW  Elec       q    Type
REMARK                         _______ _______ _______ _____ _____    ______ ____
ROOT
ATOM      1  N   UNL     1      31.766  -9.801 -21.657  0.00  0.00    -0.286 N 
ATOM      2  N   UNL     1      32.546 -11.928 -22.343  0.00  0.00    -0.386 NA
ATOM      3  N   UNL     1      32.231 -12.866 -19.718  0.00  0.00    -0.246 NA
ATOM      4  N   UNL     1      31.452 -10.724 -19.062  0.00  0.00    -0.340 N 
ATOM      5  C   UNL     1      32.090 -11.136 -21.352  0.00  0.00    +0.214 C 
ATOM      6  C   UNL     1      32.841 -13.197 -21.999  0.00  0.00    +0.135 C 
ATOM      7  C   UNL     1      31.934 -11.596 -20.063  0.00  0.00    +0.166 C 
ATOM      8  C   UNL     1      32.687 -13.657 -20.709  0.00  0.00    +0.185 C 
ATOM      9  H   UNL     1      31.049  -9.429 -21.094  0.00  0.00    +0.155 HD
ATOM     10  H   UNL     1      31.339 -11.047 -18.139  0.00  0.00    +0.144 HD
ATOM     11  H   UNL     1      31.229  -9.792 -19.287  0.00  0.00    +0.144 HD
ENDROOT
BRANCH   1  15
ATOM     12  N   UNL     1      33.947  -6.220 -25.266  0.00  0.00    -0.312 N 
ATOM     13  C   UNL     1      34.041  -7.438 -23.400  0.00  0.00    +0.016 C 
ATOM     14  C   UNL     1      33.236  -7.111 -24.494  0.00  0.00    +0.048 C 
ATOM     15  C   UNL     1      32.268  -8.890 -22.613  0.00  0.00    +0.050 C 
ATOM     16  C   UNL     1      33.545  -8.345 -22.442  0.00  0.00    +0.016 C 
ATOM     17  C   UNL     1      31.959  -7.649 -24.679  0.00  0.00    +0.016 C 
ATOM     18  C   UNL     1      31.488  -8.546 -23.715  0.00  0.00    +0.016 C 
ATOM     19  C   UNL     1      35.256  -6.712 -23.542  0.00  0.00    +0.017 C 
ATOM     20  C   UNL     1      35.168  -5.972 -24.699  0.00  0.00    +0.062 C 
ATOM     21  H   UNL     1      33.622  -5.818 -26.104  0.00  0.00    +0.152 HD
ENDBRANCH   1  15
BRANCH   6  23
ATOM     22  N   UNL     1      34.284 -15.677 -25.115  0.00  0.00    -0.242 NA
ATOM     23  C   UNL     1      33.332 -14.040 -23.059  0.00  0.00    +0.031 C 
ATOM     24  C   UNL     1      32.868 -13.869 -24.359  0.00  0.00    +0.023 C 
ATOM     25  C   UNL     1      34.271 -15.028 -22.786  0.00  0.00    +0.023 C 
ATOM     26  C   UNL     1      33.371 -14.705 -25.342  0.00  0.00    +0.099 C 
ATOM     27  C   UNL     1      34.711 -15.814 -23.840  0.00  0.00    +0.099 C 
ENDBRANCH   6  23
TORSDOF 2
ENDMDL
MODEL 5
REMARK VINA RESULT:     -10.2      1.755      6.821
REMARK  Name = 44177328
REMARK  2 active torsions:
REMARK  status: ('A' for Active; 'I' for Inactive)
REMARK    1  A    between atoms: N_1  and  C_15
REMARK    2  A    between atoms: C_6  and  C_23
REMARK                            x       y       z     vdW  Elec       q    Type
REMARK                         _______ _______ _______ _____ _____    ______ ____
ROOT
ATOM      1  N   UNL     1      34.237 -24.432 -14.135  0.00  0.00    -0.286 N 
ATOM      2  N   UNL     1      35.024 -23.135 -15.951  0.00  0.00    -0.386 NA
ATOM      3  N   UNL     1      37.462 -22.776 -14.611  0.00  0.00    -0.246 NA
ATOM      4  N   UNL     1      36.646 -24.082 -12.807  0.00  0.00    -0.340 N 
ATOM      5  C   UNL     1      35.257 -23.671 -14.737  0.00  0.00    +0.214 C 
ATOM      6  C   UNL     1      36.032 -22.416 -16.484  0.00  0.00    +0.135 C 
ATOM      7  C   UNL     1      36.454 -23.496 -14.079  0.00  0.00    +0.166 C 
ATOM      8  C   UNL     1      37.229 -22.240 -15.825  0.00  0.00    +0.185 C 
ATOM      9  H   UNL     1      34.572 -25.144 -13.542  0.00  0.00    +0.155 HD
ATOM     10  H   UNL     1      37.499 -23.959 -12.332  0.00  0.00    +0.144 HD
ATOM     11  H   UNL     1      35.925 -24.612 -12.396  0.00  0.00    +0.144 HD
ENDROOT
BRANCH   1  15
ATOM     12  N   UNL     1      28.742 -24.047 -14.643  0.00  0.00    -0.312 N 
ATOM     13  C   UNL     1      30.819 -23.517 -15.261  0.00  0.00    +0.016 C 
ATOM     14  C   UNL     1      30.070 -24.275 -14.358  0.00  0.00    +0.048 C 
ATOM     15  C   UNL     1      32.828 -24.375 -14.215  0.00  0.00    +0.050 C 
ATOM     16  C   UNL     1      32.225 -23.569 -15.187  0.00  0.00    +0.016 C 
ATOM     17  C   UNL     1      30.659 -25.086 -13.383  0.00  0.00    +0.016 C 
ATOM     18  C   UNL     1      32.056 -25.121 -13.327  0.00  0.00    +0.016 C 
ATOM     19  C   UNL     1      29.895 -22.827 -16.095  0.00  0.00    +0.017 C 
ATOM     20  C   UNL     1      28.626 -23.174 -15.691  0.00  0.00    +0.062 C 
ATOM     21  H   UNL     1      27.986 -24.453 -14.161  0.00  0.00    +0.152 HD
ENDBRANCH   1  15
BRANCH   6  23
ATOM     22  N   UNL     1      35.288 -20.723 -20.295  0.00  0.00    -0.242 NA
ATOM     23  C   UNL     1      35.779 -21.840 -17.780  0.00  0.00    +0.031 C 
ATOM     24  C   UNL     1      36.755 -21.072 -18.406  0.00  0.00    +0.023 C 
ATOM     25  C   UNL     1      34.558 -22.051 -18.411  0.00  0.00    +0.023 C 
ATOM     26  C   UNL     1      36.463 -20.541 -19.651  0.00  0.00    +0.099 C 
ATOM     27  C   UNL     1      34.364 -21.476 -19.657  0.00  0.00    +0.099 C 
ENDBRANCH   6  23
TORSDOF 2
ENDMDL
MODEL 6
REMARK VINA RESULT:      -9.9      1.951      4.834
REMARK  Name = 44177328
REMARK  2 active torsions:
REMARK  status: ('A' for Active; 'I' for Inactive)
REMARK    1  A    between atoms: N_1  and  C_15
REMARK    2  A    between atoms: C_6  and  C_23
REMARK                            x       y       z     vdW  Elec       q    Type
REMARK                         _______ _______ _______ _____ _____    ______ ____
ROOT
ATOM      1  N   UNL     1      34.633 -23.122 -14.411  0.00  0.00    -0.286 N 
ATOM      2  N   UNL     1      32.308 -23.462 -14.699  0.00  0.00    -0.386 NA
ATOM      3  N   UNL     1      32.323 -25.251 -12.539  0.00  0.00    -0.246 NA
ATOM      4  N   UNL     1      34.653 -24.889 -12.274  0.00  0.00    -0.340 N 
ATOM      5  C   UNL     1      33.435 -23.747 -14.017  0.00  0.00    +0.214 C 
ATOM      6  C   UNL     1      31.189 -24.086 -14.282  0.00  0.00    +0.135 C 
ATOM      7  C   UNL     1      33.443 -24.625 -12.956  0.00  0.00    +0.166 C 
ATOM      8  C   UNL     1      31.197 -24.965 -13.221  0.00  0.00    +0.185 C 
ATOM      9  H   UNL     1      35.268 -22.981 -13.672  0.00  0.00    +0.155 HD
ATOM     10  H   UNL     1      34.665 -25.516 -11.515  0.00  0.00    +0.144 HD
ATOM     11  H   UNL     1      35.485 -24.446 -12.559  0.00  0.00    +0.144 HD
ENDROOT
BRANCH   1  15
ATOM     12  N   UNL     1      36.240 -21.342 -19.397  0.00  0.00    -0.312 N 
ATOM     13  C   UNL     1      34.706 -22.159 -17.997  0.00  0.00    +0.016 C 
ATOM     14  C   UNL     1      36.036 -21.744 -18.095  0.00  0.00    +0.048 C 
ATOM     15  C   UNL     1      35.103 -22.658 -15.660  0.00  0.00    +0.050 C 
ATOM     16  C   UNL     1      34.231 -22.625 -16.754  0.00  0.00    +0.016 C 
ATOM     17  C   UNL     1      36.917 -21.771 -17.009  0.00  0.00    +0.016 C 
ATOM     18  C   UNL     1      36.424 -22.237 -15.787  0.00  0.00    +0.016 C 
ATOM     19  C   UNL     1      34.120 -21.993 -19.283  0.00  0.00    +0.017 C 
ATOM     20  C   UNL     1      35.088 -21.489 -20.122  0.00  0.00    +0.062 C 
ATOM     21  H   UNL     1      37.091 -21.001 -19.754  0.00  0.00    +0.152 HD
ENDBRANCH   1  15
BRANCH   6  23
ATOM     22  N   UNL     1      27.654 -23.190 -16.437  0.00  0.00    -0.242 NA
ATOM     23  C   UNL     1      29.987 -23.782 -15.015  0.00  0.00    +0.031 C 
ATOM     24  C   UNL     1      29.416 -24.737 -15.849  0.00  0.00    +0.023 C 
ATOM     25  C   UNL     1      29.392 -22.531 -14.890  0.00  0.00    +0.023 C 
ATOM     26  C   UNL     1      28.261 -24.395 -16.531  0.00  0.00    +0.099 C 
ATOM     27  C   UNL     1      28.237 -22.287 -15.616  0.00  0.00    +0.099 C 
ENDBRANCH   6  23
TORSDOF 2
ENDMDL
MODEL 7
REMARK VINA RESULT:      -9.9      1.790      6.619
REMARK  Name = 44177328
REMARK  2 active torsions:
REMARK  status: ('A' for Active; 'I' for Inactive)
REMARK    1  A    between atoms: N_1  and  C_15
REMARK    2  A    between atoms: C_6  and  C_23
REMARK                            x       y       z     vdW  Elec       q    Type
REMARK                         _______ _______ _______ _____ _____    ______ ____
ROOT
ATOM      1  N   UNL     1      34.713 -24.532 -13.256  0.00  0.00    -0.286 N 
ATOM      2  N   UNL     1      34.454 -23.491 -15.367  0.00  0.00    -0.386 NA
ATOM      3  N   UNL     1      31.693 -23.969 -15.240  0.00  0.00    -0.246 NA
ATOM      4  N   UNL     1      31.984 -25.005 -13.125  0.00  0.00    -0.340 N 
ATOM      5  C   UNL     1      33.885 -24.114 -14.315  0.00  0.00    +0.214 C 
ATOM      6  C   UNL     1      33.618 -23.111 -16.353  0.00  0.00    +0.135 C 
ATOM      7  C   UNL     1      32.529 -24.348 -14.252  0.00  0.00    +0.166 C 
ATOM      8  C   UNL     1      32.262 -23.346 -16.290  0.00  0.00    +0.185 C 
ATOM      9  H   UNL     1      34.263 -24.536 -12.381  0.00  0.00    +0.155 HD
ATOM     10  H   UNL     1      31.016 -25.176 -13.075  0.00  0.00    +0.144 HD
ATOM     11  H   UNL     1      32.574 -25.293 -12.391  0.00  0.00    +0.144 HD
ENDROOT
BRANCH   1  15
ATOM     12  N   UNL     1      40.035 -26.043 -13.280  0.00  0.00    -0.312 N 
ATOM     13  C   UNL     1      38.265 -25.052 -14.209  0.00  0.00    +0.016 C 
ATOM     14  C   UNL     1      38.701 -25.762 -13.087  0.00  0.00    +0.048 C 
ATOM     15  C   UNL     1      36.063 -24.946 -13.205  0.00  0.00    +0.050 C 
ATOM     16  C   UNL     1      36.919 -24.637 -14.267  0.00  0.00    +0.016 C 
ATOM     17  C   UNL     1      37.856 -26.076 -12.018  0.00  0.00    +0.016 C 
ATOM     18  C   UNL     1      36.525 -25.655 -12.098  0.00  0.00    +0.016 C 
ATOM     19  C   UNL     1      39.383 -24.919 -15.079  0.00  0.00    +0.017 C 
ATOM     20  C   UNL     1      40.456 -25.538 -14.481  0.00  0.00    +0.062 C 
ATOM     21  H   UNL     1      40.603 -26.537 -12.646  0.00  0.00    +0.152 HD
ENDBRANCH   1  15
BRANCH   6  23
ATOM     22  N   UNL     1      35.416 -21.165 -19.658  0.00  0.00    -0.242 NA
ATOM     23  C   UNL     1      34.229 -22.449 -17.477  0.00  0.00    +0.031 C 
ATOM     24  C   UNL     1      33.449 -22.028 -18.549  0.00  0.00    +0.023 C 
ATOM     25  C   UNL     1      35.602 -22.227 -17.494  0.00  0.00    +0.023 C 
ATOM     26  C   UNL     1      34.085 -21.397 -19.605  0.00  0.00    +0.099 C 
ATOM     27  C   UNL     1      36.142 -21.587 -18.598  0.00  0.00    +0.099 C 
ENDBRANCH   6  23
TORSDOF 2
ENDMDL
MODEL 8
REMARK VINA RESULT:      -9.7      2.441      5.591
REMARK  Name = 44177328
REMARK  2 active torsions:
REMARK  status: ('A' for Active; 'I' for Inactive)
REMARK    1  A    between atoms: N_1  and  C_15
REMARK    2  A    between atoms: C_6  and  C_23
REMARK                            x       y       z     vdW  Elec       q    Type
REMARK                         _______ _______ _______ _____ _____    ______ ____
ROOT
ATOM      1  N   UNL     1      33.017 -23.416 -15.080  0.00  0.00    -0.286 N 
ATOM      2  N   UNL     1      30.664 -23.305 -15.309  0.00  0.00    -0.386 NA
ATOM      3  N   UNL     1      30.401 -25.319 -13.374  0.00  0.00    -0.246 NA
ATOM      4  N   UNL     1      32.763 -25.406 -13.166  0.00  0.00    -0.340 N 
ATOM      5  C   UNL     1      31.735 -23.865 -14.712  0.00  0.00    +0.214 C 
ATOM      6  C   UNL     1      29.459 -23.769 -14.922  0.00  0.00    +0.135 C 
ATOM      7  C   UNL     1      31.607 -24.853 -13.762  0.00  0.00    +0.166 C 
ATOM      8  C   UNL     1      29.331 -24.759 -13.971  0.00  0.00    +0.185 C 
ATOM      9  H   UNL     1      33.681 -23.480 -14.356  0.00  0.00    +0.155 HD
ATOM     10  H   UNL     1      32.678 -26.113 -12.486  0.00  0.00    +0.144 HD
ATOM     11  H   UNL     1      33.655 -25.084 -13.432  0.00  0.00    +0.144 HD
ENDROOT
BRANCH   1  15
ATOM     12  N   UNL     1      35.284 -21.365 -19.691  0.00  0.00    -0.312 N 
ATOM     13  C   UNL     1      35.418 -22.097 -17.587  0.00  0.00    +0.016 C 
ATOM     14  C   UNL     1      34.538 -21.869 -18.648  0.00  0.00    +0.048 C 
ATOM     15  C   UNL     1      33.537 -22.892 -16.284  0.00  0.00    +0.050 C 
ATOM     16  C   UNL     1      34.906 -22.619 -16.383  0.00  0.00    +0.016 C 
ATOM     17  C   UNL     1      33.169 -22.139 -18.564  0.00  0.00    +0.016 C 
ATOM     18  C   UNL     1      32.683 -22.655 -17.359  0.00  0.00    +0.016 C 
ATOM     19  C   UNL     1      36.715 -21.712 -18.029  0.00  0.00    +0.017 C 
ATOM     20  C   UNL     1      36.600 -21.266 -19.326  0.00  0.00    +0.062 C 
ATOM     21  H   UNL     1      34.922 -21.111 -20.570  0.00  0.00    +0.152 HD
ENDBRANCH   1  15
BRANCH   6  23
ATOM     22  N   UNL     1      26.099 -22.011 -16.808  0.00  0.00    -0.242 NA
ATOM     23  C   UNL     1      28.317 -23.172 -15.564  0.00  0.00    +0.031 C 
ATOM     24  C   UNL     1      28.165 -23.259 -16.943  0.00  0.00    +0.023 C 
ATOM     25  C   UNL     1      27.360 -22.506 -14.806  0.00  0.00    +0.023 C 
ATOM     26  C   UNL     1      27.049 -22.668 -17.512  0.00  0.00    +0.099 C 
ATOM     27  C   UNL     1      26.279 -21.947 -15.470  0.00  0.00    +0.099 C 
ENDBRANCH   6  23
TORSDOF 2
ENDMDL
MODEL 9
REMARK VINA RESULT:      -9.6      1.352      2.125
REMARK  Name = 44177328
REMARK  2 active torsions:
REMARK  status: ('A' for Active; 'I' for Inactive)
REMARK    1  A    between atoms: N_1  and  C_15
REMARK    2  A    between atoms: C_6  and  C_23
REMARK                            x       y       z     vdW  Elec       q    Type
REMARK                         _______ _______ _______ _____ _____    ______ ____
ROOT
ATOM      1  N   UNL     1      32.677 -23.257 -16.461  0.00  0.00    -0.286 N 
ATOM      2  N   UNL     1      34.422 -23.848 -14.975  0.00  0.00    -0.386 NA
ATOM      3  N   UNL     1      32.534 -24.194 -12.930  0.00  0.00    -0.246 NA
ATOM      4  N   UNL     1      30.806 -23.599 -14.443  0.00  0.00    -0.340 N 
ATOM      5  C   UNL     1      33.104 -23.649 -15.179  0.00  0.00    +0.214 C 
ATOM      6  C   UNL     1      34.779 -24.223 -13.731  0.00  0.00    +0.135 C 
ATOM      7  C   UNL     1      32.176 -23.820 -14.175  0.00  0.00    +0.166 C 
ATOM      8  C   UNL     1      33.851 -24.393 -12.726  0.00  0.00    +0.185 C 
ATOM      9  H   UNL     1      31.770 -23.566 -16.688  0.00  0.00    +0.155 HD
ATOM     10  H   UNL     1      30.139 -23.719 -13.729  0.00  0.00    +0.144 HD
ATOM     11  H   UNL     1      30.520 -23.325 -15.344  0.00  0.00    +0.144 HD
ENDROOT
BRANCH   1  15
ATOM     12  N   UNL     1      35.320 -20.384 -20.381  0.00  0.00    -0.312 N 
ATOM     13  C   UNL     1      35.300 -21.696 -18.576  0.00  0.00    +0.016 C 
ATOM     14  C   UNL     1      34.486 -21.032 -19.498  0.00  0.00    +0.048 C 
ATOM     15  C   UNL     1      33.294 -22.505 -17.486  0.00  0.00    +0.050 C 
ATOM     16  C   UNL     1      34.691 -22.447 -17.551  0.00  0.00    +0.016 C 
ATOM     17  C   UNL     1      33.089 -21.083 -19.445  0.00  0.00    +0.016 C 
ATOM     18  C   UNL     1      32.507 -21.833 -18.418  0.00  0.00    +0.016 C 
ATOM     19  C   UNL     1      36.649 -21.422 -18.937  0.00  0.00    +0.017 C 
ATOM     20  C   UNL     1      36.629 -20.613 -20.050  0.00  0.00    +0.062 C 
ATOM     21  H   UNL     1      35.019 -19.833 -21.139  0.00  0.00    +0.152 HD
ENDBRANCH   1  15
BRANCH   6  23
ATOM     22  N   UNL     1      38.922 -24.834 -13.097  0.00  0.00    -0.242 NA
ATOM     23  C   UNL     1      36.188 -24.431 -13.515  0.00  0.00    +0.031 C 
ATOM     24  C   UNL     1      36.747 -24.180 -12.266  0.00  0.00    +0.023 C 
ATOM     25  C   UNL     1      36.994 -24.883 -14.554  0.00  0.00    +0.023 C 
ATOM     26  C   UNL     1      38.107 -24.396 -12.111  0.00  0.00    +0.099 C 
ATOM     27  C   UNL     1      38.343 -25.067 -14.296  0.00  0.00    +0.099 C 
ENDBRANCH   6  23
TORSDOF 2
ENDMDL
