MODEL 1
REMARK VINA RESULT:     -11.5      0.000      0.000
REMARK  Name = 446346
REMARK  6 active torsions:
REMARK  status: ('A' for Active; 'I' for Inactive)
REMARK    1  A    between atoms: N_1  and  C_20
REMARK    2  A    between atoms: N_2  and  S_8
REMARK    3  A    between atoms: S_8  and  C_11
REMARK    4  A    between atoms: C_12  and  C_14
REMARK    5  A    between atoms: C_20  and  C_22
REMARK    6  A    between atoms: N_21  and  C_28
REMARK                            x       y       z     vdW  Elec       q    Type
REMARK                         _______ _______ _______ _____ _____    ______ ____
ROOT
ATOM      1  N   UNL     1      35.392 -19.116 -20.882  0.00  0.00    +0.389 N 
ATOM      2  N   UNL     1      34.440 -21.521 -19.627  0.00  0.00    -0.160 NA
ATOM      3  C   UNL     1      34.159 -19.772 -21.341  0.00  0.00    -0.058 C 
ATOM      4  C   UNL     1      36.330 -20.105 -20.336  0.00  0.00    -0.058 C 
ATOM      5  C   UNL     1      33.486 -20.526 -20.197  0.00  0.00    +0.073 C 
ATOM      6  C   UNL     1      35.700 -20.867 -19.171  0.00  0.00    +0.073 C 
ATOM      7  H   UNL     1      35.149 -18.458 -20.141  0.00  0.00    -0.080 HD
ENDROOT
BRANCH   2   8
ATOM      8  S   UNL     1      33.761 -22.653 -18.537  0.00  0.00    +0.064 S 
ATOM      9  O   UNL     1      33.888 -23.972 -19.133  0.00  0.00    -0.153 OA
ATOM     10  O   UNL     1      32.452 -22.162 -18.143  0.00  0.00    -0.153 OA
BRANCH   8  11
ATOM     11  C   UNL     1      34.800 -22.586 -17.154  0.00  0.00    +0.141 C 
ATOM     12  C   UNL     1      34.493 -23.380 -16.121  0.00  0.00    +0.021 C 
BRANCH  12  14
ATOM     13 CL   UNL     1      37.615 -23.717 -11.049  0.00  0.00    -0.082 Cl
ATOM     14  C   UNL     1      35.264 -23.465 -14.868  0.00  0.00    +0.001 C 
ATOM     15  C   UNL     1      34.606 -23.756 -13.684  0.00  0.00    +0.001 C 
ATOM     16  C   UNL     1      36.633 -23.249 -14.897  0.00  0.00    +0.001 C 
ATOM     17  C   UNL     1      35.336 -23.834 -12.498  0.00  0.00    +0.011 C 
ATOM     18  C   UNL     1      37.362 -23.328 -13.711  0.00  0.00    +0.011 C 
ATOM     19  C   UNL     1      36.714 -23.621 -12.511  0.00  0.00    +0.058 C 
ENDBRANCH  12  14
ENDBRANCH   8  11
ENDBRANCH   2   8
BRANCH   1  20
ATOM     20  C   UNL     1      36.012 -18.366 -21.974  0.00  0.00    -0.077 C 
BRANCH  20  22
ATOM     21  N   UNL     1      33.939 -14.599 -21.723  0.00  0.00    -0.307 N 
ATOM     22  C   UNL     1      35.728 -16.871 -21.858  0.00  0.00    -0.017 C 
ATOM     23  C   UNL     1      34.907 -16.568 -20.601  0.00  0.00    +0.019 C 
ATOM     24  C   UNL     1      34.980 -16.360 -23.093  0.00  0.00    +0.019 C 
ATOM     25  C   UNL     1      34.582 -15.079 -20.491  0.00  0.00    +0.091 C 
ATOM     26  C   UNL     1      34.650 -14.872 -22.976  0.00  0.00    +0.091 C 
BRANCH  21  28
ATOM     27  N   UNL     1      31.489 -11.175 -21.427  0.00  0.00    -0.242 NA
ATOM     28  C   UNL     1      33.126 -13.463 -21.625  0.00  0.00    +0.051 C 
ATOM     29  C   UNL     1      33.055 -12.531 -22.672  0.00  0.00    +0.035 C 
ATOM     30  C   UNL     1      32.357 -13.220 -20.476  0.00  0.00    +0.035 C 
ATOM     31  C   UNL     1      32.236 -11.424 -22.526  0.00  0.00    +0.100 C 
ATOM     32  C   UNL     1      31.569 -12.083 -20.428  0.00  0.00    +0.100 C 
ENDBRANCH  21  28
ENDBRANCH  20  22
ENDBRANCH   1  20
TORSDOF 6
ENDMDL
MODEL 2
REMARK VINA RESULT:     -11.3      0.844      1.956
REMARK  Name = 446346
REMARK  6 active torsions:
REMARK  status: ('A' for Active; 'I' for Inactive)
REMARK    1  A    between atoms: N_1  and  C_20
REMARK    2  A    between atoms: N_2  and  S_8
REMARK    3  A    between atoms: S_8  and  C_11
REMARK    4  A    between atoms: C_12  and  C_14
REMARK    5  A    between atoms: C_20  and  C_22
REMARK    6  A    between atoms: N_21  and  C_28
REMARK                            x       y       z     vdW  Elec       q    Type
REMARK                         _______ _______ _______ _____ _____    ______ ____
ROOT
ATOM      1  N   UNL     1      35.678 -19.367 -21.083  0.00  0.00    +0.389 N 
ATOM      2  N   UNL     1      34.497 -21.192 -19.201  0.00  0.00    -0.160 NA
ATOM      3  C   UNL     1      36.467 -19.930 -19.978  0.00  0.00    -0.058 C 
ATOM      4  C   UNL     1      34.265 -19.247 -20.698  0.00  0.00    -0.058 C 
ATOM      5  C   UNL     1      35.935 -21.304 -19.576  0.00  0.00    +0.073 C 
ATOM      6  C   UNL     1      33.690 -20.608 -20.310  0.00  0.00    +0.073 C 
ATOM      7  H   UNL     1      35.742 -20.000 -21.880  0.00  0.00    -0.080 HD
ENDROOT
BRANCH   2   8
ATOM      8  S   UNL     1      33.821 -22.571 -18.445  0.00  0.00    +0.064 S 
ATOM      9  O   UNL     1      34.130 -23.725 -19.273  0.00  0.00    -0.153 OA
ATOM     10  O   UNL     1      32.440 -22.267 -18.116  0.00  0.00    -0.153 OA
BRANCH   8  11
ATOM     11  C   UNL     1      34.707 -22.720 -16.965  0.00  0.00    +0.141 C 
ATOM     12  C   UNL     1      34.065 -23.259 -15.921  0.00  0.00    +0.021 C 
BRANCH  12  14
ATOM     13 CL   UNL     1      36.465 -24.127 -10.529  0.00  0.00    -0.082 Cl
ATOM     14  C   UNL     1      34.658 -23.473 -14.589  0.00  0.00    +0.001 C 
ATOM     15  C   UNL     1      35.970 -23.092 -14.361  0.00  0.00    +0.001 C 
ATOM     16  C   UNL     1      33.891 -24.051 -13.589  0.00  0.00    +0.001 C 
ATOM     17  C   UNL     1      36.531 -23.296 -13.100  0.00  0.00    +0.011 C 
ATOM     18  C   UNL     1      34.453 -24.254 -12.329  0.00  0.00    +0.011 C 
ATOM     19  C   UNL     1      35.773 -23.876 -12.084  0.00  0.00    +0.058 C 
ENDBRANCH  12  14
ENDBRANCH   8  11
ENDBRANCH   2   8
BRANCH   1  20
ATOM     20  C   UNL     1      36.213 -18.067 -21.487  0.00  0.00    -0.077 C 
BRANCH  20  22
ATOM     21  N   UNL     1      34.121 -14.382 -22.262  0.00  0.00    -0.307 N 
ATOM     22  C   UNL     1      35.097 -17.060 -21.751  0.00  0.00    -0.017 C 
ATOM     23  C   UNL     1      35.289 -16.379 -23.111  0.00  0.00    +0.019 C 
ATOM     24  C   UNL     1      35.049 -15.997 -20.650  0.00  0.00    +0.019 C 
ATOM     25  C   UNL     1      34.200 -15.340 -23.373  0.00  0.00    +0.091 C 
ATOM     26  C   UNL     1      33.963 -14.954 -20.920  0.00  0.00    +0.091 C 
BRANCH  21  28
ATOM     27  N   UNL     1      32.522 -10.566 -23.095  0.00  0.00    -0.242 NA
ATOM     28  C   UNL     1      33.591 -13.117 -22.538  0.00  0.00    +0.051 C 
ATOM     29  C   UNL     1      32.575 -12.567 -21.740  0.00  0.00    +0.035 C 
ATOM     30  C   UNL     1      34.058 -12.356 -23.621  0.00  0.00    +0.035 C 
ATOM     31  C   UNL     1      32.083 -11.311 -22.055  0.00  0.00    +0.100 C 
ATOM     32  C   UNL     1      33.501 -11.110 -23.852  0.00  0.00    +0.100 C 
ENDBRANCH  21  28
ENDBRANCH  20  22
ENDBRANCH   1  20
TORSDOF 6
ENDMDL
MODEL 3
REMARK VINA RESULT:     -10.8      4.391     11.303
REMARK  Name = 446346
REMARK  6 active torsions:
REMARK  status: ('A' for Active; 'I' for Inactive)
REMARK    1  A    between atoms: N_1  and  C_20
REMARK    2  A    between atoms: N_2  and  S_8
REMARK    3  A    between atoms: S_8  and  C_11
REMARK    4  A    between atoms: C_12  and  C_14
REMARK    5  A    between atoms: C_20  and  C_22
REMARK    6  A    between atoms: N_21  and  C_28
REMARK                            x       y       z     vdW  Elec       q    Type
REMARK                         _______ _______ _______ _____ _____    ______ ____
ROOT
ATOM      1  N   UNL     1      34.433 -21.405 -18.794  0.00  0.00    +0.389 N 
ATOM      2  N   UNL     1      35.576 -19.827 -20.909  0.00  0.00    -0.160 NA
ATOM      3  C   UNL     1      35.821 -21.617 -19.231  0.00  0.00    -0.058 C 
ATOM      4  C   UNL     1      33.608 -20.928 -19.912  0.00  0.00    -0.058 C 
ATOM      5  C   UNL     1      36.419 -20.325 -19.785  0.00  0.00    +0.073 C 
ATOM      6  C   UNL     1      34.163 -19.623 -20.480  0.00  0.00    +0.073 C 
ATOM      7  H   UNL     1      34.431 -20.692 -18.065  0.00  0.00    -0.080 HD
ENDROOT
BRANCH   2   8
ATOM      8  S   UNL     1      36.256 -18.558 -21.835  0.00  0.00    +0.064 S 
ATOM      9  O   UNL     1      36.001 -18.847 -23.236  0.00  0.00    -0.153 OA
ATOM     10  O   UNL     1      37.618 -18.353 -21.376  0.00  0.00    -0.153 OA
BRANCH   8  11
ATOM     11  C   UNL     1      35.325 -17.166 -21.395  0.00  0.00    +0.141 C 
ATOM     12  C   UNL     1      35.170 -16.216 -22.326  0.00  0.00    +0.021 C 
BRANCH  12  14
ATOM     13 CL   UNL     1      32.073 -11.176 -21.558  0.00  0.00    -0.082 Cl
ATOM     14  C   UNL     1      34.405 -14.971 -22.136  0.00  0.00    +0.001 C 
ATOM     15  C   UNL     1      33.950 -14.640 -20.869  0.00  0.00    +0.001 C 
ATOM     16  C   UNL     1      34.155 -14.154 -23.228  0.00  0.00    +0.001 C 
ATOM     17  C   UNL     1      33.226 -13.462 -20.690  0.00  0.00    +0.011 C 
ATOM     18  C   UNL     1      33.431 -12.976 -23.048  0.00  0.00    +0.011 C 
ATOM     19  C   UNL     1      32.966 -12.630 -21.779  0.00  0.00    +0.058 C 
ENDBRANCH  12  14
ENDBRANCH   8  11
ENDBRANCH   2   8
BRANCH   1  20
ATOM     20  C   UNL     1      33.878 -22.635 -18.233  0.00  0.00    -0.077 C 
BRANCH  20  22
ATOM     21  N   UNL     1      35.177 -24.007 -14.362  0.00  0.00    -0.307 N 
ATOM     22  C   UNL     1      34.114 -22.720 -16.727  0.00  0.00    -0.017 C 
ATOM     23  C   UNL     1      35.612 -22.707 -16.409  0.00  0.00    +0.019 C 
ATOM     24  C   UNL     1      33.479 -23.987 -16.145  0.00  0.00    +0.019 C 
ATOM     25  C   UNL     1      35.866 -22.829 -14.907  0.00  0.00    +0.091 C 
ATOM     26  C   UNL     1      33.741 -24.110 -14.644  0.00  0.00    +0.091 C 
BRANCH  21  28
ATOM     27  N   UNL     1      36.723 -25.692 -10.814  0.00  0.00    -0.242 NA
ATOM     28  C   UNL     1      35.689 -24.566 -13.185  0.00  0.00    +0.051 C 
ATOM     29  C   UNL     1      35.193 -24.188 -11.928  0.00  0.00    +0.035 C 
ATOM     30  C   UNL     1      36.716 -25.522 -13.225  0.00  0.00    +0.035 C 
ATOM     31  C   UNL     1      35.734 -24.770 -10.793  0.00  0.00    +0.100 C 
ATOM     32  C   UNL     1      37.189 -26.045 -12.033  0.00  0.00    +0.100 C 
ENDBRANCH  21  28
ENDBRANCH  20  22
ENDBRANCH   1  20
TORSDOF 6
ENDMDL
MODEL 4
REMARK VINA RESULT:     -10.7      3.537      5.866
REMARK  Name = 446346
REMARK  6 active torsions:
REMARK  status: ('A' for Active; 'I' for Inactive)
REMARK    1  A    between atoms: N_1  and  C_20
REMARK    2  A    between atoms: N_2  and  S_8
REMARK    3  A    between atoms: S_8  and  C_11
REMARK    4  A    between atoms: C_12  and  C_14
REMARK    5  A    between atoms: C_20  and  C_22
REMARK    6  A    between atoms: N_21  and  C_28
REMARK                            x       y       z     vdW  Elec       q    Type
REMARK                         _______ _______ _______ _____ _____    ______ ____
ROOT
ATOM      1  N   UNL     1      34.004 -14.387 -23.648  0.00  0.00    +0.389 N 
ATOM      2  N   UNL     1      34.838 -16.992 -22.761  0.00  0.00    -0.160 NA
ATOM      3  C   UNL     1      33.901 -14.774 -22.233  0.00  0.00    -0.058 C 
ATOM      4  C   UNL     1      33.859 -15.563 -24.516  0.00  0.00    -0.058 C 
ATOM      5  C   UNL     1      34.970 -15.803 -21.872  0.00  0.00    +0.073 C 
ATOM      6  C   UNL     1      34.928 -16.608 -24.199  0.00  0.00    +0.073 C 
ATOM      7  H   UNL     1      34.928 -13.983 -23.803  0.00  0.00    -0.080 HD
ENDROOT
BRANCH   2   8
ATOM      8  S   UNL     1      35.761 -18.360 -22.305  0.00  0.00    +0.064 S 
ATOM      9  O   UNL     1      37.015 -17.882 -21.749  0.00  0.00    -0.153 OA
ATOM     10  O   UNL     1      35.773 -19.282 -23.426  0.00  0.00    -0.153 OA
BRANCH   8  11
ATOM     11  C   UNL     1      34.845 -19.081 -21.025  0.00  0.00    +0.141 C 
ATOM     12  C   UNL     1      35.184 -20.323 -20.656  0.00  0.00    +0.021 C 
BRANCH  12  14
ATOM     13 CL   UNL     1      32.522 -23.425 -16.312  0.00  0.00    -0.082 Cl
ATOM     14  C   UNL     1      34.526 -21.089 -19.584  0.00  0.00    +0.001 C 
ATOM     15  C   UNL     1      33.154 -20.989 -19.421  0.00  0.00    +0.001 C 
ATOM     16  C   UNL     1      35.293 -21.896 -18.757  0.00  0.00    +0.001 C 
ATOM     17  C   UNL     1      32.532 -21.714 -18.404  0.00  0.00    +0.011 C 
ATOM     18  C   UNL     1      34.670 -22.621 -17.742  0.00  0.00    +0.011 C 
ATOM     19  C   UNL     1      33.289 -22.530 -17.565  0.00  0.00    +0.058 C 
ENDBRANCH  12  14
ENDBRANCH   8  11
ENDBRANCH   2   8
BRANCH   1  20
ATOM     20  C   UNL     1      33.001 -13.376 -23.979  0.00  0.00    -0.077 C 
BRANCH  20  22
ATOM     21  N   UNL     1      32.482  -9.407 -22.388  0.00  0.00    -0.307 N 
ATOM     22  C   UNL     1      33.167 -12.122 -23.125  0.00  0.00    -0.017 C 
ATOM     23  C   UNL     1      31.868 -11.793 -22.381  0.00  0.00    +0.019 C 
ATOM     24  C   UNL     1      33.578 -10.925 -23.988  0.00  0.00    +0.019 C 
ATOM     25  C   UNL     1      32.007 -10.518 -21.551  0.00  0.00    +0.091 C 
ATOM     26  C   UNL     1      33.709  -9.649 -23.155  0.00  0.00    +0.091 C 
BRANCH  21  28
ATOM     27  N   UNL     1      31.566  -5.488 -21.118  0.00  0.00    -0.242 NA
ATOM     28  C   UNL     1      32.178  -8.107 -21.966  0.00  0.00    +0.051 C 
ATOM     29  C   UNL     1      31.104  -7.397 -22.526  0.00  0.00    +0.035 C 
ATOM     30  C   UNL     1      32.938  -7.472 -20.971  0.00  0.00    +0.035 C 
ATOM     31  C   UNL     1      30.845  -6.113 -22.075  0.00  0.00    +0.100 C 
ATOM     32  C   UNL     1      32.597  -6.185 -20.590  0.00  0.00    +0.100 C 
ENDBRANCH  21  28
ENDBRANCH  20  22
ENDBRANCH   1  20
TORSDOF 6
ENDMDL
MODEL 5
REMARK VINA RESULT:     -10.6      4.587      7.717
REMARK  Name = 446346
REMARK  6 active torsions:
REMARK  status: ('A' for Active; 'I' for Inactive)
REMARK    1  A    between atoms: N_1  and  C_20
REMARK    2  A    between atoms: N_2  and  S_8
REMARK    3  A    between atoms: S_8  and  C_11
REMARK    4  A    between atoms: C_12  and  C_14
REMARK    5  A    between atoms: C_20  and  C_22
REMARK    6  A    between atoms: N_21  and  C_28
REMARK                            x       y       z     vdW  Elec       q    Type
REMARK                         _______ _______ _______ _____ _____    ______ ____
ROOT
ATOM      1  N   UNL     1      32.980 -12.703 -22.275  0.00  0.00    +0.389 N 
ATOM      2  N   UNL     1      33.777 -15.224 -23.405  0.00  0.00    -0.160 NA
ATOM      3  C   UNL     1      33.524 -13.774 -21.427  0.00  0.00    -0.058 C 
ATOM      4  C   UNL     1      32.275 -13.269 -23.432  0.00  0.00    -0.058 C 
ATOM      5  C   UNL     1      34.483 -14.660 -22.220  0.00  0.00    +0.073 C 
ATOM      6  C   UNL     1      33.210 -14.145 -24.264  0.00  0.00    +0.073 C 
ATOM      7  H   UNL     1      33.758 -12.138 -22.616  0.00  0.00    -0.080 HD
ENDROOT
BRANCH   2   8
ATOM      8  S   UNL     1      34.610 -16.467 -24.237  0.00  0.00    +0.064 S 
ATOM      9  O   UNL     1      35.638 -15.843 -25.051  0.00  0.00    -0.153 OA
ATOM     10  O   UNL     1      33.618 -17.327 -24.859  0.00  0.00    -0.153 OA
BRANCH   8  11
ATOM     11  C   UNL     1      35.391 -17.368 -22.982  0.00  0.00    +0.141 C 
ATOM     12  C   UNL     1      34.669 -18.316 -22.372  0.00  0.00    +0.021 C 
BRANCH  12  14
ATOM     13 CL   UNL     1      36.684 -21.834 -17.996  0.00  0.00    -0.082 Cl
ATOM     14  C   UNL     1      35.166 -19.186 -21.291  0.00  0.00    +0.001 C 
ATOM     15  C   UNL     1      34.302 -20.089 -20.694  0.00  0.00    +0.001 C 
ATOM     16  C   UNL     1      36.490 -19.083 -20.892  0.00  0.00    +0.001 C 
ATOM     17  C   UNL     1      34.773 -20.911 -19.670  0.00  0.00    +0.011 C 
ATOM     18  C   UNL     1      36.961 -19.906 -19.869  0.00  0.00    +0.011 C 
ATOM     19  C   UNL     1      36.102 -20.820 -19.258  0.00  0.00    +0.058 C 
ENDBRANCH  12  14
ENDBRANCH   8  11
ENDBRANCH   2   8
BRANCH   1  20
ATOM     20  C   UNL     1      32.090 -11.838 -21.502  0.00  0.00    -0.077 C 
BRANCH  20  22
ATOM     21  N   UNL     1      31.493  -7.643 -22.280  0.00  0.00    -0.307 N 
ATOM     22  C   UNL     1      32.357 -10.362 -21.787  0.00  0.00    -0.017 C 
ATOM     23  C   UNL     1      31.797  -9.481 -20.666  0.00  0.00    +0.019 C 
ATOM     24  C   UNL     1      31.739  -9.943 -23.124  0.00  0.00    +0.019 C 
ATOM     25  C   UNL     1      32.023  -7.997 -20.956  0.00  0.00    +0.091 C 
ATOM     26  C   UNL     1      31.960  -8.457 -23.407  0.00  0.00    +0.091 C 
BRANCH  21  28
ATOM     27  N   UNL     1      30.425  -3.612 -22.930  0.00  0.00    -0.242 NA
ATOM     28  C   UNL     1      31.139  -6.306 -22.496  0.00  0.00    +0.051 C 
ATOM     29  C   UNL     1      30.801  -5.464 -21.424  0.00  0.00    +0.035 C 
ATOM     30  C   UNL     1      31.110  -5.764 -23.790  0.00  0.00    +0.035 C 
ATOM     31  C   UNL     1      30.457  -4.149 -21.690  0.00  0.00    +0.100 C 
ATOM     32  C   UNL     1      30.753  -4.436 -23.950  0.00  0.00    +0.100 C 
ENDBRANCH  21  28
ENDBRANCH  20  22
ENDBRANCH   1  20
TORSDOF 6
ENDMDL
MODEL 6
REMARK VINA RESULT:     -10.5      4.954     10.925
REMARK  Name = 446346
REMARK  6 active torsions:
REMARK  status: ('A' for Active; 'I' for Inactive)
REMARK    1  A    between atoms: N_1  and  C_20
REMARK    2  A    between atoms: N_2  and  S_8
REMARK    3  A    between atoms: S_8  and  C_11
REMARK    4  A    between atoms: C_12  and  C_14
REMARK    5  A    between atoms: C_20  and  C_22
REMARK    6  A    between atoms: N_21  and  C_28
REMARK                            x       y       z     vdW  Elec       q    Type
REMARK                         _______ _______ _______ _____ _____    ______ ____
ROOT
ATOM      1  N   UNL     1      35.501 -19.300 -21.123  0.00  0.00    +0.389 N 
ATOM      2  N   UNL     1      35.048 -17.512 -23.330  0.00  0.00    -0.160 NA
ATOM      3  C   UNL     1      36.072 -17.945 -21.129  0.00  0.00    -0.058 C 
ATOM      4  C   UNL     1      35.369 -19.810 -22.494  0.00  0.00    -0.058 C 
ATOM      5  C   UNL     1      35.199 -16.990 -21.941  0.00  0.00    +0.073 C 
ATOM      6  C   UNL     1      34.483 -18.892 -23.334  0.00  0.00    +0.073 C 
ATOM      7  H   UNL     1      34.571 -19.254 -20.706  0.00  0.00    -0.080 HD
ENDROOT
BRANCH   2   8
ATOM      8  S   UNL     1      34.351 -16.426 -24.454  0.00  0.00    +0.064 S 
ATOM      9  O   UNL     1      33.184 -17.074 -25.030  0.00  0.00    -0.153 OA
ATOM     10  O   UNL     1      35.410 -15.943 -25.322  0.00  0.00    -0.153 OA
BRANCH   8  11
ATOM     11  C   UNL     1      33.805 -15.102 -23.482  0.00  0.00    +0.141 C 
ATOM     12  C   UNL     1      33.532 -13.953 -24.113  0.00  0.00    +0.021 C 
BRANCH  12  14
ATOM     13 CL   UNL     1      31.583  -8.988 -21.442  0.00  0.00    -0.082 Cl
ATOM     14  C   UNL     1      33.050 -12.726 -23.454  0.00  0.00    +0.001 C 
ATOM     15  C   UNL     1      33.478 -11.493 -23.918  0.00  0.00    +0.001 C 
ATOM     16  C   UNL     1      32.178 -12.830 -22.381  0.00  0.00    +0.001 C 
ATOM     17  C   UNL     1      33.023 -10.332 -23.293  0.00  0.00    +0.011 C 
ATOM     18  C   UNL     1      31.723 -11.669 -21.757  0.00  0.00    +0.011 C 
ATOM     19  C   UNL     1      32.145 -10.420 -22.213  0.00  0.00    +0.058 C 
ENDBRANCH  12  14
ENDBRANCH   8  11
ENDBRANCH   2   8
BRANCH   1  20
ATOM     20  C   UNL     1      36.322 -20.200 -20.316  0.00  0.00    -0.077 C 
BRANCH  20  22
ATOM     21  N   UNL     1      33.783 -22.299 -17.540  0.00  0.00    -0.307 N 
ATOM     22  C   UNL     1      35.478 -21.290 -19.659  0.00  0.00    -0.017 C 
ATOM     23  C   UNL     1      34.023 -20.834 -19.506  0.00  0.00    +0.019 C 
ATOM     24  C   UNL     1      36.042 -21.664 -18.285  0.00  0.00    +0.019 C 
ATOM     25  C   UNL     1      33.173 -21.900 -18.816  0.00  0.00    +0.091 C 
ATOM     26  C   UNL     1      35.185 -22.725 -17.594  0.00  0.00    +0.091 C 
BRANCH  21  28
ATOM     27  N   UNL     1      31.233 -23.914 -14.589  0.00  0.00    -0.242 NA
ATOM     28  C   UNL     1      32.937 -22.835 -16.561  0.00  0.00    +0.051 C 
ATOM     29  C   UNL     1      31.543 -22.705 -16.659  0.00  0.00    +0.035 C 
ATOM     30  C   UNL     1      33.456 -23.519 -15.451  0.00  0.00    +0.035 C 
ATOM     31  C   UNL     1      30.750 -23.252 -15.665  0.00  0.00    +0.100 C 
ATOM     32  C   UNL     1      32.578 -24.030 -14.511  0.00  0.00    +0.100 C 
ENDBRANCH  21  28
ENDBRANCH  20  22
ENDBRANCH   1  20
TORSDOF 6
ENDMDL
MODEL 7
REMARK VINA RESULT:     -10.0      4.723     10.848
REMARK  Name = 446346
REMARK  6 active torsions:
REMARK  status: ('A' for Active; 'I' for Inactive)
REMARK    1  A    between atoms: N_1  and  C_20
REMARK    2  A    between atoms: N_2  and  S_8
REMARK    3  A    between atoms: S_8  and  C_11
REMARK    4  A    between atoms: C_12  and  C_14
REMARK    5  A    between atoms: C_20  and  C_22
REMARK    6  A    between atoms: N_21  and  C_28
REMARK                            x       y       z     vdW  Elec       q    Type
REMARK                         _______ _______ _______ _____ _____    ______ ____
ROOT
ATOM      1  N   UNL     1      34.991 -19.619 -21.589  0.00  0.00    +0.389 N 
ATOM      2  N   UNL     1      34.946 -17.416 -23.436  0.00  0.00    -0.160 NA
ATOM      3  C   UNL     1      35.750 -18.390 -21.319  0.00  0.00    -0.058 C 
ATOM      4  C   UNL     1      34.877 -19.848 -23.036  0.00  0.00    -0.058 C 
ATOM      5  C   UNL     1      35.079 -17.182 -21.970  0.00  0.00    +0.073 C 
ATOM      6  C   UNL     1      34.189 -18.668 -23.720  0.00  0.00    +0.073 C 
ATOM      7  H   UNL     1      34.052 -19.507 -21.205  0.00  0.00    -0.080 HD
ENDROOT
BRANCH   2   8
ATOM      8  S   UNL     1      34.487 -16.051 -24.362  0.00  0.00    +0.064 S 
ATOM      9  O   UNL     1      33.249 -16.378 -25.049  0.00  0.00    -0.153 OA
ATOM     10  O   UNL     1      35.645 -15.621 -25.125  0.00  0.00    -0.153 OA
BRANCH   8  11
ATOM     11  C   UNL     1      34.140 -14.834 -23.180  0.00  0.00    +0.141 C 
ATOM     12  C   UNL     1      33.097 -14.029 -23.421  0.00  0.00    +0.021 C 
BRANCH  12  14
ATOM     13 CL   UNL     1      31.275  -9.647 -19.806  0.00  0.00    -0.082 Cl
ATOM     14  C   UNL     1      32.648 -12.947 -22.527  0.00  0.00    +0.001 C 
ATOM     15  C   UNL     1      32.231 -13.256 -21.243  0.00  0.00    +0.001 C 
ATOM     16  C   UNL     1      32.649 -11.640 -22.990  0.00  0.00    +0.001 C 
ATOM     17  C   UNL     1      31.804 -12.231 -20.398  0.00  0.00    +0.011 C 
ATOM     18  C   UNL     1      32.223 -10.616 -22.144  0.00  0.00    +0.011 C 
ATOM     19  C   UNL     1      31.801 -10.912 -20.848  0.00  0.00    +0.058 C 
ENDBRANCH  12  14
ENDBRANCH   8  11
ENDBRANCH   2   8
BRANCH   1  20
ATOM     20  C   UNL     1      35.619 -20.766 -20.935  0.00  0.00    -0.077 C 
BRANCH  20  22
ATOM     21  N   UNL     1      34.353 -22.554 -17.226  0.00  0.00    -0.307 N 
ATOM     22  C   UNL     1      35.117 -20.938 -19.503  0.00  0.00    -0.017 C 
ATOM     23  C   UNL     1      36.159 -21.660 -18.643  0.00  0.00    +0.019 C 
ATOM     24  C   UNL     1      33.802 -21.723 -19.477  0.00  0.00    +0.019 C 
ATOM     25  C   UNL     1      35.655 -21.873 -17.217  0.00  0.00    +0.091 C 
ATOM     26  C   UNL     1      33.304 -21.942 -18.048  0.00  0.00    +0.091 C 
BRANCH  21  28
ATOM     27  N   UNL     1      33.279 -24.740 -13.779  0.00  0.00    -0.242 NA
ATOM     28  C   UNL     1      33.997 -23.280 -16.083  0.00  0.00    +0.051 C 
ATOM     29  C   UNL     1      32.654 -23.398 -15.690  0.00  0.00    +0.035 C 
ATOM     30  C   UNL     1      34.970 -23.911 -15.293  0.00  0.00    +0.035 C 
ATOM     31  C   UNL     1      32.354 -24.126 -14.551  0.00  0.00    +0.100 C 
ATOM     32  C   UNL     1      34.566 -24.616 -14.172  0.00  0.00    +0.100 C 
ENDBRANCH  21  28
ENDBRANCH  20  22
ENDBRANCH   1  20
TORSDOF 6
ENDMDL
MODEL 8
REMARK VINA RESULT:      -9.9      6.930     13.284
REMARK  Name = 446346
REMARK  6 active torsions:
REMARK  status: ('A' for Active; 'I' for Inactive)
REMARK    1  A    between atoms: N_1  and  C_20
REMARK    2  A    between atoms: N_2  and  S_8
REMARK    3  A    between atoms: S_8  and  C_11
REMARK    4  A    between atoms: C_12  and  C_14
REMARK    5  A    between atoms: C_20  and  C_22
REMARK    6  A    between atoms: N_21  and  C_28
REMARK                            x       y       z     vdW  Elec       q    Type
REMARK                         _______ _______ _______ _____ _____    ______ ____
ROOT
ATOM      1  N   UNL     1      33.879 -13.723 -23.351  0.00  0.00    +0.389 N 
ATOM      2  N   UNL     1      32.497 -11.261 -22.805  0.00  0.00    -0.160 NA
ATOM      3  C   UNL     1      34.223 -12.486 -24.068  0.00  0.00    -0.058 C 
ATOM      4  C   UNL     1      32.460 -13.720 -22.972  0.00  0.00    -0.058 C 
ATOM      5  C   UNL     1      33.933 -11.259 -23.207  0.00  0.00    +0.073 C 
ATOM      6  C   UNL     1      32.134 -12.517 -22.089  0.00  0.00    +0.073 C 
ATOM      7  H   UNL     1      34.440 -13.767 -22.500  0.00  0.00    -0.080 HD
ENDROOT
BRANCH   2   8
ATOM      8  S   UNL     1      31.931  -9.813 -22.087  0.00  0.00    +0.064 S 
ATOM      9  O   UNL     1      32.158  -9.911 -20.655  0.00  0.00    -0.153 OA
ATOM     10  O   UNL     1      30.592  -9.562 -22.591  0.00  0.00    -0.153 OA
BRANCH   8  11
ATOM     11  C   UNL     1      32.981  -8.589 -22.716  0.00  0.00    +0.141 C 
ATOM     12  C   UNL     1      32.630  -8.022 -23.877  0.00  0.00    +0.021 C 
BRANCH  12  14
ATOM     13 CL   UNL     1      35.720  -3.728 -26.634  0.00  0.00    -0.082 Cl
ATOM     14  C   UNL     1      33.393  -6.961 -24.558  0.00  0.00    +0.001 C 
ATOM     15  C   UNL     1      32.760  -6.169 -25.503  0.00  0.00    +0.001 C 
ATOM     16  C   UNL     1      34.730  -6.776 -24.241  0.00  0.00    +0.001 C 
ATOM     17  C   UNL     1      33.483  -5.166 -26.148  0.00  0.00    +0.011 C 
ATOM     18  C   UNL     1      35.452  -5.772 -24.886  0.00  0.00    +0.011 C 
ATOM     19  C   UNL     1      34.828  -4.966 -25.839  0.00  0.00    +0.058 C 
ENDBRANCH  12  14
ENDBRANCH   8  11
ENDBRANCH   2   8
BRANCH   1  20
ATOM     20  C   UNL     1      34.192 -14.895 -24.167  0.00  0.00    -0.077 C 
BRANCH  20  22
ATOM     21  N   UNL     1      35.063 -18.229 -21.583  0.00  0.00    -0.307 N 
ATOM     22  C   UNL     1      34.948 -15.950 -23.365  0.00  0.00    -0.017 C 
ATOM     23  C   UNL     1      34.583 -17.360 -23.839  0.00  0.00    +0.019 C 
ATOM     24  C   UNL     1      34.646 -15.820 -21.869  0.00  0.00    +0.019 C 
ATOM     25  C   UNL     1      35.304 -18.429 -23.019  0.00  0.00    +0.091 C 
ATOM     26  C   UNL     1      35.363 -16.896 -21.053  0.00  0.00    +0.091 C 
BRANCH  21  28
ATOM     27  N   UNL     1      35.425 -21.597 -19.065  0.00  0.00    -0.242 NA
ATOM     28  C   UNL     1      35.183 -19.346 -20.748  0.00  0.00    +0.051 C 
ATOM     29  C   UNL     1      36.436 -19.764 -20.273  0.00  0.00    +0.035 C 
ATOM     30  C   UNL     1      34.054 -20.084 -20.359  0.00  0.00    +0.035 C 
ATOM     31  C   UNL     1      36.502 -20.875 -19.450  0.00  0.00    +0.100 C 
ATOM     32  C   UNL     1      34.226 -21.181 -19.531  0.00  0.00    +0.100 C 
ENDBRANCH  21  28
ENDBRANCH  20  22
ENDBRANCH   1  20
TORSDOF 6
ENDMDL
MODEL 9
REMARK VINA RESULT:      -9.6      4.615     10.805
REMARK  Name = 446346
REMARK  6 active torsions:
REMARK  status: ('A' for Active; 'I' for Inactive)
REMARK    1  A    between atoms: N_1  and  C_20
REMARK    2  A    between atoms: N_2  and  S_8
REMARK    3  A    between atoms: S_8  and  C_11
REMARK    4  A    between atoms: C_12  and  C_14
REMARK    5  A    between atoms: C_20  and  C_22
REMARK    6  A    between atoms: N_21  and  C_28
REMARK                            x       y       z     vdW  Elec       q    Type
REMARK                         _______ _______ _______ _____ _____    ______ ____
ROOT
ATOM      1  N   UNL     1      35.082 -19.624 -21.608  0.00  0.00    +0.389 N 
ATOM      2  N   UNL     1      34.989 -17.316 -23.320  0.00  0.00    -0.160 NA
ATOM      3  C   UNL     1      35.885 -18.429 -21.311  0.00  0.00    -0.058 C 
ATOM      4  C   UNL     1      34.883 -19.765 -23.057  0.00  0.00    -0.058 C 
ATOM      5  C   UNL     1      35.209 -17.171 -21.852  0.00  0.00    +0.073 C 
ATOM      6  C   UNL     1      34.187 -18.533 -23.633  0.00  0.00    +0.073 C 
ATOM      7  H   UNL     1      34.169 -19.515 -21.166  0.00  0.00    -0.080 HD
ENDROOT
BRANCH   2   8
ATOM      8  S   UNL     1      34.514 -15.889 -24.138  0.00  0.00    +0.064 S 
ATOM      9  O   UNL     1      33.303 -16.189 -24.884  0.00  0.00    -0.153 OA
ATOM     10  O   UNL     1      35.678 -15.365 -24.831  0.00  0.00    -0.153 OA
BRANCH   8  11
ATOM     11  C   UNL     1      34.104 -14.788 -22.867  0.00  0.00    +0.141 C 
ATOM     12  C   UNL     1      33.086 -13.948 -23.092  0.00  0.00    +0.021 C 
BRANCH  12  14
ATOM     13 CL   UNL     1      31.077  -9.911 -19.187  0.00  0.00    -0.082 Cl
ATOM     14  C   UNL     1      32.590 -12.951 -22.127  0.00  0.00    +0.001 C 
ATOM     15  C   UNL     1      32.584 -13.258 -20.776  0.00  0.00    +0.001 C 
ATOM     16  C   UNL     1      32.139 -11.724 -22.590  0.00  0.00    +0.001 C 
ATOM     17  C   UNL     1      32.113 -12.314 -19.863  0.00  0.00    +0.011 C 
ATOM     18  C   UNL     1      31.669 -10.781 -21.676  0.00  0.00    +0.011 C 
ATOM     19  C   UNL     1      31.657 -11.076 -20.313  0.00  0.00    +0.058 C 
ENDBRANCH  12  14
ENDBRANCH   8  11
ENDBRANCH   2   8
BRANCH   1  20
ATOM     20  C   UNL     1      35.717 -20.820 -21.057  0.00  0.00    -0.077 C 
BRANCH  20  22
ATOM     21  N   UNL     1      35.793 -22.263 -16.999  0.00  0.00    -0.307 N 
ATOM     22  C   UNL     1      35.504 -20.923 -19.549  0.00  0.00    -0.017 C 
ATOM     23  C   UNL     1      36.846 -20.966 -18.811  0.00  0.00    +0.019 C 
ATOM     24  C   UNL     1      34.687 -22.170 -19.196  0.00  0.00    +0.019 C 
ATOM     25  C   UNL     1      36.649 -21.107 -17.302  0.00  0.00    +0.091 C 
ATOM     26  C   UNL     1      34.498 -22.312 -17.686  0.00  0.00    +0.091 C 
BRANCH  21  28
ATOM     27  N   UNL     1      36.188 -24.025 -13.184  0.00  0.00    -0.242 NA
ATOM     28  C   UNL     1      35.924 -22.848 -15.734  0.00  0.00    +0.051 C 
ATOM     29  C   UNL     1      34.833 -23.471 -15.107  0.00  0.00    +0.035 C 
ATOM     30  C   UNL     1      37.150 -22.829 -15.051  0.00  0.00    +0.035 C 
ATOM     31  C   UNL     1      35.015 -24.035 -13.855  0.00  0.00    +0.100 C 
ATOM     32  C   UNL     1      37.228 -23.421 -13.801  0.00  0.00    +0.100 C 
ENDBRANCH  21  28
ENDBRANCH  20  22
ENDBRANCH   1  20
TORSDOF 6
ENDMDL
