MODEL 1
REMARK VINA RESULT:     -13.4      0.000      0.000
REMARK  Name = 4887
REMARK  9 active torsions:
REMARK  status: ('A' for Active; 'I' for Inactive)
REMARK    1  A    between atoms: N_2  and  C_8
REMARK    2  A    between atoms: C_3  and  C_23
REMARK    3  A    between atoms: C_14  and  C_20
REMARK    4  A    between atoms: C_22  and  O_28
REMARK    5  A    between atoms: O_28  and  C_29
REMARK    6  A    between atoms: C_29  and  C_30
REMARK    7  A    between atoms: C_30  and  C_31
REMARK    8  A    between atoms: C_31  and  C_32
REMARK    9  A    between atoms: C_32  and  C_33
REMARK                            x       y       z     vdW  Elec       q    Type
REMARK                         _______ _______ _______ _____ _____    ______ ____
ROOT
ATOM      1  O   UNL     1      33.700 -23.777 -18.299  0.00  0.00    -0.270 OA
ATOM      2  N   UNL     1      32.367 -22.109 -17.315  0.00  0.00    -0.278 N 
ATOM      3  C   UNL     1      33.324 -22.613 -18.204  0.00  0.00    +0.250 C 
ATOM      4  H   UNL     1      32.186 -21.144 -17.377  0.00  0.00    +0.155 HD
ENDROOT
BRANCH   2   8
ATOM      5  O   UNL     1      33.648 -23.373 -15.246  0.00  0.00    -0.442 OA
ATOM      6  O   UNL     1      31.638 -25.441 -12.370  0.00  0.00    -0.286 OA
ATOM      7  C   UNL     1      32.280 -23.456 -15.293  0.00  0.00    +0.163 C 
ATOM      8  C   UNL     1      31.638 -22.809 -16.350  0.00  0.00    +0.086 C 
ATOM      9  C   UNL     1      31.530 -24.146 -14.343  0.00  0.00    +0.075 C 
ATOM     10  C   UNL     1      30.248 -22.857 -16.452  0.00  0.00    +0.018 C 
ATOM     11  C   UNL     1      30.137 -24.197 -14.441  0.00  0.00    +0.006 C 
ATOM     12  C   UNL     1      32.231 -24.818 -13.240  0.00  0.00    +0.202 C 
ATOM     13  C   UNL     1      29.499 -23.549 -15.500  0.00  0.00    +0.002 C 
ATOM     14  C   UNL     1      34.321 -24.007 -14.207  0.00  0.00    +0.213 C 
ATOM     15  C   UNL     1      33.703 -24.700 -13.236  0.00  0.00    +0.090 C 
BRANCH  14  20
ATOM     16  N   UNL     1      36.509 -23.942 -15.380  0.00  0.00    -0.107 NA
ATOM     17  N   UNL     1      36.455 -23.552 -13.149  0.00  0.00    -0.084 NA
ATOM     18  N   UNL     1      37.711 -23.695 -14.839  0.00  0.00    -0.140 N 
ATOM     19  N   UNL     1      37.726 -23.459 -13.520  0.00  0.00    -0.022 NA
ATOM     20  C   UNL     1      35.754 -23.841 -14.283  0.00  0.00    +0.109 C 
ATOM     21  H   UNL     1      38.534 -23.688 -15.379  0.00  0.00    +0.197 HD
ENDBRANCH  14  20
ENDBRANCH   2   8
BRANCH   3  23
ATOM     22  C   UNL     1      35.129 -19.719 -20.783  0.00  0.00    +0.139 C 
ATOM     23  C   UNL     1      33.952 -21.607 -19.100  0.00  0.00    +0.054 C 
ATOM     24  C   UNL     1      33.739 -19.805 -20.695  0.00  0.00    +0.037 C 
ATOM     25  C   UNL     1      35.930 -20.577 -20.029  0.00  0.00    +0.037 C 
ATOM     26  C   UNL     1      33.151 -20.750 -19.854  0.00  0.00    +0.008 C 
ATOM     27  C   UNL     1      35.342 -21.521 -19.188  0.00  0.00    +0.008 C 
BRANCH  22  28
ATOM     28  O   UNL     1      35.703 -18.796 -21.601  0.00  0.00    -0.475 OA
BRANCH  28  29
ATOM     29  C   UNL     1      35.355 -18.849 -22.984  0.00  0.00    +0.205 C 
BRANCH  29  30
ATOM     30  C   UNL     1      34.944 -17.457 -23.442  0.00  0.00    +0.048 C 
BRANCH  30  31
ATOM     31  C   UNL     1      35.143 -16.420 -22.337  0.00  0.00    +0.009 C 
BRANCH  31  32
ATOM     32  C   UNL     1      34.896 -15.002 -22.858  0.00  0.00    +0.026 C 
BRANCH  32  33
ATOM     33  C   UNL     1      33.840 -14.289 -22.052  0.00  0.00    -0.022 C 
ATOM     34  C   UNL     1      33.013 -13.348 -22.664  0.00  0.00    -0.004 C 
ATOM     35  C   UNL     1      33.691 -14.570 -20.694  0.00  0.00    -0.004 C 
ATOM     36  C   UNL     1      32.036 -12.687 -21.919  0.00  0.00    -0.000 C 
ATOM     37  C   UNL     1      32.714 -13.910 -19.948  0.00  0.00    -0.000 C 
ATOM     38  C   UNL     1      31.887 -12.969 -20.560  0.00  0.00    -0.000 C 
ENDBRANCH  32  33
ENDBRANCH  31  32
ENDBRANCH  30  31
ENDBRANCH  29  30
ENDBRANCH  28  29
ENDBRANCH  22  28
ENDBRANCH   3  23
TORSDOF 9
ENDMDL
MODEL 2
REMARK VINA RESULT:     -13.2      1.846      3.987
REMARK  Name = 4887
REMARK  9 active torsions:
REMARK  status: ('A' for Active; 'I' for Inactive)
REMARK    1  A    between atoms: N_2  and  C_8
REMARK    2  A    between atoms: C_3  and  C_23
REMARK    3  A    between atoms: C_14  and  C_20
REMARK    4  A    between atoms: C_22  and  O_28
REMARK    5  A    between atoms: O_28  and  C_29
REMARK    6  A    between atoms: C_29  and  C_30
REMARK    7  A    between atoms: C_30  and  C_31
REMARK    8  A    between atoms: C_31  and  C_32
REMARK    9  A    between atoms: C_32  and  C_33
REMARK                            x       y       z     vdW  Elec       q    Type
REMARK                         _______ _______ _______ _____ _____    ______ ____
ROOT
ATOM      1  O   UNL     1      35.970 -22.599 -17.122  0.00  0.00    -0.270 OA
ATOM      2  N   UNL     1      33.649 -22.655 -16.757  0.00  0.00    -0.278 N 
ATOM      3  C   UNL     1      34.821 -22.328 -17.450  0.00  0.00    +0.250 C 
ATOM      4  H   UNL     1      32.806 -22.357 -17.168  0.00  0.00    +0.155 HD
ENDROOT
BRANCH   2   8
ATOM      5  O   UNL     1      31.178 -23.277 -15.742  0.00  0.00    -0.442 OA
ATOM      6  O   UNL     1      30.700 -25.310 -12.246  0.00  0.00    -0.286 OA
ATOM      7  C   UNL     1      32.278 -23.676 -15.027  0.00  0.00    +0.163 C 
ATOM      8  C   UNL     1      33.530 -23.354 -15.552  0.00  0.00    +0.086 C 
ATOM      9  C   UNL     1      32.188 -24.373 -13.824  0.00  0.00    +0.075 C 
ATOM     10  C   UNL     1      34.687 -23.731 -14.870  0.00  0.00    +0.018 C 
ATOM     11  C   UNL     1      33.343 -24.754 -13.138  0.00  0.00    +0.006 C 
ATOM     12  C   UNL     1      30.856 -24.699 -13.295  0.00  0.00    +0.202 C 
ATOM     13  C   UNL     1      34.594 -24.430 -13.666  0.00  0.00    +0.002 C 
ATOM     14  C   UNL     1      29.913 -23.579 -15.249  0.00  0.00    +0.213 C 
ATOM     15  C   UNL     1      29.705 -24.247 -14.102  0.00  0.00    +0.090 C 
BRANCH  14  20
ATOM     16  N   UNL     1      28.446 -23.642 -17.252  0.00  0.00    -0.107 NA
ATOM     17  N   UNL     1      28.155 -21.983 -15.738  0.00  0.00    -0.084 NA
ATOM     18  N   UNL     1      27.464 -22.784 -17.563  0.00  0.00    -0.140 N 
ATOM     19  N   UNL     1      27.256 -21.785 -16.695  0.00  0.00    -0.022 NA
ATOM     20  C   UNL     1      28.849 -23.099 -16.099  0.00  0.00    +0.109 C 
ATOM     21  H   UNL     1      26.927 -22.882 -18.382  0.00  0.00    +0.197 HD
ENDBRANCH  14  20
ENDBRANCH   2   8
BRANCH   3  23
ATOM     22  C   UNL     1      34.250 -20.087 -21.046  0.00  0.00    +0.139 C 
ATOM     23  C   UNL     1      34.623 -21.548 -18.700  0.00  0.00    +0.054 C 
ATOM     24  C   UNL     1      33.147 -20.487 -20.291  0.00  0.00    +0.037 C 
ATOM     25  C   UNL     1      35.539 -20.418 -20.628  0.00  0.00    +0.037 C 
ATOM     26  C   UNL     1      33.333 -21.218 -19.118  0.00  0.00    +0.008 C 
ATOM     27  C   UNL     1      35.726 -21.148 -19.455  0.00  0.00    +0.008 C 
BRANCH  22  28
ATOM     28  O   UNL     1      34.068 -19.371 -22.189  0.00  0.00    -0.475 OA
BRANCH  28  29
ATOM     29  C   UNL     1      35.239 -18.890 -22.848  0.00  0.00    +0.205 C 
BRANCH  29  30
ATOM     30  C   UNL     1      34.970 -17.484 -23.365  0.00  0.00    +0.048 C 
BRANCH  30  31
ATOM     31  C   UNL     1      35.125 -16.439 -22.261  0.00  0.00    +0.009 C 
BRANCH  31  32
ATOM     32  C   UNL     1      34.903 -15.025 -22.802  0.00  0.00    +0.026 C 
BRANCH  32  33
ATOM     33  C   UNL     1      33.836 -14.293 -22.027  0.00  0.00    -0.022 C 
ATOM     34  C   UNL     1      32.986 -13.402 -22.682  0.00  0.00    -0.004 C 
ATOM     35  C   UNL     1      33.699 -14.507 -20.657  0.00  0.00    -0.004 C 
ATOM     36  C   UNL     1      32.000 -12.725 -21.967  0.00  0.00    -0.000 C 
ATOM     37  C   UNL     1      32.712 -13.831 -19.940  0.00  0.00    -0.000 C 
ATOM     38  C   UNL     1      31.862 -12.940 -20.595  0.00  0.00    -0.000 C 
ENDBRANCH  32  33
ENDBRANCH  31  32
ENDBRANCH  30  31
ENDBRANCH  29  30
ENDBRANCH  28  29
ENDBRANCH  22  28
ENDBRANCH   3  23
TORSDOF 9
ENDMDL
MODEL 3
REMARK VINA RESULT:     -12.8      1.631      3.690
REMARK  Name = 4887
REMARK  9 active torsions:
REMARK  status: ('A' for Active; 'I' for Inactive)
REMARK    1  A    between atoms: N_2  and  C_8
REMARK    2  A    between atoms: C_3  and  C_23
REMARK    3  A    between atoms: C_14  and  C_20
REMARK    4  A    between atoms: C_22  and  O_28
REMARK    5  A    between atoms: O_28  and  C_29
REMARK    6  A    between atoms: C_29  and  C_30
REMARK    7  A    between atoms: C_30  and  C_31
REMARK    8  A    between atoms: C_31  and  C_32
REMARK    9  A    between atoms: C_32  and  C_33
REMARK                            x       y       z     vdW  Elec       q    Type
REMARK                         _______ _______ _______ _____ _____    ______ ____
ROOT
ATOM      1  O   UNL     1      34.240 -23.516 -18.102  0.00  0.00    -0.270 OA
ATOM      2  N   UNL     1      35.563 -21.978 -16.914  0.00  0.00    -0.278 N 
ATOM      3  C   UNL     1      34.802 -22.430 -17.999  0.00  0.00    +0.250 C 
ATOM      4  H   UNL     1      35.942 -21.074 -17.000  0.00  0.00    +0.155 HD
ENDROOT
BRANCH   2   8
ATOM      5  O   UNL     1      33.539 -22.859 -15.286  0.00  0.00    -0.442 OA
ATOM      6  O   UNL     1      34.246 -24.842 -11.800  0.00  0.00    -0.286 OA
ATOM      7  C   UNL     1      34.829 -23.107 -14.889  0.00  0.00    +0.163 C 
ATOM      8  C   UNL     1      35.851 -22.654 -15.725  0.00  0.00    +0.086 C 
ATOM      9  C   UNL     1      35.142 -23.779 -13.710  0.00  0.00    +0.075 C 
ATOM     10  C   UNL     1      37.183 -22.875 -15.376  0.00  0.00    +0.018 C 
ATOM     11  C   UNL     1      36.475 -24.003 -13.356  0.00  0.00    +0.006 C 
ATOM     12  C   UNL     1      34.046 -24.245 -12.849  0.00  0.00    +0.202 C 
ATOM     13  C   UNL     1      37.494 -23.548 -14.194  0.00  0.00    +0.002 C 
ATOM     14  C   UNL     1      32.495 -23.295 -14.478  0.00  0.00    +0.213 C 
ATOM     15  C   UNL     1      32.678 -23.952 -13.321  0.00  0.00    +0.090 C 
BRANCH  14  20
ATOM     16  N   UNL     1      30.060 -22.834 -14.323  0.00  0.00    -0.107 NA
ATOM     17  N   UNL     1      31.057 -22.760 -16.356  0.00  0.00    -0.084 NA
ATOM     18  N   UNL     1      29.227 -22.535 -15.330  0.00  0.00    -0.140 N 
ATOM     19  N   UNL     1      29.774 -22.480 -16.552  0.00  0.00    -0.022 NA
ATOM     20  C   UNL     1      31.195 -22.966 -15.014  0.00  0.00    +0.109 C 
ATOM     21  H   UNL     1      28.269 -22.365 -15.181  0.00  0.00    +0.197 HD
ENDBRANCH  14  20
ENDBRANCH   2   8
BRANCH   3  23
ATOM     22  C   UNL     1      34.503 -19.712 -21.285  0.00  0.00    +0.139 C 
ATOM     23  C   UNL     1      34.698 -21.485 -19.141  0.00  0.00    +0.054 C 
ATOM     24  C   UNL     1      33.346 -20.198 -20.675  0.00  0.00    +0.037 C 
ATOM     25  C   UNL     1      35.757 -20.112 -20.823  0.00  0.00    +0.037 C 
ATOM     26  C   UNL     1      33.444 -21.086 -19.603  0.00  0.00    +0.008 C 
ATOM     27  C   UNL     1      35.855 -20.998 -19.751  0.00  0.00    +0.008 C 
BRANCH  22  28
ATOM     28  O   UNL     1      34.407 -18.844 -22.329  0.00  0.00    -0.475 OA
BRANCH  28  29
ATOM     29  C   UNL     1      35.557 -18.052 -22.622  0.00  0.00    +0.205 C 
BRANCH  29  30
ATOM     30  C   UNL     1      35.113 -16.795 -23.357  0.00  0.00    +0.048 C 
BRANCH  30  31
ATOM     31  C   UNL     1      34.905 -15.625 -22.397  0.00  0.00    +0.009 C 
BRANCH  31  32
ATOM     32  C   UNL     1      34.235 -14.443 -23.101  0.00  0.00    +0.026 C 
BRANCH  32  33
ATOM     33  C   UNL     1      33.344 -13.668 -22.163  0.00  0.00    -0.022 C 
ATOM     34  C   UNL     1      32.627 -12.567 -22.632  0.00  0.00    -0.004 C 
ATOM     35  C   UNL     1      33.236 -14.052 -20.827  0.00  0.00    -0.004 C 
ATOM     36  C   UNL     1      31.804 -11.850 -21.765  0.00  0.00    -0.000 C 
ATOM     37  C   UNL     1      32.413 -13.335 -19.959  0.00  0.00    -0.000 C 
ATOM     38  C   UNL     1      31.696 -12.235 -20.428  0.00  0.00    -0.000 C 
ENDBRANCH  32  33
ENDBRANCH  31  32
ENDBRANCH  30  31
ENDBRANCH  29  30
ENDBRANCH  28  29
ENDBRANCH  22  28
ENDBRANCH   3  23
TORSDOF 9
ENDMDL
MODEL 4
REMARK VINA RESULT:     -11.6      2.358      4.326
REMARK  Name = 4887
REMARK  9 active torsions:
REMARK  status: ('A' for Active; 'I' for Inactive)
REMARK    1  A    between atoms: N_2  and  C_8
REMARK    2  A    between atoms: C_3  and  C_23
REMARK    3  A    between atoms: C_14  and  C_20
REMARK    4  A    between atoms: C_22  and  O_28
REMARK    5  A    between atoms: O_28  and  C_29
REMARK    6  A    between atoms: C_29  and  C_30
REMARK    7  A    between atoms: C_30  and  C_31
REMARK    8  A    between atoms: C_31  and  C_32
REMARK    9  A    between atoms: C_32  and  C_33
REMARK                            x       y       z     vdW  Elec       q    Type
REMARK                         _______ _______ _______ _____ _____    ______ ____
ROOT
ATOM      1  O   UNL     1      37.835 -21.037 -16.169  0.00  0.00    -0.270 OA
ATOM      2  N   UNL     1      36.717 -23.104 -16.218  0.00  0.00    -0.278 N 
ATOM      3  C   UNL     1      37.057 -21.830 -16.688  0.00  0.00    +0.250 C 
ATOM      4  H   UNL     1      36.072 -23.608 -16.765  0.00  0.00    +0.155 HD
ENDROOT
BRANCH   2   8
ATOM      5  O   UNL     1      34.994 -23.722 -14.176  0.00  0.00    -0.442 OA
ATOM      6  O   UNL     1      36.219 -25.595 -10.774  0.00  0.00    -0.286 OA
ATOM      7  C   UNL     1      36.312 -24.066 -14.021  0.00  0.00    +0.163 C 
ATOM      8  C   UNL     1      37.180 -23.747 -15.067  0.00  0.00    +0.086 C 
ATOM      9  C   UNL     1      36.800 -24.707 -12.885  0.00  0.00    +0.075 C 
ATOM     10  C   UNL     1      38.533 -24.071 -14.969  0.00  0.00    +0.018 C 
ATOM     11  C   UNL     1      38.154 -25.034 -12.783  0.00  0.00    +0.006 C 
ATOM     12  C   UNL     1      35.863 -25.031 -11.800  0.00  0.00    +0.202 C 
ATOM     13  C   UNL     1      39.019 -24.713 -13.829  0.00  0.00    +0.002 C 
ATOM     14  C   UNL     1      34.099 -24.023 -13.154  0.00  0.00    +0.213 C 
ATOM     15  C   UNL     1      34.456 -24.639 -12.015  0.00  0.00    +0.090 C 
BRANCH  14  20
ATOM     16  N   UNL     1      32.334 -22.974 -14.551  0.00  0.00    -0.107 NA
ATOM     17  N   UNL     1      31.759 -23.848 -12.542  0.00  0.00    -0.084 NA
ATOM     18  N   UNL     1      31.032 -22.855 -14.255  0.00  0.00    -0.140 N 
ATOM     19  N   UNL     1      30.647 -23.359 -13.075  0.00  0.00    -0.022 NA
ATOM     20  C   UNL     1      32.749 -23.603 -13.448  0.00  0.00    +0.109 C 
ATOM     21  H   UNL     1      30.396 -22.422 -14.869  0.00  0.00    +0.197 HD
ENDBRANCH  14  20
ENDBRANCH   2   8
BRANCH   3  23
ATOM     22  C   UNL     1      35.084 -20.620 -20.284  0.00  0.00    +0.139 C 
ATOM     23  C   UNL     1      36.371 -21.410 -17.938  0.00  0.00    +0.054 C 
ATOM     24  C   UNL     1      36.343 -20.105 -19.971  0.00  0.00    +0.037 C 
ATOM     25  C   UNL     1      34.469 -21.529 -19.423  0.00  0.00    +0.037 C 
ATOM     26  C   UNL     1      36.986 -20.500 -18.798  0.00  0.00    +0.008 C 
ATOM     27  C   UNL     1      35.112 -21.925 -18.250  0.00  0.00    +0.008 C 
BRANCH  22  28
ATOM     28  O   UNL     1      34.458 -20.237 -21.429  0.00  0.00    -0.475 OA
BRANCH  28  29
ATOM     29  C   UNL     1      34.968 -19.081 -22.092  0.00  0.00    +0.205 C 
BRANCH  29  30
ATOM     30  C   UNL     1      34.841 -19.281 -23.596  0.00  0.00    +0.048 C 
BRANCH  30  31
ATOM     31  C   UNL     1      34.008 -18.176 -24.243  0.00  0.00    +0.009 C 
BRANCH  31  32
ATOM     32  C   UNL     1      34.877 -16.969 -24.607  0.00  0.00    +0.026 C 
BRANCH  32  33
ATOM     33  C   UNL     1      34.402 -15.714 -23.919  0.00  0.00    -0.022 C 
ATOM     34  C   UNL     1      33.476 -14.882 -24.548  0.00  0.00    -0.004 C 
ATOM     35  C   UNL     1      34.887 -15.385 -22.654  0.00  0.00    -0.004 C 
ATOM     36  C   UNL     1      33.037 -13.721 -23.913  0.00  0.00    -0.000 C 
ATOM     37  C   UNL     1      34.448 -14.224 -22.018  0.00  0.00    -0.000 C 
ATOM     38  C   UNL     1      33.523 -13.392 -22.647  0.00  0.00    -0.000 C 
ENDBRANCH  32  33
ENDBRANCH  31  32
ENDBRANCH  30  31
ENDBRANCH  29  30
ENDBRANCH  28  29
ENDBRANCH  22  28
ENDBRANCH   3  23
TORSDOF 9
ENDMDL
MODEL 5
REMARK VINA RESULT:     -11.4      6.852     13.348
REMARK  Name = 4887
REMARK  9 active torsions:
REMARK  status: ('A' for Active; 'I' for Inactive)
REMARK    1  A    between atoms: N_2  and  C_8
REMARK    2  A    between atoms: C_3  and  C_23
REMARK    3  A    between atoms: C_14  and  C_20
REMARK    4  A    between atoms: C_22  and  O_28
REMARK    5  A    between atoms: O_28  and  C_29
REMARK    6  A    between atoms: C_29  and  C_30
REMARK    7  A    between atoms: C_30  and  C_31
REMARK    8  A    between atoms: C_31  and  C_32
REMARK    9  A    between atoms: C_32  and  C_33
REMARK                            x       y       z     vdW  Elec       q    Type
REMARK                         _______ _______ _______ _____ _____    ______ ____
ROOT
ATOM      1  O   UNL     1      34.892 -10.399 -23.653  0.00  0.00    -0.270 OA
ATOM      2  N   UNL     1      32.585 -10.273 -24.089  0.00  0.00    -0.278 N 
ATOM      3  C   UNL     1      33.810 -10.923 -23.897  0.00  0.00    +0.250 C 
ATOM      4  H   UNL     1      31.813 -10.854 -24.276  0.00  0.00    +0.155 HD
ENDROOT
BRANCH   2   8
ATOM      5  O   UNL     1      32.088  -9.017 -21.702  0.00  0.00    -0.442 OA
ATOM      6  O   UNL     1      31.323  -5.025 -21.452  0.00  0.00    -0.286 OA
ATOM      7  C   UNL     1      32.072  -8.251 -22.840  0.00  0.00    +0.163 C 
ATOM      8  C   UNL     1      32.326  -8.900 -24.049  0.00  0.00    +0.086 C 
ATOM      9  C   UNL     1      31.817  -6.882 -22.827  0.00  0.00    +0.075 C 
ATOM     10  C   UNL     1      32.323  -8.175 -25.240  0.00  0.00    +0.018 C 
ATOM     11  C   UNL     1      31.814  -6.151 -24.017  0.00  0.00    +0.006 C 
ATOM     12  C   UNL     1      31.553  -6.224 -21.539  0.00  0.00    +0.202 C 
ATOM     13  C   UNL     1      32.068  -6.803 -25.224  0.00  0.00    +0.002 C 
ATOM     14  C   UNL     1      31.837  -8.405 -20.479  0.00  0.00    +0.213 C 
ATOM     15  C   UNL     1      31.580  -7.093 -20.346  0.00  0.00    +0.090 C 
BRANCH  14  20
ATOM     16  N   UNL     1      31.939  -9.010 -18.073  0.00  0.00    -0.107 NA
ATOM     17  N   UNL     1      31.871 -10.670 -19.613  0.00  0.00    -0.084 NA
ATOM     18  N   UNL     1      31.960 -10.244 -17.548  0.00  0.00    -0.140 N 
ATOM     19  N   UNL     1      31.921 -11.257 -18.424  0.00  0.00    -0.022 NA
ATOM     20  C   UNL     1      31.883  -9.328 -19.369  0.00  0.00    +0.109 C 
ATOM     21  H   UNL     1      32.001 -10.397 -16.577  0.00  0.00    +0.197 HD
ENDBRANCH  14  20
ENDBRANCH   2   8
BRANCH   3  23
ATOM     22  C   UNL     1      33.699 -15.180 -24.282  0.00  0.00    +0.139 C 
ATOM     23  C   UNL     1      33.772 -12.403 -24.030  0.00  0.00    +0.054 C 
ATOM     24  C   UNL     1      33.246 -14.373 -25.326  0.00  0.00    +0.037 C 
ATOM     25  C   UNL     1      34.188 -14.599 -23.112  0.00  0.00    +0.037 C 
ATOM     26  C   UNL     1      33.282 -12.985 -25.200  0.00  0.00    +0.008 C 
ATOM     27  C   UNL     1      34.225 -13.210 -22.986  0.00  0.00    +0.008 C 
BRANCH  22  28
ATOM     28  O   UNL     1      33.665 -16.535 -24.406  0.00  0.00    -0.475 OA
BRANCH  28  29
ATOM     29  C   UNL     1      34.786 -17.261 -23.901  0.00  0.00    +0.205 C 
BRANCH  29  30
ATOM     30  C   UNL     1      34.403 -18.729 -23.773  0.00  0.00    +0.048 C 
BRANCH  30  31
ATOM     31  C   UNL     1      35.207 -19.427 -22.678  0.00  0.00    +0.009 C 
BRANCH  31  32
ATOM     32  C   UNL     1      34.778 -18.951 -21.287  0.00  0.00    +0.026 C 
BRANCH  32  33
ATOM     33  C   UNL     1      34.578 -20.108 -20.341  0.00  0.00    -0.022 C 
ATOM     34  C   UNL     1      33.293 -20.450 -19.920  0.00  0.00    -0.004 C 
ATOM     35  C   UNL     1      35.676 -20.835 -19.886  0.00  0.00    -0.004 C 
ATOM     36  C   UNL     1      33.106 -21.519 -19.044  0.00  0.00    -0.000 C 
ATOM     37  C   UNL     1      35.491 -21.905 -19.010  0.00  0.00    -0.000 C 
ATOM     38  C   UNL     1      34.206 -22.247 -18.590  0.00  0.00    -0.000 C 
ENDBRANCH  32  33
ENDBRANCH  31  32
ENDBRANCH  30  31
ENDBRANCH  29  30
ENDBRANCH  28  29
ENDBRANCH  22  28
ENDBRANCH   3  23
TORSDOF 9
ENDMDL
MODEL 6
REMARK VINA RESULT:     -11.1      1.103      1.594
REMARK  Name = 4887
REMARK  9 active torsions:
REMARK  status: ('A' for Active; 'I' for Inactive)
REMARK    1  A    between atoms: N_2  and  C_8
REMARK    2  A    between atoms: C_3  and  C_23
REMARK    3  A    between atoms: C_14  and  C_20
REMARK    4  A    between atoms: C_22  and  O_28
REMARK    5  A    between atoms: O_28  and  C_29
REMARK    6  A    between atoms: C_29  and  C_30
REMARK    7  A    between atoms: C_30  and  C_31
REMARK    8  A    between atoms: C_31  and  C_32
REMARK    9  A    between atoms: C_32  and  C_33
REMARK                            x       y       z     vdW  Elec       q    Type
REMARK                         _______ _______ _______ _____ _____    ______ ____
ROOT
ATOM      1  O   UNL     1      34.240 -23.925 -17.758  0.00  0.00    -0.270 OA
ATOM      2  N   UNL     1      32.925 -22.337 -16.628  0.00  0.00    -0.278 N 
ATOM      3  C   UNL     1      33.705 -22.824 -17.684  0.00  0.00    +0.250 C 
ATOM      4  H   UNL     1      32.571 -21.426 -16.737  0.00  0.00    +0.155 HD
ENDROOT
BRANCH   2   8
ATOM      5  O   UNL     1      34.879 -23.388 -15.014  0.00  0.00    -0.442 OA
ATOM      6  O   UNL     1      34.031 -25.302 -11.522  0.00  0.00    -0.286 OA
ATOM      7  C   UNL     1      33.576 -23.526 -14.609  0.00  0.00    +0.163 C 
ATOM      8  C   UNL     1      32.590 -22.988 -15.437  0.00  0.00    +0.086 C 
ATOM      9  C   UNL     1      33.215 -24.169 -13.427  0.00  0.00    +0.075 C 
ATOM     10  C   UNL     1      31.246 -23.097 -15.079  0.00  0.00    +0.018 C 
ATOM     11  C   UNL     1      31.871 -24.280 -13.064  0.00  0.00    +0.006 C 
ATOM     12  C   UNL     1      34.274 -24.726 -12.573  0.00  0.00    +0.202 C 
ATOM     13  C   UNL     1      30.887 -23.742 -13.895  0.00  0.00    +0.002 C 
ATOM     14  C   UNL     1      35.888 -23.912 -14.215  0.00  0.00    +0.213 C 
ATOM     15  C   UNL     1      35.658 -24.551 -13.055  0.00  0.00    +0.090 C 
BRANCH  14  20
ATOM     16  N   UNL     1      37.524 -22.894 -15.780  0.00  0.00    -0.107 NA
ATOM     17  N   UNL     1      38.272 -24.359 -14.223  0.00  0.00    -0.084 NA
ATOM     18  N   UNL     1      38.847 -23.109 -15.823  0.00  0.00    -0.140 N 
ATOM     19  N   UNL     1      39.333 -23.970 -14.919  0.00  0.00    -0.022 NA
ATOM     20  C   UNL     1      37.207 -23.698 -14.762  0.00  0.00    +0.109 C 
ATOM     21  H   UNL     1      39.426 -22.661 -16.480  0.00  0.00    +0.197 HD
ENDBRANCH  14  20
ENDBRANCH   2   8
BRANCH   3  23
ATOM     22  C   UNL     1      34.288 -20.102 -20.930  0.00  0.00    +0.139 C 
ATOM     23  C   UNL     1      33.908 -21.878 -18.813  0.00  0.00    +0.054 C 
ATOM     24  C   UNL     1      33.027 -20.231 -20.346  0.00  0.00    +0.037 C 
ATOM     25  C   UNL     1      35.358 -20.861 -20.456  0.00  0.00    +0.037 C 
ATOM     26  C   UNL     1      32.837 -21.120 -19.287  0.00  0.00    +0.008 C 
ATOM     27  C   UNL     1      35.168 -21.749 -19.397  0.00  0.00    +0.008 C 
BRANCH  22  28
ATOM     28  O   UNL     1      34.474 -19.234 -21.962  0.00  0.00    -0.475 OA
BRANCH  28  29
ATOM     29  C   UNL     1      35.333 -18.120 -21.725  0.00  0.00    +0.205 C 
BRANCH  29  30
ATOM     30  C   UNL     1      35.553 -17.382 -23.038  0.00  0.00    +0.048 C 
BRANCH  30  31
ATOM     31  C   UNL     1      34.917 -15.993 -23.017  0.00  0.00    +0.009 C 
BRANCH  31  32
ATOM     32  C   UNL     1      34.962 -15.384 -21.613  0.00  0.00    +0.026 C 
BRANCH  32  33
ATOM     33  C   UNL     1      33.848 -14.390 -21.402  0.00  0.00    -0.022 C 
ATOM     34  C   UNL     1      33.141 -14.380 -20.200  0.00  0.00    -0.004 C 
ATOM     35  C   UNL     1      33.524 -13.481 -22.408  0.00  0.00    -0.004 C 
ATOM     36  C   UNL     1      32.110 -13.462 -20.003  0.00  0.00    -0.000 C 
ATOM     37  C   UNL     1      32.494 -12.561 -22.212  0.00  0.00    -0.000 C 
ATOM     38  C   UNL     1      31.787 -12.552 -21.010  0.00  0.00    -0.000 C 
ENDBRANCH  32  33
ENDBRANCH  31  32
ENDBRANCH  30  31
ENDBRANCH  29  30
ENDBRANCH  28  29
ENDBRANCH  22  28
ENDBRANCH   3  23
TORSDOF 9
ENDMDL
MODEL 7
REMARK VINA RESULT:     -10.8      9.186     15.952
REMARK  Name = 4887
REMARK  9 active torsions:
REMARK  status: ('A' for Active; 'I' for Inactive)
REMARK    1  A    between atoms: N_2  and  C_8
REMARK    2  A    between atoms: C_3  and  C_23
REMARK    3  A    between atoms: C_14  and  C_20
REMARK    4  A    between atoms: C_22  and  O_28
REMARK    5  A    between atoms: O_28  and  C_29
REMARK    6  A    between atoms: C_29  and  C_30
REMARK    7  A    between atoms: C_30  and  C_31
REMARK    8  A    between atoms: C_31  and  C_32
REMARK    9  A    between atoms: C_32  and  C_33
REMARK                            x       y       z     vdW  Elec       q    Type
REMARK                         _______ _______ _______ _____ _____    ______ ____
ROOT
ATOM      1  O   UNL     1      30.487  -9.110 -23.018  0.00  0.00    -0.270 OA
ATOM      2  N   UNL     1      32.493  -7.961 -22.593  0.00  0.00    -0.278 N 
ATOM      3  C   UNL     1      31.704  -9.083 -22.871  0.00  0.00    +0.250 C 
ATOM      4  H   UNL     1      33.460  -8.123 -22.507  0.00  0.00    +0.155 HD
ENDROOT
BRANCH   2   8
ATOM      5  O   UNL     1      33.070  -6.060 -24.485  0.00  0.00    -0.442 OA
ATOM      6  O   UNL     1      31.905  -2.177 -24.106  0.00  0.00    -0.286 OA
ATOM      7  C   UNL     1      32.363  -5.663 -23.379  0.00  0.00    +0.163 C 
ATOM      8  C   UNL     1      32.075  -6.638 -22.422  0.00  0.00    +0.086 C 
ATOM      9  C   UNL     1      31.933  -4.352 -23.185  0.00  0.00    +0.075 C 
ATOM     10  C   UNL     1      31.359  -6.295 -21.276  0.00  0.00    +0.018 C 
ATOM     11  C   UNL     1      31.216  -4.004 -22.039  0.00  0.00    +0.006 C 
ATOM     12  C   UNL     1      32.251  -3.346 -24.208  0.00  0.00    +0.202 C 
ATOM     13  C   UNL     1      30.929  -4.981 -21.084  0.00  0.00    +0.002 C 
ATOM     14  C   UNL     1      33.377  -5.116 -25.458  0.00  0.00    +0.213 C 
ATOM     15  C   UNL     1      33.014  -3.825 -25.378  0.00  0.00    +0.090 C 
BRANCH  14  20
ATOM     16  N   UNL     1      35.426  -5.968 -26.571  0.00  0.00    -0.107 NA
ATOM     17  N   UNL     1      33.486  -5.933 -27.739  0.00  0.00    -0.084 NA
ATOM     18  N   UNL     1      35.535  -6.429 -27.825  0.00  0.00    -0.140 N 
ATOM     19  N   UNL     1      34.410  -6.426 -28.554  0.00  0.00    -0.022 NA
ATOM     20  C   UNL     1      34.124  -5.670 -26.562  0.00  0.00    +0.109 C 
ATOM     21  H   UNL     1      36.390  -6.750 -28.190  0.00  0.00    +0.197 HD
ENDBRANCH  14  20
ENDBRANCH   2   8
BRANCH   3  23
ATOM     22  C   UNL     1      33.826 -12.785 -23.152  0.00  0.00    +0.139 C 
ATOM     23  C   UNL     1      32.442 -10.370 -22.969  0.00  0.00    +0.054 C 
ATOM     24  C   UNL     1      32.751 -12.662 -22.271  0.00  0.00    +0.037 C 
ATOM     25  C   UNL     1      34.209 -11.700 -23.941  0.00  0.00    +0.037 C 
ATOM     26  C   UNL     1      32.059 -11.455 -22.179  0.00  0.00    +0.008 C 
ATOM     27  C   UNL     1      33.517 -10.492 -23.850  0.00  0.00    +0.008 C 
BRANCH  22  28
ATOM     28  O   UNL     1      34.500 -13.963 -23.243  0.00  0.00    -0.475 OA
BRANCH  28  29
ATOM     29  C   UNL     1      34.505 -14.799 -22.086  0.00  0.00    +0.205 C 
BRANCH  29  30
ATOM     30  C   UNL     1      35.161 -16.126 -22.442  0.00  0.00    +0.048 C 
BRANCH  30  31
ATOM     31  C   UNL     1      35.235 -17.059 -21.234  0.00  0.00    +0.009 C 
BRANCH  31  32
ATOM     32  C   UNL     1      35.851 -18.408 -21.613  0.00  0.00    +0.026 C 
BRANCH  32  33
ATOM     33  C   UNL     1      35.345 -19.519 -20.728  0.00  0.00    -0.022 C 
ATOM     34  C   UNL     1      36.242 -20.270 -19.970  0.00  0.00    -0.004 C 
ATOM     35  C   UNL     1      33.980 -19.795 -20.667  0.00  0.00    -0.004 C 
ATOM     36  C   UNL     1      35.775 -21.299 -19.152  0.00  0.00    -0.000 C 
ATOM     37  C   UNL     1      33.511 -20.823 -19.849  0.00  0.00    -0.000 C 
ATOM     38  C   UNL     1      34.409 -21.575 -19.091  0.00  0.00    -0.000 C 
ENDBRANCH  32  33
ENDBRANCH  31  32
ENDBRANCH  30  31
ENDBRANCH  29  30
ENDBRANCH  28  29
ENDBRANCH  22  28
ENDBRANCH   3  23
TORSDOF 9
ENDMDL
