MODEL 1
REMARK VINA RESULT:     -12.0      0.000      0.000
REMARK  Name = 46911863
REMARK  3 active torsions:
REMARK  status: ('A' for Active; 'I' for Inactive)
REMARK    1  A    between atoms: C_5  and  C_18
REMARK    2  A    between atoms: C_7  and  C_12
REMARK    3  A    between atoms: C_18  and  C_20
REMARK                            x       y       z     vdW  Elec       q    Type
REMARK                         _______ _______ _______ _____ _____    ______ ____
ROOT
ATOM      1  N   UNL     1      34.442 -22.037 -18.077  0.00  0.00    -0.190 N 
ATOM      2  N   UNL     1      35.516 -22.408 -17.337  0.00  0.00    -0.162 NA
ATOM      3  N   UNL     1      33.219 -21.131 -19.654  0.00  0.00    -0.126 NA
ATOM      4  N   UNL     1      32.376 -21.779 -18.774  0.00  0.00    -0.127 NA
ATOM      5  C   UNL     1      34.449 -21.296 -19.222  0.00  0.00    +0.228 A 
ATOM      6  C   UNL     1      33.118 -22.320 -17.831  0.00  0.00    +0.187 A 
ATOM      7  C   UNL     1      35.213 -23.109 -16.282  0.00  0.00    +0.104 C 
ATOM      8  C   UNL     1      32.821 -23.094 -16.692  0.00  0.00    +0.042 C 
ATOM      9  C   UNL     1      33.819 -23.508 -15.901  0.00  0.00    +0.024 C 
ENDROOT
BRANCH   7  12
ATOM     10  N   UNL     1      37.483 -24.732 -13.958  0.00  0.00    -0.208 N 
ATOM     11  N   UNL     1      38.288 -23.699 -14.262  0.00  0.00    -0.176 NA
ATOM     12  C   UNL     1      36.305 -23.573 -15.386  0.00  0.00    +0.056 C 
ATOM     13  C   UNL     1      36.283 -24.703 -14.604  0.00  0.00    +0.087 C 
ATOM     14  C   UNL     1      37.563 -22.994 -15.134  0.00  0.00    +0.121 C 
ATOM     15  C   UNL     1      37.928 -25.737 -13.023  0.00  0.00    +0.140 C 
ENDBRANCH   7  12
BRANCH   5  18
ATOM     16  F   UNL     1      36.512 -21.819 -20.284  0.00  0.00    -0.191 F 
ATOM     17  F   UNL     1      36.524 -20.182 -18.891  0.00  0.00    -0.191 F 
ATOM     18  C   UNL     1      35.729 -20.761 -19.863  0.00  0.00    +0.335 C 
BRANCH  18  20
ATOM     19  N   UNL     1      34.628 -17.190 -24.112  0.00  0.00    -0.244 NA
ATOM     20  C   UNL     1      35.440 -19.812 -20.976  0.00  0.00    +0.045 C 
ATOM     21  C   UNL     1      35.455 -18.439 -20.747  0.00  0.00    +0.003 C 
ATOM     22  C   UNL     1      35.183 -17.541 -21.794  0.00  0.00    +0.018 C 
ATOM     23  C   UNL     1      35.155 -20.292 -22.247  0.00  0.00    +0.003 C 
ATOM     24  C   UNL     1      34.893 -18.022 -23.087  0.00  0.00    +0.081 C 
ATOM     25  C   UNL     1      34.884 -19.400 -23.287  0.00  0.00    +0.019 C 
ATOM     26  C   UNL     1      35.191 -16.154 -21.591  0.00  0.00    +0.003 C 
ATOM     27  C   UNL     1      34.920 -15.294 -22.645  0.00  0.00    +0.021 C 
ATOM     28  C   UNL     1      34.646 -15.858 -23.875  0.00  0.00    +0.099 C 
ENDBRANCH  18  20
ENDBRANCH   5  18
TORSDOF 3
ENDMDL
MODEL 2
REMARK VINA RESULT:     -11.5      2.259      3.232
REMARK  Name = 46911863
REMARK  3 active torsions:
REMARK  status: ('A' for Active; 'I' for Inactive)
REMARK    1  A    between atoms: C_5  and  C_18
REMARK    2  A    between atoms: C_7  and  C_12
REMARK    3  A    between atoms: C_18  and  C_20
REMARK                            x       y       z     vdW  Elec       q    Type
REMARK                         _______ _______ _______ _____ _____    ______ ____
ROOT
ATOM      1  N   UNL     1      32.939 -23.195 -15.796  0.00  0.00    -0.190 N 
ATOM      2  N   UNL     1      33.990 -23.692 -15.098  0.00  0.00    -0.162 NA
ATOM      3  N   UNL     1      31.725 -22.408 -17.442  0.00  0.00    -0.126 NA
ATOM      4  N   UNL     1      30.942 -22.439 -16.306  0.00  0.00    -0.127 NA
ATOM      5  C   UNL     1      32.914 -22.864 -17.119  0.00  0.00    +0.228 A 
ATOM      6  C   UNL     1      31.678 -22.913 -15.323  0.00  0.00    +0.187 A 
ATOM      7  C   UNL     1      33.732 -23.910 -13.839  0.00  0.00    +0.104 C 
ATOM      8  C   UNL     1      31.423 -23.173 -13.963  0.00  0.00    +0.042 C 
ATOM      9  C   UNL     1      32.401 -23.667 -13.193  0.00  0.00    +0.024 C 
ENDROOT
BRANCH   7  12
ATOM     10  N   UNL     1      36.666 -25.350 -12.258  0.00  0.00    -0.208 N 
ATOM     11  N   UNL     1      35.995 -25.088 -11.123  0.00  0.00    -0.176 NA
ATOM     12  C   UNL     1      34.806 -24.451 -12.966  0.00  0.00    +0.056 C 
ATOM     13  C   UNL     1      35.998 -24.987 -13.390  0.00  0.00    +0.087 C 
ATOM     14  C   UNL     1      34.859 -24.540 -11.562  0.00  0.00    +0.121 C 
ATOM     15  C   UNL     1      37.973 -25.960 -12.194  0.00  0.00    +0.140 C 
ENDBRANCH   7  12
BRANCH   5  18
ATOM     16  F   UNL     1      34.014 -24.202 -18.749  0.00  0.00    -0.191 F 
ATOM     17  F   UNL     1      35.257 -23.240 -17.283  0.00  0.00    -0.191 F 
ATOM     18  C   UNL     1      34.123 -23.019 -18.042  0.00  0.00    +0.335 C 
BRANCH  18  20
ATOM     19  N   UNL     1      34.701 -18.568 -21.488  0.00  0.00    -0.244 NA
ATOM     20  C   UNL     1      34.285 -21.847 -18.948  0.00  0.00    +0.045 C 
ATOM     21  C   UNL     1      35.554 -21.343 -19.220  0.00  0.00    +0.003 C 
ATOM     22  C   UNL     1      35.711 -20.238 -20.075  0.00  0.00    +0.018 C 
ATOM     23  C   UNL     1      33.172 -21.250 -19.526  0.00  0.00    +0.003 C 
ATOM     24  C   UNL     1      34.585 -19.628 -20.665  0.00  0.00    +0.081 C 
ATOM     25  C   UNL     1      33.329 -20.152 -20.374  0.00  0.00    +0.019 C 
ATOM     26  C   UNL     1      36.977 -19.711 -20.367  0.00  0.00    +0.003 C 
ATOM     27  C   UNL     1      37.099 -18.620 -21.215  0.00  0.00    +0.021 C 
ATOM     28  C   UNL     1      35.940 -18.090 -21.745  0.00  0.00    +0.099 C 
ENDBRANCH  18  20
ENDBRANCH   5  18
TORSDOF 3
ENDMDL
MODEL 3
REMARK VINA RESULT:     -11.3      3.232      5.724
REMARK  Name = 46911863
REMARK  3 active torsions:
REMARK  status: ('A' for Active; 'I' for Inactive)
REMARK    1  A    between atoms: C_5  and  C_18
REMARK    2  A    between atoms: C_7  and  C_12
REMARK    3  A    between atoms: C_18  and  C_20
REMARK                            x       y       z     vdW  Elec       q    Type
REMARK                         _______ _______ _______ _____ _____    ______ ____
ROOT
ATOM      1  N   UNL     1      32.887 -22.989 -16.202  0.00  0.00    -0.190 N 
ATOM      2  N   UNL     1      31.580 -22.919 -16.556  0.00  0.00    -0.162 NA
ATOM      3  N   UNL     1      35.074 -23.043 -16.332  0.00  0.00    -0.126 NA
ATOM      4  N   UNL     1      34.718 -23.162 -15.004  0.00  0.00    -0.127 NA
ATOM      5  C   UNL     1      33.967 -22.940 -17.033  0.00  0.00    +0.228 A 
ATOM      6  C   UNL     1      33.404 -23.128 -14.935  0.00  0.00    +0.187 A 
ATOM      7  C   UNL     1      30.755 -23.001 -15.550  0.00  0.00    +0.104 C 
ATOM      8  C   UNL     1      32.491 -23.197 -13.865  0.00  0.00    +0.042 C 
ATOM      9  C   UNL     1      31.177 -23.135 -14.118  0.00  0.00    +0.024 C 
ENDROOT
BRANCH   7  12
ATOM     10  N   UNL     1      27.159 -22.507 -15.643  0.00  0.00    -0.208 N 
ATOM     11  N   UNL     1      27.242 -23.239 -16.768  0.00  0.00    -0.176 NA
ATOM     12  C   UNL     1      29.293 -22.942 -15.810  0.00  0.00    +0.056 C 
ATOM     13  C   UNL     1      28.360 -22.301 -15.031  0.00  0.00    +0.087 C 
ATOM     14  C   UNL     1      28.547 -23.502 -16.864  0.00  0.00    +0.121 C 
ATOM     15  C   UNL     1      25.876 -22.021 -15.196  0.00  0.00    +0.140 C 
ENDBRANCH   7  12
BRANCH   5  18
ATOM     16  F   UNL     1      32.545 -22.472 -18.881  0.00  0.00    -0.191 F 
ATOM     17  F   UNL     1      34.007 -24.025 -19.149  0.00  0.00    -0.191 F 
ATOM     18  C   UNL     1      33.849 -22.789 -18.550  0.00  0.00    +0.335 C 
BRANCH  18  20
ATOM     19  N   UNL     1      37.538 -18.999 -20.560  0.00  0.00    -0.244 NA
ATOM     20  C   UNL     1      34.814 -21.788 -19.086  0.00  0.00    +0.045 C 
ATOM     21  C   UNL     1      34.456 -20.975 -20.158  0.00  0.00    +0.003 C 
ATOM     22  C   UNL     1      35.363 -20.029 -20.667  0.00  0.00    +0.018 C 
ATOM     23  C   UNL     1      36.076 -21.660 -18.520  0.00  0.00    +0.003 C 
ATOM     24  C   UNL     1      36.645 -19.894 -20.097  0.00  0.00    +0.081 C 
ATOM     25  C   UNL     1      36.977 -20.720 -19.027  0.00  0.00    +0.019 C 
ATOM     26  C   UNL     1      35.028 -19.198 -21.745  0.00  0.00    +0.003 C 
ATOM     27  C   UNL     1      35.946 -18.274 -22.223  0.00  0.00    +0.021 C 
ATOM     28  C   UNL     1      37.176 -18.215 -21.601  0.00  0.00    +0.099 C 
ENDBRANCH  18  20
ENDBRANCH   5  18
TORSDOF 3
ENDMDL
MODEL 4
REMARK VINA RESULT:     -11.0      4.599      8.371
REMARK  Name = 46911863
REMARK  3 active torsions:
REMARK  status: ('A' for Active; 'I' for Inactive)
REMARK    1  A    between atoms: C_5  and  C_18
REMARK    2  A    between atoms: C_7  and  C_12
REMARK    3  A    between atoms: C_18  and  C_20
REMARK                            x       y       z     vdW  Elec       q    Type
REMARK                         _______ _______ _______ _____ _____    ______ ____
ROOT
ATOM      1  N   UNL     1      34.123 -15.820 -23.432  0.00  0.00    -0.190 N 
ATOM      2  N   UNL     1      34.678 -16.496 -22.396  0.00  0.00    -0.162 NA
ATOM      3  N   UNL     1      33.204 -14.218 -24.613  0.00  0.00    -0.126 NA
ATOM      4  N   UNL     1      33.321 -15.333 -25.417  0.00  0.00    -0.127 NA
ATOM      5  C   UNL     1      33.689 -14.527 -23.431  0.00  0.00    +0.228 A 
ATOM      6  C   UNL     1      33.873 -16.290 -24.701  0.00  0.00    +0.187 A 
ATOM      7  C   UNL     1      34.992 -17.729 -22.679  0.00  0.00    +0.104 C 
ATOM      8  C   UNL     1      34.239 -17.620 -24.983  0.00  0.00    +0.042 C 
ATOM      9  C   UNL     1      34.795 -18.367 -24.022  0.00  0.00    +0.024 C 
ENDROOT
BRANCH   7  12
ATOM     10  N   UNL     1      35.925 -20.116 -20.107  0.00  0.00    -0.208 N 
ATOM     11  N   UNL     1      37.088 -19.442 -20.118  0.00  0.00    -0.176 NA
ATOM     12  C   UNL     1      35.605 -18.577 -21.624  0.00  0.00    +0.056 C 
ATOM     13  C   UNL     1      35.003 -19.638 -20.991  0.00  0.00    +0.087 C 
ATOM     14  C   UNL     1      36.886 -18.503 -21.046  0.00  0.00    +0.121 C 
ATOM     15  C   UNL     1      35.752 -21.234 -19.211  0.00  0.00    +0.140 C 
ENDBRANCH   7  12
BRANCH   5  18
ATOM     16  F   UNL     1      35.103 -13.378 -21.902  0.00  0.00    -0.191 F 
ATOM     17  F   UNL     1      33.344 -14.307 -21.088  0.00  0.00    -0.191 F 
ATOM     18  C   UNL     1      33.776 -13.617 -22.206  0.00  0.00    +0.335 C 
BRANCH  18  20
ATOM     19  N   UNL     1      30.863  -8.819 -22.921  0.00  0.00    -0.244 NA
ATOM     20  C   UNL     1      33.017 -12.349 -22.398  0.00  0.00    +0.045 C 
ATOM     21  C   UNL     1      33.615 -11.265 -23.033  0.00  0.00    +0.003 C 
ATOM     22  C   UNL     1      32.903 -10.067 -23.218  0.00  0.00    +0.018 C 
ATOM     23  C   UNL     1      31.708 -12.242 -21.946  0.00  0.00    +0.003 C 
ATOM     24  C   UNL     1      31.574  -9.952 -22.761  0.00  0.00    +0.081 C 
ATOM     25  C   UNL     1      31.001 -11.052 -22.129  0.00  0.00    +0.019 C 
ATOM     26  C   UNL     1      33.481  -8.960 -23.854  0.00  0.00    +0.003 C 
ATOM     27  C   UNL     1      32.751  -7.792 -24.021  0.00  0.00    +0.021 C 
ATOM     28  C   UNL     1      31.457  -7.774 -23.540  0.00  0.00    +0.099 C 
ENDBRANCH  18  20
ENDBRANCH   5  18
TORSDOF 3
ENDMDL
MODEL 5
REMARK VINA RESULT:     -11.0      7.980     13.813
REMARK  Name = 46911863
REMARK  3 active torsions:
REMARK  status: ('A' for Active; 'I' for Inactive)
REMARK    1  A    between atoms: C_5  and  C_18
REMARK    2  A    between atoms: C_7  and  C_12
REMARK    3  A    between atoms: C_18  and  C_20
REMARK                            x       y       z     vdW  Elec       q    Type
REMARK                         _______ _______ _______ _____ _____    ______ ____
ROOT
ATOM      1  N   UNL     1      32.156  -8.824 -20.826  0.00  0.00    -0.190 N 
ATOM      2  N   UNL     1      32.406  -8.477 -22.113  0.00  0.00    -0.162 NA
ATOM      3  N   UNL     1      31.446  -9.933 -19.074  0.00  0.00    -0.126 NA
ATOM      4  N   UNL     1      32.076  -8.787 -18.632  0.00  0.00    -0.127 NA
ATOM      5  C   UNL     1      31.504  -9.938 -20.387  0.00  0.00    +0.228 A 
ATOM      6  C   UNL     1      32.499  -8.128 -19.690  0.00  0.00    +0.187 A 
ATOM      7  C   UNL     1      33.044  -7.348 -22.241  0.00  0.00    +0.104 C 
ATOM      8  C   UNL     1      33.202  -6.919 -19.857  0.00  0.00    +0.042 C 
ATOM      9  C   UNL     1      33.495  -6.495 -21.093  0.00  0.00    +0.024 C 
ENDROOT
BRANCH   7  12
ATOM     10  N   UNL     1      34.429  -6.019 -25.323  0.00  0.00    -0.208 N 
ATOM     11  N   UNL     1      33.208  -6.296 -25.812  0.00  0.00    -0.176 NA
ATOM     12  C   UNL     1      33.372  -6.855 -23.604  0.00  0.00    +0.056 C 
ATOM     13  C   UNL     1      34.579  -6.335 -24.005  0.00  0.00    +0.087 C 
ATOM     14  C   UNL     1      32.567  -6.806 -24.757  0.00  0.00    +0.121 C 
ATOM     15  C   UNL     1      35.432  -5.441 -26.184  0.00  0.00    +0.140 C 
ENDBRANCH   7  12
BRANCH   5  18
ATOM     16  F   UNL     1      30.397 -10.392 -22.443  0.00  0.00    -0.191 F 
ATOM     17  F   UNL     1      29.833 -11.592 -20.750  0.00  0.00    -0.191 F 
ATOM     18  C   UNL     1      30.942 -11.003 -21.329  0.00  0.00    +0.335 C 
BRANCH  18  20
ATOM     19  N   UNL     1      34.849 -14.829 -22.784  0.00  0.00    -0.244 NA
ATOM     20  C   UNL     1      31.971 -12.015 -21.703  0.00  0.00    +0.045 C 
ATOM     21  C   UNL     1      32.392 -12.961 -20.773  0.00  0.00    +0.003 C 
ATOM     22  C   UNL     1      33.362 -13.918 -21.122  0.00  0.00    +0.018 C 
ATOM     23  C   UNL     1      32.516 -12.019 -22.981  0.00  0.00    +0.003 C 
ATOM     24  C   UNL     1      33.918 -13.928 -22.417  0.00  0.00    +0.081 C 
ATOM     25  C   UNL     1      33.480 -12.969 -23.326  0.00  0.00    +0.019 C 
ATOM     26  C   UNL     1      33.803 -14.882 -20.206  0.00  0.00    +0.003 C 
ATOM     27  C   UNL     1      34.762 -15.813 -20.581  0.00  0.00    +0.021 C 
ATOM     28  C   UNL     1      35.248 -15.744 -21.870  0.00  0.00    +0.099 C 
ENDBRANCH  18  20
ENDBRANCH   5  18
TORSDOF 3
ENDMDL
MODEL 6
REMARK VINA RESULT:     -10.8      6.666     12.964
REMARK  Name = 46911863
REMARK  3 active torsions:
REMARK  status: ('A' for Active; 'I' for Inactive)
REMARK    1  A    between atoms: C_5  and  C_18
REMARK    2  A    between atoms: C_7  and  C_12
REMARK    3  A    between atoms: C_18  and  C_20
REMARK                            x       y       z     vdW  Elec       q    Type
REMARK                         _______ _______ _______ _____ _____    ______ ____
ROOT
ATOM      1  N   UNL     1      32.594 -10.557 -22.582  0.00  0.00    -0.190 N 
ATOM      2  N   UNL     1      33.407  -9.696 -23.243  0.00  0.00    -0.162 NA
ATOM      3  N   UNL     1      31.693 -12.416 -21.849  0.00  0.00    -0.126 NA
ATOM      4  N   UNL     1      30.999 -11.356 -21.303  0.00  0.00    -0.127 NA
ATOM      5  C   UNL     1      32.643 -11.920 -22.610  0.00  0.00    +0.228 A 
ATOM      6  C   UNL     1      31.546 -10.244 -21.747  0.00  0.00    +0.187 A 
ATOM      7  C   UNL     1      33.125  -8.441 -23.038  0.00  0.00    +0.104 C 
ATOM      8  C   UNL     1      31.274  -8.880 -21.531  0.00  0.00    +0.042 C 
ATOM      9  C   UNL     1      32.026  -7.955 -22.141  0.00  0.00    +0.024 C 
ENDROOT
BRANCH   7  12
ATOM     10  N   UNL     1      34.591  -5.788 -25.037  0.00  0.00    -0.208 N 
ATOM     11  N   UNL     1      35.679  -6.032 -24.286  0.00  0.00    -0.176 NA
ATOM     12  C   UNL     1      33.942  -7.399 -23.712  0.00  0.00    +0.056 C 
ATOM     13  C   UNL     1      33.523  -6.580 -24.733  0.00  0.00    +0.087 C 
ATOM     14  C   UNL     1      35.277  -7.017 -23.479  0.00  0.00    +0.121 C 
ATOM     15  C   UNL     1      34.635  -4.762 -26.050  0.00  0.00    +0.140 C 
ENDBRANCH   7  12
BRANCH   5  18
ATOM     16  F   UNL     1      34.729 -11.873 -23.753  0.00  0.00    -0.191 F 
ATOM     17  F   UNL     1      33.144 -13.003 -24.667  0.00  0.00    -0.191 F 
ATOM     18  C   UNL     1      33.672 -12.702 -23.425  0.00  0.00    +0.335 C 
BRANCH  18  20
ATOM     19  N   UNL     1      35.425 -17.331 -20.682  0.00  0.00    -0.244 NA
ATOM     20  C   UNL     1      34.134 -13.927 -22.712  0.00  0.00    +0.045 C 
ATOM     21  C   UNL     1      34.354 -15.107 -23.416  0.00  0.00    +0.003 C 
ATOM     22  C   UNL     1      34.790 -16.264 -22.747  0.00  0.00    +0.018 C 
ATOM     23  C   UNL     1      34.347 -13.898 -21.339  0.00  0.00    +0.003 C 
ATOM     24  C   UNL     1      35.008 -16.241 -21.354  0.00  0.00    +0.081 C 
ATOM     25  C   UNL     1      34.780 -15.048 -20.675  0.00  0.00    +0.019 C 
ATOM     26  C   UNL     1      35.019 -17.465 -23.432  0.00  0.00    +0.003 C 
ATOM     27  C   UNL     1      35.449 -18.589 -22.743  0.00  0.00    +0.021 C 
ATOM     28  C   UNL     1      35.636 -18.470 -21.380  0.00  0.00    +0.099 C 
ENDBRANCH  18  20
ENDBRANCH   5  18
TORSDOF 3
ENDMDL
MODEL 7
REMARK VINA RESULT:     -10.6      3.251      9.828
REMARK  Name = 46911863
REMARK  3 active torsions:
REMARK  status: ('A' for Active; 'I' for Inactive)
REMARK    1  A    between atoms: C_5  and  C_18
REMARK    2  A    between atoms: C_7  and  C_12
REMARK    3  A    between atoms: C_18  and  C_20
REMARK                            x       y       z     vdW  Elec       q    Type
REMARK                         _______ _______ _______ _____ _____    ______ ____
ROOT
ATOM      1  N   UNL     1      34.313 -16.245 -23.607  0.00  0.00    -0.190 N 
ATOM      2  N   UNL     1      34.238 -14.983 -23.118  0.00  0.00    -0.162 NA
ATOM      3  N   UNL     1      34.788 -18.377 -23.790  0.00  0.00    -0.126 NA
ATOM      4  N   UNL     1      34.091 -17.993 -24.917  0.00  0.00    -0.127 NA
ATOM      5  C   UNL     1      34.911 -17.320 -23.018  0.00  0.00    +0.228 A 
ATOM      6  C   UNL     1      33.809 -16.713 -24.799  0.00  0.00    +0.187 A 
ATOM      7  C   UNL     1      33.611 -14.151 -23.901  0.00  0.00    +0.104 C 
ATOM      8  C   UNL     1      33.122 -15.795 -25.617  0.00  0.00    +0.042 C 
ATOM      9  C   UNL     1      32.997 -14.523 -25.216  0.00  0.00    +0.024 C 
ENDROOT
BRANCH   7  12
ATOM     10  N   UNL     1      32.776 -10.906 -22.500  0.00  0.00    -0.208 N 
ATOM     11  N   UNL     1      33.789 -10.481 -23.275  0.00  0.00    -0.176 NA
ATOM     12  C   UNL     1      33.467 -12.733 -23.478  0.00  0.00    +0.056 C 
ATOM     13  C   UNL     1      32.542 -12.247 -22.586  0.00  0.00    +0.087 C 
ATOM     14  C   UNL     1      34.207 -11.602 -23.870  0.00  0.00    +0.121 C 
ATOM     15  C   UNL     1      32.054  -9.962 -21.682  0.00  0.00    +0.140 C 
ENDBRANCH   7  12
BRANCH   5  18
ATOM     16  F   UNL     1      35.053 -16.229 -20.910  0.00  0.00    -0.191 F 
ATOM     17  F   UNL     1      36.907 -16.807 -21.832  0.00  0.00    -0.191 F 
ATOM     18  C   UNL     1      35.608 -17.249 -21.660  0.00  0.00    +0.335 C 
BRANCH  18  20
ATOM     19  N   UNL     1      35.467 -22.202 -18.927  0.00  0.00    -0.244 NA
ATOM     20  C   UNL     1      35.561 -18.553 -20.940  0.00  0.00    +0.045 C 
ATOM     21  C   UNL     1      34.336 -19.131 -20.620  0.00  0.00    +0.003 C 
ATOM     22  C   UNL     1      34.287 -20.362 -19.941  0.00  0.00    +0.018 C 
ATOM     23  C   UNL     1      36.738 -19.199 -20.585  0.00  0.00    +0.003 C 
ATOM     24  C   UNL     1      35.478 -21.023 -19.578  0.00  0.00    +0.081 C 
ATOM     25  C   UNL     1      36.689 -20.421 -19.910  0.00  0.00    +0.019 C 
ATOM     26  C   UNL     1      33.068 -20.967 -19.607  0.00  0.00    +0.003 C 
ATOM     27  C   UNL     1      33.053 -22.182 -18.937  0.00  0.00    +0.021 C 
ATOM     28  C   UNL     1      34.270 -22.753 -18.623  0.00  0.00    +0.099 C 
ENDBRANCH  18  20
ENDBRANCH   5  18
TORSDOF 3
ENDMDL
MODEL 8
REMARK VINA RESULT:     -10.6      7.526     12.672
REMARK  Name = 46911863
REMARK  3 active torsions:
REMARK  status: ('A' for Active; 'I' for Inactive)
REMARK    1  A    between atoms: C_5  and  C_18
REMARK    2  A    between atoms: C_7  and  C_12
REMARK    3  A    between atoms: C_18  and  C_20
REMARK                            x       y       z     vdW  Elec       q    Type
REMARK                         _______ _______ _______ _____ _____    ______ ____
ROOT
ATOM      1  N   UNL     1      32.334 -10.803 -21.364  0.00  0.00    -0.190 N 
ATOM      2  N   UNL     1      32.474  -9.572 -21.914  0.00  0.00    -0.162 NA
ATOM      3  N   UNL     1      32.404 -12.977 -21.093  0.00  0.00    -0.126 NA
ATOM      4  N   UNL     1      31.829 -12.421 -19.968  0.00  0.00    -0.127 NA
ATOM      5  C   UNL     1      32.700 -11.996 -21.915  0.00  0.00    +0.228 A 
ATOM      6  C   UNL     1      31.791 -11.116 -20.139  0.00  0.00    +0.187 A 
ATOM      7  C   UNL     1      32.027  -8.605 -21.163  0.00  0.00    +0.104 C 
ATOM      8  C   UNL     1      31.331 -10.050 -19.342  0.00  0.00    +0.042 C 
ATOM      9  C   UNL     1      31.429  -8.797 -19.802  0.00  0.00    +0.024 C 
ENDROOT
BRANCH   7  12
ATOM     10  N   UNL     1      32.380  -5.460 -22.943  0.00  0.00    -0.208 N 
ATOM     11  N   UNL     1      32.107  -4.925 -21.741  0.00  0.00    -0.176 NA
ATOM     12  C   UNL     1      32.119  -7.207 -21.658  0.00  0.00    +0.056 C 
ATOM     13  C   UNL     1      32.399  -6.824 -22.948  0.00  0.00    +0.087 C 
ATOM     14  C   UNL     1      31.949  -5.997 -20.960  0.00  0.00    +0.121 C 
ATOM     15  C   UNL     1      32.617  -4.597 -24.075  0.00  0.00    +0.140 C 
ENDBRANCH   7  12
BRANCH   5  18
ATOM     16  F   UNL     1      34.511 -11.362 -23.320  0.00  0.00    -0.191 F 
ATOM     17  F   UNL     1      32.567 -11.471 -24.232  0.00  0.00    -0.191 F 
ATOM     18  C   UNL     1      33.352 -12.115 -23.293  0.00  0.00    +0.335 C 
BRANCH  18  20
ATOM     19  N   UNL     1      34.302 -17.500 -24.748  0.00  0.00    -0.244 NA
ATOM     20  C   UNL     1      33.608 -13.535 -23.667  0.00  0.00    +0.045 C 
ATOM     21  C   UNL     1      34.303 -14.373 -22.801  0.00  0.00    +0.003 C 
ATOM     22  C   UNL     1      34.546 -15.713 -23.150  0.00  0.00    +0.018 C 
ATOM     23  C   UNL     1      33.153 -14.029 -24.883  0.00  0.00    +0.003 C 
ATOM     24  C   UNL     1      34.087 -16.221 -24.383  0.00  0.00    +0.081 C 
ATOM     25  C   UNL     1      33.395 -15.361 -25.230  0.00  0.00    +0.019 C 
ATOM     26  C   UNL     1      35.243 -16.579 -22.297  0.00  0.00    +0.003 C 
ATOM     27  C   UNL     1      35.466 -17.896 -22.670  0.00  0.00    +0.021 C 
ATOM     28  C   UNL     1      34.979 -18.303 -23.896  0.00  0.00    +0.099 C 
ENDBRANCH  18  20
ENDBRANCH   5  18
TORSDOF 3
ENDMDL
MODEL 9
REMARK VINA RESULT:     -10.3      2.578      8.809
REMARK  Name = 46911863
REMARK  3 active torsions:
REMARK  status: ('A' for Active; 'I' for Inactive)
REMARK    1  A    between atoms: C_5  and  C_18
REMARK    2  A    between atoms: C_7  and  C_12
REMARK    3  A    between atoms: C_18  and  C_20
REMARK                            x       y       z     vdW  Elec       q    Type
REMARK                         _______ _______ _______ _____ _____    ______ ____
ROOT
ATOM      1  N   UNL     1      35.392 -20.397 -19.893  0.00  0.00    -0.190 N 
ATOM      2  N   UNL     1      34.732 -19.845 -20.942  0.00  0.00    -0.162 NA
ATOM      3  N   UNL     1      35.815 -21.567 -18.089  0.00  0.00    -0.126 NA
ATOM      4  N   UNL     1      36.974 -20.917 -18.462  0.00  0.00    -0.127 NA
ATOM      5  C   UNL     1      34.881 -21.245 -18.956  0.00  0.00    +0.228 A 
ATOM      6  C   UNL     1      36.711 -20.217 -19.546  0.00  0.00    +0.187 A 
ATOM      7  C   UNL     1      35.470 -19.061 -21.676  0.00  0.00    +0.104 C 
ATOM      8  C   UNL     1      37.489 -19.377 -20.366  0.00  0.00    +0.042 C 
ATOM      9  C   UNL     1      36.923 -18.788 -21.427  0.00  0.00    +0.024 C 
ENDROOT
BRANCH   7  12
ATOM     10  N   UNL     1      34.186 -16.879 -24.278  0.00  0.00    -0.208 N 
ATOM     11  N   UNL     1      33.772 -18.033 -24.829  0.00  0.00    -0.176 NA
ATOM     12  C   UNL     1      34.860 -18.391 -22.854  0.00  0.00    +0.056 C 
ATOM     13  C   UNL     1      34.843 -17.038 -23.094  0.00  0.00    +0.087 C 
ATOM     14  C   UNL     1      34.186 -18.953 -23.954  0.00  0.00    +0.121 C 
ATOM     15  C   UNL     1      33.918 -15.628 -24.947  0.00  0.00    +0.140 C 
ENDBRANCH   7  12
BRANCH   5  18
ATOM     16  F   UNL     1      33.211 -22.537 -20.052  0.00  0.00    -0.191 F 
ATOM     17  F   UNL     1      32.595 -20.647 -19.233  0.00  0.00    -0.191 F 
ATOM     18  C   UNL     1      33.427 -21.718 -18.960  0.00  0.00    +0.335 C 
BRANCH  18  20
ATOM     19  N   UNL     1      32.060 -24.290 -14.109  0.00  0.00    -0.244 NA
ATOM     20  C   UNL     1      33.057 -22.392 -17.683  0.00  0.00    +0.045 C 
ATOM     21  C   UNL     1      31.743 -22.355 -17.227  0.00  0.00    +0.003 C 
ATOM     22  C   UNL     1      31.389 -22.991 -16.024  0.00  0.00    +0.018 C 
ATOM     23  C   UNL     1      34.022 -23.060 -16.940  0.00  0.00    +0.003 C 
ATOM     24  C   UNL     1      32.364 -23.671 -15.266  0.00  0.00    +0.081 C 
ATOM     25  C   UNL     1      33.671 -23.691 -15.745  0.00  0.00    +0.019 C 
ATOM     26  C   UNL     1      30.073 -22.970 -15.543  0.00  0.00    +0.003 C 
ATOM     27  C   UNL     1      29.757 -23.607 -14.351  0.00  0.00    +0.021 C 
ATOM     28  C   UNL     1      30.778 -24.247 -13.679  0.00  0.00    +0.099 C 
ENDBRANCH  18  20
ENDBRANCH   5  18
TORSDOF 3
ENDMDL
