MODEL 1
REMARK VINA RESULT:     -11.9      0.000      0.000
REMARK  Name = 10267580
REMARK  2 active torsions:
REMARK  status: ('A' for Active; 'I' for Inactive)
REMARK    1  A    between atoms: N_1  and  C_21
REMARK    2  A    between atoms: C_7  and  C_14
REMARK                            x       y       z     vdW  Elec       q    Type
REMARK                         _______ _______ _______ _____ _____    ______ ____
ROOT
ATOM      1  N   UNL     1      32.675 -22.354 -18.129  0.00  0.00    -0.290 N 
ATOM      2  N   UNL     1      34.222 -23.207 -16.574  0.00  0.00    -0.327 NA
ATOM      3  N   UNL     1      33.486 -24.024 -14.431  0.00  0.00    -0.342 NA
ATOM      4  C   UNL     1      31.878 -23.162 -15.987  0.00  0.00    +0.143 C 
ATOM      5  C   UNL     1      32.936 -22.925 -16.859  0.00  0.00    +0.184 C 
ATOM      6  C   UNL     1      32.212 -23.731 -14.746  0.00  0.00    +0.133 C 
ATOM      7  C   UNL     1      34.421 -23.746 -15.361  0.00  0.00    +0.165 C 
ATOM      8  C   UNL     1      30.542 -22.859 -16.307  0.00  0.00    -0.011 C 
ATOM      9  C   UNL     1      31.179 -23.982 -13.847  0.00  0.00    +0.029 C 
ATOM     10  C   UNL     1      29.530 -23.121 -15.388  0.00  0.00    -0.004 C 
ATOM     11  C   UNL     1      29.850 -23.683 -14.158  0.00  0.00    +0.002 C 
ATOM     12  H   UNL     1      31.760 -22.471 -18.474  0.00  0.00    +0.154 HD
ENDROOT
BRANCH   7  14
ATOM     13  N   UNL     1      35.958 -25.264 -14.415  0.00  0.00    -0.398 NA
ATOM     14  C   UNL     1      35.782 -24.063 -15.015  0.00  0.00    +0.197 C 
ATOM     15  C   UNL     1      36.817 -23.179 -15.290  0.00  0.00    +0.098 C 
ATOM     16  C   UNL     1      37.226 -25.590 -14.077  0.00  0.00    +0.110 C 
ATOM     17  C   UNL     1      38.107 -23.551 -14.927  0.00  0.00    -0.016 C 
ATOM     18  C   UNL     1      38.324 -24.777 -14.309  0.00  0.00    +0.023 C 
ATOM     19  C   UNL     1      37.421 -26.914 -13.416  0.00  0.00    +0.066 C 
ENDBRANCH   7  14
BRANCH   1  21
ATOM     20  N   UNL     1      35.311 -20.214 -20.609  0.00  0.00    -0.242 NA
ATOM     21  C   UNL     1      33.542 -21.650 -18.944  0.00  0.00    +0.053 C 
ATOM     22  C   UNL     1      33.078 -20.620 -19.778  0.00  0.00    +0.035 C 
ATOM     23  C   UNL     1      34.915 -21.942 -18.966  0.00  0.00    +0.035 C 
ATOM     24  C   UNL     1      33.986 -19.945 -20.577  0.00  0.00    +0.100 C 
ATOM     25  C   UNL     1      35.742 -21.208 -19.801  0.00  0.00    +0.100 C 
ENDBRANCH   1  21
TORSDOF 2
ENDMDL
MODEL 2
REMARK VINA RESULT:     -11.7      1.554      6.871
REMARK  Name = 10267580
REMARK  2 active torsions:
REMARK  status: ('A' for Active; 'I' for Inactive)
REMARK    1  A    between atoms: N_1  and  C_21
REMARK    2  A    between atoms: C_7  and  C_14
REMARK                            x       y       z     vdW  Elec       q    Type
REMARK                         _______ _______ _______ _____ _____    ______ ____
ROOT
ATOM      1  N   UNL     1      35.785 -23.495 -15.986  0.00  0.00    -0.290 N 
ATOM      2  N   UNL     1      33.434 -23.424 -16.035  0.00  0.00    -0.327 NA
ATOM      3  N   UNL     1      32.277 -22.209 -17.764  0.00  0.00    -0.342 NA
ATOM      4  C   UNL     1      34.675 -22.257 -17.750  0.00  0.00    +0.143 C 
ATOM      5  C   UNL     1      34.593 -23.046 -16.607  0.00  0.00    +0.184 C 
ATOM      6  C   UNL     1      33.452 -21.850 -18.310  0.00  0.00    +0.133 C 
ATOM      7  C   UNL     1      32.331 -22.976 -16.657  0.00  0.00    +0.165 C 
ATOM      8  C   UNL     1      35.898 -21.875 -18.329  0.00  0.00    -0.011 C 
ATOM      9  C   UNL     1      33.494 -21.059 -19.455  0.00  0.00    +0.029 C 
ATOM     10  C   UNL     1      35.909 -21.083 -19.473  0.00  0.00    -0.004 C 
ATOM     11  C   UNL     1      34.706 -20.675 -20.036  0.00  0.00    +0.002 C 
ATOM     12  H   UNL     1      36.584 -23.530 -16.561  0.00  0.00    +0.154 HD
ENDROOT
BRANCH   7  14
ATOM     13  N   UNL     1      29.984 -22.762 -16.628  0.00  0.00    -0.398 NA
ATOM     14  C   UNL     1      31.069 -23.356 -16.079  0.00  0.00    +0.197 C 
ATOM     15  C   UNL     1      31.004 -24.269 -15.035  0.00  0.00    +0.098 C 
ATOM     16  C   UNL     1      28.783 -23.098 -16.105  0.00  0.00    +0.110 C 
ATOM     17  C   UNL     1      29.750 -24.589 -14.524  0.00  0.00    -0.016 C 
ATOM     18  C   UNL     1      28.614 -23.997 -15.064  0.00  0.00    +0.023 C 
ATOM     19  C   UNL     1      27.585 -22.444 -16.708  0.00  0.00    +0.066 C 
ENDBRANCH   7  14
BRANCH   1  21
ATOM     20  N   UNL     1      36.346 -24.691 -11.994  0.00  0.00    -0.242 NA
ATOM     21  C   UNL     1      35.970 -23.888 -14.673  0.00  0.00    +0.053 C 
ATOM     22  C   UNL     1      36.436 -25.175 -14.361  0.00  0.00    +0.035 C 
ATOM     23  C   UNL     1      35.697 -23.014 -13.609  0.00  0.00    +0.035 C 
ATOM     24  C   UNL     1      36.604 -25.521 -13.030  0.00  0.00    +0.100 C 
ATOM     25  C   UNL     1      35.897 -23.456 -12.311  0.00  0.00    +0.100 C 
ENDBRANCH   1  21
TORSDOF 2
ENDMDL
MODEL 3
REMARK VINA RESULT:     -11.5      1.456      5.755
REMARK  Name = 10267580
REMARK  2 active torsions:
REMARK  status: ('A' for Active; 'I' for Inactive)
REMARK    1  A    between atoms: N_1  and  C_21
REMARK    2  A    between atoms: C_7  and  C_14
REMARK                            x       y       z     vdW  Elec       q    Type
REMARK                         _______ _______ _______ _____ _____    ______ ____
ROOT
ATOM      1  N   UNL     1      34.705 -24.740 -13.549  0.00  0.00    -0.290 N 
ATOM      2  N   UNL     1      34.419 -23.553 -15.561  0.00  0.00    -0.327 NA
ATOM      3  N   UNL     1      32.216 -23.142 -16.443  0.00  0.00    -0.342 NA
ATOM      4  C   UNL     1      32.463 -24.356 -14.390  0.00  0.00    +0.143 C 
ATOM      5  C   UNL     1      33.839 -24.199 -14.532  0.00  0.00    +0.184 C 
ATOM      6  C   UNL     1      31.668 -23.793 -15.402  0.00  0.00    +0.133 C 
ATOM      7  C   UNL     1      33.560 -23.057 -16.466  0.00  0.00    +0.165 C 
ATOM      8  C   UNL     1      31.880 -25.036 -13.306  0.00  0.00    -0.011 C 
ATOM      9  C   UNL     1      30.287 -23.930 -15.294  0.00  0.00    +0.029 C 
ATOM     10  C   UNL     1      30.496 -25.158 -13.225  0.00  0.00    -0.004 C 
ATOM     11  C   UNL     1      29.699 -24.604 -14.220  0.00  0.00    +0.002 C 
ATOM     12  H   UNL     1      34.308 -24.889 -12.660  0.00  0.00    +0.154 HD
ENDROOT
BRANCH   7  14
ATOM     13  N   UNL     1      33.248 -21.781 -18.424  0.00  0.00    -0.398 NA
ATOM     14  C   UNL     1      34.139 -22.358 -17.584  0.00  0.00    +0.197 C 
ATOM     15  C   UNL     1      35.515 -22.299 -17.759  0.00  0.00    +0.098 C 
ATOM     16  C   UNL     1      33.761 -21.117 -19.485  0.00  0.00    +0.110 C 
ATOM     17  C   UNL     1      36.004 -21.607 -18.862  0.00  0.00    -0.016 C 
ATOM     18  C   UNL     1      35.117 -21.002 -19.746  0.00  0.00    +0.023 C 
ATOM     19  C   UNL     1      32.780 -20.480 -20.412  0.00  0.00    +0.066 C 
ENDBRANCH   7  14
BRANCH   1  21
ATOM     20  N   UNL     1      38.755 -25.794 -13.952  0.00  0.00    -0.242 NA
ATOM     21  C   UNL     1      36.036 -25.087 -13.682  0.00  0.00    +0.053 C 
ATOM     22  C   UNL     1      37.041 -24.380 -13.001  0.00  0.00    +0.035 C 
ATOM     23  C   UNL     1      36.429 -26.157 -14.501  0.00  0.00    +0.035 C 
ATOM     24  C   UNL     1      38.361 -24.766 -13.167  0.00  0.00    +0.100 C 
ATOM     25  C   UNL     1      37.777 -26.465 -14.600  0.00  0.00    +0.100 C 
ENDBRANCH   1  21
TORSDOF 2
ENDMDL
MODEL 4
REMARK VINA RESULT:     -11.1      1.595      4.965
REMARK  Name = 10267580
REMARK  2 active torsions:
REMARK  status: ('A' for Active; 'I' for Inactive)
REMARK    1  A    between atoms: N_1  and  C_21
REMARK    2  A    between atoms: C_7  and  C_14
REMARK                            x       y       z     vdW  Elec       q    Type
REMARK                         _______ _______ _______ _____ _____    ______ ____
ROOT
ATOM      1  N   UNL     1      31.401 -22.473 -16.751  0.00  0.00    -0.290 N 
ATOM      2  N   UNL     1      33.362 -23.249 -15.707  0.00  0.00    -0.327 NA
ATOM      3  N   UNL     1      35.515 -22.920 -16.735  0.00  0.00    -0.342 NA
ATOM      4  C   UNL     1      33.541 -22.113 -17.833  0.00  0.00    +0.143 C 
ATOM      5  C   UNL     1      32.810 -22.618 -16.761  0.00  0.00    +0.184 C 
ATOM      6  C   UNL     1      34.933 -22.294 -17.774  0.00  0.00    +0.133 C 
ATOM      7  C   UNL     1      34.699 -23.363 -15.759  0.00  0.00    +0.165 C 
ATOM      8  C   UNL     1      32.942 -21.458 -18.924  0.00  0.00    -0.011 C 
ATOM      9  C   UNL     1      35.697 -21.803 -18.829  0.00  0.00    +0.029 C 
ATOM     10  C   UNL     1      33.731 -20.978 -19.964  0.00  0.00    -0.004 C 
ATOM     11  C   UNL     1      35.110 -21.150 -19.916  0.00  0.00    +0.002 C 
ATOM     12  H   UNL     1      31.039 -21.740 -17.301  0.00  0.00    +0.154 HD
ENDROOT
BRANCH   7  14
ATOM     13  N   UNL     1      36.446 -24.731 -14.963  0.00  0.00    -0.398 NA
ATOM     14  C   UNL     1      35.330 -24.032 -14.651  0.00  0.00    +0.197 C 
ATOM     15  C   UNL     1      34.806 -23.946 -13.368  0.00  0.00    +0.098 C 
ATOM     16  C   UNL     1      37.061 -25.372 -13.943  0.00  0.00    +0.110 C 
ATOM     17  C   UNL     1      35.467 -24.619 -12.346  0.00  0.00    -0.016 C 
ATOM     18  C   UNL     1      36.616 -25.347 -12.631  0.00  0.00    +0.023 C 
ATOM     19  C   UNL     1      38.291 -26.143 -14.285  0.00  0.00    +0.066 C 
ENDBRANCH   7  14
BRANCH   1  21
ATOM     20  N   UNL     1      28.564 -24.778 -14.674  0.00  0.00    -0.242 NA
ATOM     21  C   UNL     1      30.469 -23.231 -16.068  0.00  0.00    +0.053 C 
ATOM     22  C   UNL     1      29.112 -22.869 -16.052  0.00  0.00    +0.035 C 
ATOM     23  C   UNL     1      30.846 -24.388 -15.368  0.00  0.00    +0.035 C 
ATOM     24  C   UNL     1      28.216 -23.662 -15.353  0.00  0.00    +0.100 C 
ATOM     25  C   UNL     1      29.873 -25.113 -14.698  0.00  0.00    +0.100 C 
ENDBRANCH   1  21
TORSDOF 2
ENDMDL
MODEL 5
REMARK VINA RESULT:     -10.3      1.346      5.410
REMARK  Name = 10267580
REMARK  2 active torsions:
REMARK  status: ('A' for Active; 'I' for Inactive)
REMARK    1  A    between atoms: N_1  and  C_21
REMARK    2  A    between atoms: C_7  and  C_14
REMARK                            x       y       z     vdW  Elec       q    Type
REMARK                         _______ _______ _______ _____ _____    ______ ____
ROOT
ATOM      1  N   UNL     1      36.433 -22.462 -16.473  0.00  0.00    -0.290 N 
ATOM      2  N   UNL     1      34.544 -23.336 -15.376  0.00  0.00    -0.327 NA
ATOM      3  N   UNL     1      34.790 -24.923 -13.580  0.00  0.00    -0.342 NA
ATOM      4  C   UNL     1      36.741 -24.055 -14.672  0.00  0.00    +0.143 C 
ATOM      5  C   UNL     1      35.886 -23.310 -15.478  0.00  0.00    +0.184 C 
ATOM      6  C   UNL     1      36.128 -24.873 -13.707  0.00  0.00    +0.133 C 
ATOM      7  C   UNL     1      34.071 -24.153 -14.420  0.00  0.00    +0.165 C 
ATOM      8  C   UNL     1      38.141 -24.011 -14.797  0.00  0.00    -0.011 C 
ATOM      9  C   UNL     1      36.952 -25.634 -12.882  0.00  0.00    +0.029 C 
ATOM     10  C   UNL     1      38.939 -24.784 -13.959  0.00  0.00    -0.004 C 
ATOM     11  C   UNL     1      38.344 -25.596 -13.001  0.00  0.00    +0.002 C 
ATOM     12  H   UNL     1      37.363 -22.172 -16.328  0.00  0.00    +0.154 HD
ENDROOT
BRANCH   7  14
ATOM     13  N   UNL     1      31.941 -23.500 -15.192  0.00  0.00    -0.398 NA
ATOM     14  C   UNL     1      32.640 -24.212 -14.276  0.00  0.00    +0.197 C 
ATOM     15  C   UNL     1      32.050 -24.954 -13.262  0.00  0.00    +0.098 C 
ATOM     16  C   UNL     1      30.594 -23.534 -15.083  0.00  0.00    +0.110 C 
ATOM     17  C   UNL     1      30.662 -24.964 -13.183  0.00  0.00    -0.016 C 
ATOM     18  C   UNL     1      29.913 -24.244 -14.107  0.00  0.00    +0.023 C 
ATOM     19  C   UNL     1      29.822 -22.751 -16.091  0.00  0.00    +0.066 C 
ENDBRANCH   7  14
BRANCH   1  21
ATOM     20  N   UNL     1      34.589 -21.033 -19.971  0.00  0.00    -0.242 NA
ATOM     21  C   UNL     1      35.826 -21.993 -17.623  0.00  0.00    +0.053 C 
ATOM     22  C   UNL     1      36.517 -21.159 -18.518  0.00  0.00    +0.035 C 
ATOM     23  C   UNL     1      34.500 -22.332 -17.934  0.00  0.00    +0.035 C 
ATOM     24  C   UNL     1      35.865 -20.715 -19.656  0.00  0.00    +0.100 C 
ATOM     25  C   UNL     1      33.938 -21.835 -19.099  0.00  0.00    +0.100 C 
ENDBRANCH   1  21
TORSDOF 2
ENDMDL
