MODEL 1
REMARK VINA RESULT:     -11.0      0.000      0.000
REMARK  Name = 4814
REMARK  7 active torsions:
REMARK  status: ('A' for Active; 'I' for Inactive)
REMARK    1  A    between atoms: C_1  and  C_9
REMARK    2  A    between atoms: C_2  and  C_20
REMARK    3  A    between atoms: C_4  and  O_29
REMARK    4  A    between atoms: N_8  and  C_11
REMARK    5  A    between atoms: C_11  and  C_13
REMARK    6  A    between atoms: N_19  and  C_22
REMARK    7  A    between atoms: C_22  and  C_24
REMARK                            x       y       z     vdW  Elec       q    Type
REMARK                         _______ _______ _______ _____ _____    ______ ____
ROOT
ATOM      1  C   UNL     1      32.718 -23.156 -16.254  0.00  0.00    +0.087 C 
ATOM      2  C   UNL     1      33.357 -23.705 -13.990  0.00  0.00    +0.054 C 
ATOM      3  C   UNL     1      33.687 -23.565 -15.339  0.00  0.00    +0.012 C 
ATOM      4  C   UNL     1      31.419 -22.887 -15.822  0.00  0.00    +0.143 C 
ATOM      5  C   UNL     1      32.059 -23.436 -13.558  0.00  0.00    +0.008 C 
ATOM      6  C   UNL     1      31.089 -23.027 -14.474  0.00  0.00    +0.037 C 
ENDROOT
BRANCH   1   9
ATOM      7  O   UNL     1      33.615 -23.957 -18.267  0.00  0.00    -0.270 OA
ATOM      8  N   UNL     1      32.782 -21.793 -18.269  0.00  0.00    -0.297 N 
ATOM      9  C   UNL     1      33.082 -23.015 -17.657  0.00  0.00    +0.249 C 
ATOM     10  H   UNL     1      32.359 -21.089 -17.724  0.00  0.00    +0.150 HD
BRANCH   8  11
ATOM     11  C   UNL     1      33.059 -21.508 -19.659  0.00  0.00    +0.118 C 
BRANCH  11  13
ATOM     12  N   UNL     1      35.579 -18.931 -20.758  0.00  0.00    -0.243 NA
ATOM     13  C   UNL     1      34.368 -20.794 -19.836  0.00  0.00    +0.017 C 
ATOM     14  C   UNL     1      35.527 -21.301 -19.277  0.00  0.00    +0.001 C 
ATOM     15  C   UNL     1      34.436 -19.623 -20.560  0.00  0.00    +0.096 C 
ATOM     16  C   UNL     1      36.724 -20.618 -19.459  0.00  0.00    +0.020 C 
ATOM     17  C   UNL     1      36.697 -19.449 -20.201  0.00  0.00    +0.099 C 
ENDBRANCH  11  13
ENDBRANCH   8  11
ENDBRANCH   1   9
BRANCH   2  20
ATOM     18  O   UNL     1      34.247 -23.867 -11.827  0.00  0.00    -0.270 OA
ATOM     19  N   UNL     1      35.453 -24.857 -13.541  0.00  0.00    -0.297 N 
ATOM     20  C   UNL     1      34.369 -24.130 -13.036  0.00  0.00    +0.246 C 
ATOM     21  H   UNL     1      35.487 -25.029 -14.510  0.00  0.00    +0.150 HD
BRANCH  19  22
ATOM     22  C   UNL     1      36.526 -25.368 -12.718  0.00  0.00    +0.118 C 
BRANCH  22  24
ATOM     23  N   UNL     1      39.252 -24.143 -15.013  0.00  0.00    -0.243 NA
ATOM     24  C   UNL     1      37.859 -25.257 -13.399  0.00  0.00    +0.017 C 
ATOM     25  C   UNL     1      38.889 -26.121 -13.071  0.00  0.00    +0.001 C 
ATOM     26  C   UNL     1      38.077 -24.296 -14.362  0.00  0.00    +0.096 C 
ATOM     27  C   UNL     1      40.114 -25.995 -13.719  0.00  0.00    +0.020 C 
ATOM     28  C   UNL     1      40.242 -24.999 -14.674  0.00  0.00    +0.099 C 
ENDBRANCH  22  24
ENDBRANCH  19  22
ENDBRANCH   2  20
BRANCH   4  29
ATOM     29  O   UNL     1      30.458 -22.485 -16.701  0.00  0.00    -0.471 OA
ATOM     30  C   UNL     1      29.113 -22.847 -16.401  0.00  0.00    +0.252 C 
ENDBRANCH   4  29
TORSDOF 7
ENDMDL
MODEL 2
REMARK VINA RESULT:     -10.9      6.152      9.654
REMARK  Name = 4814
REMARK  7 active torsions:
REMARK  status: ('A' for Active; 'I' for Inactive)
REMARK    1  A    between atoms: C_1  and  C_9
REMARK    2  A    between atoms: C_2  and  C_20
REMARK    3  A    between atoms: C_4  and  O_29
REMARK    4  A    between atoms: N_8  and  C_11
REMARK    5  A    between atoms: C_11  and  C_13
REMARK    6  A    between atoms: N_19  and  C_22
REMARK    7  A    between atoms: C_22  and  C_24
REMARK                            x       y       z     vdW  Elec       q    Type
REMARK                         _______ _______ _______ _____ _____    ______ ____
ROOT
ATOM      1  C   UNL     1      34.632 -15.660 -21.769  0.00  0.00    +0.087 C 
ATOM      2  C   UNL     1      35.725 -17.811 -21.657  0.00  0.00    +0.054 C 
ATOM      3  C   UNL     1      35.264 -16.656 -21.025  0.00  0.00    +0.012 C 
ATOM      4  C   UNL     1      34.461 -15.819 -23.144  0.00  0.00    +0.143 C 
ATOM      5  C   UNL     1      35.554 -17.970 -23.031  0.00  0.00    +0.008 C 
ATOM      6  C   UNL     1      34.922 -16.974 -23.776  0.00  0.00    +0.037 C 
ENDROOT
BRANCH   1   9
ATOM      7  O   UNL     1      34.889 -13.862 -20.286  0.00  0.00    -0.270 OA
ATOM      8  N   UNL     1      32.867 -14.023 -21.409  0.00  0.00    -0.297 N 
ATOM      9  C   UNL     1      34.157 -14.462 -21.091  0.00  0.00    +0.249 C 
ATOM     10  H   UNL     1      32.343 -14.548 -22.057  0.00  0.00    +0.150 HD
BRANCH   8  11
ATOM     11  C   UNL     1      32.264 -12.839 -20.840  0.00  0.00    +0.118 C 
BRANCH  11  13
ATOM     12  N   UNL     1      31.285  -9.588 -22.473  0.00  0.00    -0.243 NA
ATOM     13  C   UNL     1      32.231 -11.701 -21.817  0.00  0.00    +0.017 C 
ATOM     14  C   UNL     1      33.067 -11.694 -22.919  0.00  0.00    +0.001 C 
ATOM     15  C   UNL     1      31.365 -10.643 -21.633  0.00  0.00    +0.096 C 
ATOM     16  C   UNL     1      33.013 -10.626 -23.807  0.00  0.00    +0.020 C 
ATOM     17  C   UNL     1      32.113  -9.607 -23.541  0.00  0.00    +0.099 C 
ENDBRANCH  11  13
ENDBRANCH   8  11
ENDBRANCH   1   9
BRANCH   2  20
ATOM     18  O   UNL     1      37.604 -18.793 -20.654  0.00  0.00    -0.270 OA
ATOM     19  N   UNL     1      35.576 -19.885 -20.393  0.00  0.00    -0.297 N 
ATOM     20  C   UNL     1      36.383 -18.850 -20.880  0.00  0.00    +0.246 C 
ATOM     21  H   UNL     1      34.616 -19.869 -20.610  0.00  0.00    +0.150 HD
BRANCH  19  22
ATOM     22  C   UNL     1      36.076 -20.976 -19.586  0.00  0.00    +0.118 C 
BRANCH  22  24
ATOM     23  N   UNL     1      32.649 -22.129 -18.525  0.00  0.00    -0.243 NA
ATOM     24  C   UNL     1      34.986 -21.625 -18.782  0.00  0.00    +0.017 C 
ATOM     25  C   UNL     1      35.284 -22.291 -17.606  0.00  0.00    +0.001 C 
ATOM     26  C   UNL     1      33.676 -21.567 -19.201  0.00  0.00    +0.096 C 
ATOM     27  C   UNL     1      34.254 -22.883 -16.882  0.00  0.00    +0.020 C 
ATOM     28  C   UNL     1      32.966 -22.773 -17.379  0.00  0.00    +0.099 C 
ENDBRANCH  22  24
ENDBRANCH  19  22
ENDBRANCH   2  20
BRANCH   4  29
ATOM     29  O   UNL     1      33.845 -14.857 -23.888  0.00  0.00    -0.471 OA
ATOM     30  C   UNL     1      33.395 -15.233 -25.187  0.00  0.00    +0.252 C 
ENDBRANCH   4  29
TORSDOF 7
ENDMDL
MODEL 3
REMARK VINA RESULT:     -10.8      1.527      7.339
REMARK  Name = 4814
REMARK  7 active torsions:
REMARK  status: ('A' for Active; 'I' for Inactive)
REMARK    1  A    between atoms: C_1  and  C_9
REMARK    2  A    between atoms: C_2  and  C_20
REMARK    3  A    between atoms: C_4  and  O_29
REMARK    4  A    between atoms: N_8  and  C_11
REMARK    5  A    between atoms: C_11  and  C_13
REMARK    6  A    between atoms: N_19  and  C_22
REMARK    7  A    between atoms: C_22  and  C_24
REMARK                            x       y       z     vdW  Elec       q    Type
REMARK                         _______ _______ _______ _____ _____    ______ ____
ROOT
ATOM      1  C   UNL     1      33.929 -23.516 -14.768  0.00  0.00    +0.087 C 
ATOM      2  C   UNL     1      33.111 -22.985 -16.978  0.00  0.00    +0.054 C 
ATOM      3  C   UNL     1      34.177 -23.194 -16.102  0.00  0.00    +0.012 C 
ATOM      4  C   UNL     1      32.617 -23.628 -14.310  0.00  0.00    +0.143 C 
ATOM      5  C   UNL     1      31.799 -23.097 -16.520  0.00  0.00    +0.008 C 
ATOM      6  C   UNL     1      31.551 -23.418 -15.185  0.00  0.00    +0.037 C 
ENDROOT
BRANCH   1   9
ATOM      7  O   UNL     1      35.935 -22.864 -13.743  0.00  0.00    -0.270 OA
ATOM      8  N   UNL     1      35.074 -24.935 -13.157  0.00  0.00    -0.297 N 
ATOM      9  C   UNL     1      35.055 -23.731 -13.870  0.00  0.00    +0.249 C 
ATOM     10  H   UNL     1      34.343 -25.578 -13.307  0.00  0.00    +0.150 HD
BRANCH   8  11
ATOM     11  C   UNL     1      36.110 -25.285 -12.210  0.00  0.00    +0.118 C 
BRANCH  11  13
ATOM     12  N   UNL     1      38.541 -27.192 -14.366  0.00  0.00    -0.243 NA
ATOM     13  C   UNL     1      37.386 -25.679 -12.894  0.00  0.00    +0.017 C 
ATOM     14  C   UNL     1      38.542 -24.943 -12.706  0.00  0.00    +0.001 C 
ATOM     15  C   UNL     1      37.427 -26.782 -13.720  0.00  0.00    +0.096 C 
ATOM     16  C   UNL     1      39.709 -25.333 -13.352  0.00  0.00    +0.020 C 
ATOM     17  C   UNL     1      39.657 -26.455 -14.164  0.00  0.00    +0.099 C 
ENDBRANCH  11  13
ENDBRANCH   8  11
ENDBRANCH   1   9
BRANCH   2  20
ATOM     18  O   UNL     1      33.849 -23.498 -19.144  0.00  0.00    -0.270 OA
ATOM     19  N   UNL     1      33.036 -21.357 -18.786  0.00  0.00    -0.297 N 
ATOM     20  C   UNL     1      33.370 -22.651 -18.370  0.00  0.00    +0.246 C 
ATOM     21  H   UNL     1      32.661 -20.737 -18.120  0.00  0.00    +0.150 HD
BRANCH  19  22
ATOM     22  C   UNL     1      33.210 -20.882 -20.140  0.00  0.00    +0.118 C 
BRANCH  22  24
ATOM     23  N   UNL     1      36.855 -20.033 -19.699  0.00  0.00    -0.243 NA
ATOM     24  C   UNL     1      34.543 -20.219 -20.336  0.00  0.00    +0.017 C 
ATOM     25  C   UNL     1      34.699 -19.224 -21.285  0.00  0.00    +0.001 C 
ATOM     26  C   UNL     1      35.629 -20.589 -19.574  0.00  0.00    +0.096 C 
ATOM     27  C   UNL     1      35.945 -18.627 -21.443  0.00  0.00    +0.020 C 
ATOM     28  C   UNL     1      36.981 -19.063 -20.632  0.00  0.00    +0.099 C 
ENDBRANCH  22  24
ENDBRANCH  19  22
ENDBRANCH   2  20
BRANCH   4  29
ATOM     29  O   UNL     1      32.354 -23.942 -13.010  0.00  0.00    -0.471 OA
ATOM     30  C   UNL     1      31.214 -24.761 -12.759  0.00  0.00    +0.252 C 
ENDBRANCH   4  29
TORSDOF 7
ENDMDL
MODEL 4
REMARK VINA RESULT:     -10.7      6.984     12.495
REMARK  Name = 4814
REMARK  7 active torsions:
REMARK  status: ('A' for Active; 'I' for Inactive)
REMARK    1  A    between atoms: C_1  and  C_9
REMARK    2  A    between atoms: C_2  and  C_20
REMARK    3  A    between atoms: C_4  and  O_29
REMARK    4  A    between atoms: N_8  and  C_11
REMARK    5  A    between atoms: C_11  and  C_13
REMARK    6  A    between atoms: N_19  and  C_22
REMARK    7  A    between atoms: C_22  and  C_24
REMARK                            x       y       z     vdW  Elec       q    Type
REMARK                         _______ _______ _______ _____ _____    ______ ____
ROOT
ATOM      1  C   UNL     1      34.729 -15.909 -22.754  0.00  0.00    +0.087 C 
ATOM      2  C   UNL     1      33.832 -13.841 -23.621  0.00  0.00    +0.054 C 
ATOM      3  C   UNL     1      34.425 -14.559 -22.583  0.00  0.00    +0.012 C 
ATOM      4  C   UNL     1      34.439 -16.541 -23.963  0.00  0.00    +0.143 C 
ATOM      5  C   UNL     1      33.542 -14.473 -24.830  0.00  0.00    +0.008 C 
ATOM      6  C   UNL     1      33.845 -15.823 -25.002  0.00  0.00    +0.037 C 
ENDROOT
BRANCH   1   9
ATOM      7  O   UNL     1      35.207 -16.259 -20.486  0.00  0.00    -0.270 OA
ATOM      8  N   UNL     1      36.078 -17.788 -21.996  0.00  0.00    -0.297 N 
ATOM      9  C   UNL     1      35.349 -16.642 -21.659  0.00  0.00    +0.249 C 
ATOM     10  H   UNL     1      36.148 -18.032 -22.948  0.00  0.00    +0.150 HD
BRANCH   8  11
ATOM     11  C   UNL     1      36.730 -18.633 -21.022  0.00  0.00    +0.118 C 
BRANCH  11  13
ATOM     12  N   UNL     1      35.468 -21.582 -19.046  0.00  0.00    -0.243 NA
ATOM     13  C   UNL     1      35.790 -19.647 -20.439  0.00  0.00    +0.017 C 
ATOM     14  C   UNL     1      34.439 -19.603 -20.730  0.00  0.00    +0.001 C 
ATOM     15  C   UNL     1      36.259 -20.639 -19.604  0.00  0.00    +0.096 C 
ATOM     16  C   UNL     1      33.592 -20.557 -20.176  0.00  0.00    +0.020 C 
ATOM     17  C   UNL     1      34.151 -21.517 -19.347  0.00  0.00    +0.099 C 
ENDBRANCH  11  13
ENDBRANCH   8  11
ENDBRANCH   1   9
BRANCH   2  20
ATOM     18  O   UNL     1      34.275 -11.554 -23.891  0.00  0.00    -0.270 OA
ATOM     19  N   UNL     1      32.327 -12.127 -22.771  0.00  0.00    -0.297 N 
ATOM     20  C   UNL     1      33.517 -12.432 -23.443  0.00  0.00    +0.246 C 
ATOM     21  H   UNL     1      31.775 -12.872 -22.442  0.00  0.00    +0.150 HD
BRANCH  19  22
ATOM     22  C   UNL     1      31.865 -10.777 -22.536  0.00  0.00    +0.118 C 
BRANCH  22  24
ATOM     23  N   UNL     1      31.835  -8.735 -19.369  0.00  0.00    -0.243 NA
ATOM     24  C   UNL     1      31.864 -10.431 -21.075  0.00  0.00    +0.017 C 
ATOM     25  C   UNL     1      31.889 -11.429 -20.117  0.00  0.00    +0.001 C 
ATOM     26  C   UNL     1      31.838  -9.115 -20.667  0.00  0.00    +0.096 C 
ATOM     27  C   UNL     1      31.887 -11.077 -18.771  0.00  0.00    +0.020 C 
ATOM     28  C   UNL     1      31.861  -9.729 -18.453  0.00  0.00    +0.099 C 
ENDBRANCH  22  24
ENDBRANCH  19  22
ENDBRANCH   2  20
BRANCH   4  29
ATOM     29  O   UNL     1      34.729 -17.860 -24.151  0.00  0.00    -0.471 OA
ATOM     30  C   UNL     1      33.649 -18.714 -24.523  0.00  0.00    +0.252 C 
ENDBRANCH   4  29
TORSDOF 7
ENDMDL
MODEL 5
REMARK VINA RESULT:     -10.7      2.820      8.868
REMARK  Name = 4814
REMARK  7 active torsions:
REMARK  status: ('A' for Active; 'I' for Inactive)
REMARK    1  A    between atoms: C_1  and  C_9
REMARK    2  A    between atoms: C_2  and  C_20
REMARK    3  A    between atoms: C_4  and  O_29
REMARK    4  A    between atoms: N_8  and  C_11
REMARK    5  A    between atoms: C_11  and  C_13
REMARK    6  A    between atoms: N_19  and  C_22
REMARK    7  A    between atoms: C_22  and  C_24
REMARK                            x       y       z     vdW  Elec       q    Type
REMARK                         _______ _______ _______ _____ _____    ______ ____
ROOT
ATOM      1  C   UNL     1      34.712 -22.344 -17.960  0.00  0.00    +0.087 C 
ATOM      2  C   UNL     1      35.176 -20.695 -19.662  0.00  0.00    +0.054 C 
ATOM      3  C   UNL     1      34.308 -21.620 -19.081  0.00  0.00    +0.012 C 
ATOM      4  C   UNL     1      35.983 -22.145 -17.421  0.00  0.00    +0.143 C 
ATOM      5  C   UNL     1      36.446 -20.495 -19.124  0.00  0.00    +0.008 C 
ATOM      6  C   UNL     1      36.851 -21.220 -18.003  0.00  0.00    +0.037 C 
ENDROOT
BRANCH   1   9
ATOM      7  O   UNL     1      33.418 -24.299 -18.011  0.00  0.00    -0.270 OA
ATOM      8  N   UNL     1      33.382 -23.059 -16.052  0.00  0.00    -0.297 N 
ATOM      9  C   UNL     1      33.792 -23.305 -17.367  0.00  0.00    +0.249 C 
ATOM     10  H   UNL     1      33.718 -22.251 -15.601  0.00  0.00    +0.150 HD
BRANCH   8  11
ATOM     11  C   UNL     1      32.492 -23.931 -15.318  0.00  0.00    +0.118 C 
BRANCH  11  13
ATOM     12  N   UNL     1      29.389 -22.149 -16.500  0.00  0.00    -0.243 NA
ATOM     13  C   UNL     1      31.051 -23.662 -15.640  0.00  0.00    +0.017 C 
ATOM     14  C   UNL     1      30.084 -24.620 -15.393  0.00  0.00    +0.001 C 
ATOM     15  C   UNL     1      30.667 -22.456 -16.187  0.00  0.00    +0.096 C 
ATOM     16  C   UNL     1      28.757 -24.342 -15.701  0.00  0.00    +0.020 C 
ATOM     17  C   UNL     1      28.464 -23.103 -16.248  0.00  0.00    +0.099 C 
ENDBRANCH  11  13
ENDBRANCH   8  11
ENDBRANCH   1   9
BRANCH   2  20
ATOM     18  O   UNL     1      33.619 -20.102 -21.314  0.00  0.00    -0.270 OA
ATOM     19  N   UNL     1      35.667 -19.016 -21.354  0.00  0.00    -0.297 N 
ATOM     20  C   UNL     1      34.753 -19.938 -20.830  0.00  0.00    +0.246 C 
ATOM     21  H   UNL     1      36.547 -18.936 -20.922  0.00  0.00    +0.150 HD
BRANCH  19  22
ATOM     22  C   UNL     1      35.386 -18.173 -22.495  0.00  0.00    +0.118 C 
BRANCH  22  24
ATOM     23  N   UNL     1      34.788 -14.460 -22.742  0.00  0.00    -0.243 NA
ATOM     24  C   UNL     1      35.111 -16.753 -22.091  0.00  0.00    +0.017 C 
ATOM     25  C   UNL     1      34.931 -16.425 -20.758  0.00  0.00    +0.001 C 
ATOM     26  C   UNL     1      35.033 -15.757 -23.039  0.00  0.00    +0.096 C 
ATOM     27  C   UNL     1      34.677 -15.102 -20.414  0.00  0.00    +0.020 C 
ATOM     28  C   UNL     1      34.617 -14.166 -21.434  0.00  0.00    +0.099 C 
ENDBRANCH  22  24
ENDBRANCH  19  22
ENDBRANCH   2  20
BRANCH   4  29
ATOM     29  O   UNL     1      36.396 -22.843 -16.326  0.00  0.00    -0.471 OA
ATOM     30  C   UNL     1      37.625 -22.440 -15.726  0.00  0.00    +0.252 C 
ENDBRANCH   4  29
TORSDOF 7
ENDMDL
MODEL 6
REMARK VINA RESULT:     -10.6      3.037      8.996
REMARK  Name = 4814
REMARK  7 active torsions:
REMARK  status: ('A' for Active; 'I' for Inactive)
REMARK    1  A    between atoms: C_1  and  C_9
REMARK    2  A    between atoms: C_2  and  C_20
REMARK    3  A    between atoms: C_4  and  O_29
REMARK    4  A    between atoms: N_8  and  C_11
REMARK    5  A    between atoms: C_11  and  C_13
REMARK    6  A    between atoms: N_19  and  C_22
REMARK    7  A    between atoms: C_22  and  C_24
REMARK                            x       y       z     vdW  Elec       q    Type
REMARK                         _______ _______ _______ _____ _____    ______ ____
ROOT
ATOM      1  C   UNL     1      35.814 -21.849 -17.709  0.00  0.00    +0.087 C 
ATOM      2  C   UNL     1      35.689 -20.447 -19.671  0.00  0.00    +0.054 C 
ATOM      3  C   UNL     1      36.373 -20.872 -18.532  0.00  0.00    +0.012 C 
ATOM      4  C   UNL     1      34.572 -22.400 -18.024  0.00  0.00    +0.143 C 
ATOM      5  C   UNL     1      34.448 -20.998 -19.987  0.00  0.00    +0.008 C 
ATOM      6  C   UNL     1      33.888 -21.975 -19.163  0.00  0.00    +0.037 C 
ENDROOT
BRANCH   1   9
ATOM      7  O   UNL     1      37.784 -22.346 -16.538  0.00  0.00    -0.270 OA
ATOM      8  N   UNL     1      35.784 -22.589 -15.391  0.00  0.00    -0.297 N 
ATOM      9  C   UNL     1      36.544 -22.281 -16.525  0.00  0.00    +0.249 C 
ATOM     10  H   UNL     1      34.803 -22.515 -15.452  0.00  0.00    +0.150 HD
BRANCH   8  11
ATOM     11  C   UNL     1      36.361 -23.008 -14.133  0.00  0.00    +0.118 C 
BRANCH  11  13
ATOM     12  N   UNL     1      36.337 -26.700 -14.884  0.00  0.00    -0.243 NA
ATOM     13  C   UNL     1      36.780 -24.449 -14.160  0.00  0.00    +0.017 C 
ATOM     14  C   UNL     1      37.937 -24.858 -13.521  0.00  0.00    +0.001 C 
ATOM     15  C   UNL     1      36.018 -25.389 -14.821  0.00  0.00    +0.096 C 
ATOM     16  C   UNL     1      38.298 -26.200 -13.562  0.00  0.00    +0.020 C 
ATOM     17  C   UNL     1      37.472 -27.073 -14.251  0.00  0.00    +0.099 C 
ENDBRANCH  11  13
ENDBRANCH   8  11
ENDBRANCH   1   9
BRANCH   2  20
ATOM     18  O   UNL     1      37.491 -19.181 -20.479  0.00  0.00    -0.270 OA
ATOM     19  N   UNL     1      35.410 -18.774 -21.417  0.00  0.00    -0.297 N 
ATOM     20  C   UNL     1      36.273 -19.429 -20.531  0.00  0.00    +0.246 C 
ATOM     21  H   UNL     1      34.457 -19.019 -21.405  0.00  0.00    +0.150 HD
BRANCH  19  22
ATOM     22  C   UNL     1      35.843 -17.758 -22.350  0.00  0.00    +0.118 C 
BRANCH  22  24
ATOM     23  N   UNL     1      34.450 -14.288 -22.825  0.00  0.00    -0.243 NA
ATOM     24  C   UNL     1      35.248 -16.416 -22.035  0.00  0.00    +0.017 C 
ATOM     25  C   UNL     1      34.957 -16.067 -20.727  0.00  0.00    +0.001 C 
ATOM     26  C   UNL     1      34.984 -15.512 -23.040  0.00  0.00    +0.096 C 
ATOM     27  C   UNL     1      34.407 -14.816 -20.465  0.00  0.00    +0.020 C 
ATOM     28  C   UNL     1      34.175 -13.972 -21.539  0.00  0.00    +0.099 C 
ENDBRANCH  22  24
ENDBRANCH  19  22
ENDBRANCH   2  20
BRANCH   4  29
ATOM     29  O   UNL     1      34.010 -23.357 -17.232  0.00  0.00    -0.471 OA
ATOM     30  C   UNL     1      32.660 -23.149 -16.825  0.00  0.00    +0.252 C 
ENDBRANCH   4  29
TORSDOF 7
ENDMDL
MODEL 7
REMARK VINA RESULT:     -10.5      3.484      9.856
REMARK  Name = 4814
REMARK  7 active torsions:
REMARK  status: ('A' for Active; 'I' for Inactive)
REMARK    1  A    between atoms: C_1  and  C_9
REMARK    2  A    between atoms: C_2  and  C_20
REMARK    3  A    between atoms: C_4  and  O_29
REMARK    4  A    between atoms: N_8  and  C_11
REMARK    5  A    between atoms: C_11  and  C_13
REMARK    6  A    between atoms: N_19  and  C_22
REMARK    7  A    between atoms: C_22  and  C_24
REMARK                            x       y       z     vdW  Elec       q    Type
REMARK                         _______ _______ _______ _____ _____    ______ ____
ROOT
ATOM      1  C   UNL     1      34.761 -20.926 -19.590  0.00  0.00    +0.087 C 
ATOM      2  C   UNL     1      35.484 -19.218 -21.138  0.00  0.00    +0.054 C 
ATOM      3  C   UNL     1      34.473 -20.026 -20.616  0.00  0.00    +0.012 C 
ATOM      4  C   UNL     1      36.059 -21.020 -19.088  0.00  0.00    +0.143 C 
ATOM      5  C   UNL     1      36.781 -19.311 -20.636  0.00  0.00    +0.008 C 
ATOM      6  C   UNL     1      37.070 -20.212 -19.611  0.00  0.00    +0.037 C 
ENDROOT
BRANCH   1   9
ATOM      7  O   UNL     1      32.663 -21.964 -19.721  0.00  0.00    -0.270 OA
ATOM      8  N   UNL     1      33.900 -22.324 -17.794  0.00  0.00    -0.297 N 
ATOM      9  C   UNL     1      33.693 -21.760 -19.058  0.00  0.00    +0.249 C 
ATOM     10  H   UNL     1      34.741 -22.119 -17.324  0.00  0.00    +0.150 HD
BRANCH   8  11
ATOM     11  C   UNL     1      32.946 -23.192 -17.141  0.00  0.00    +0.118 C 
BRANCH  11  13
ATOM     12  N   UNL     1      35.058 -24.055 -14.143  0.00  0.00    -0.243 NA
ATOM     13  C   UNL     1      33.334 -23.487 -15.722  0.00  0.00    +0.017 C 
ATOM     14  C   UNL     1      32.385 -23.471 -14.715  0.00  0.00    +0.001 C 
ATOM     15  C   UNL     1      34.642 -23.780 -15.399  0.00  0.00    +0.096 C 
ATOM     16  C   UNL     1      32.774 -23.750 -13.410  0.00  0.00    +0.020 C 
ATOM     17  C   UNL     1      34.111 -24.033 -13.178  0.00  0.00    +0.099 C 
ENDBRANCH  11  13
ENDBRANCH   8  11
ENDBRANCH   1   9
BRANCH   2  20
ATOM     18  O   UNL     1      34.603 -18.658 -23.238  0.00  0.00    -0.270 OA
ATOM     19  N   UNL     1      35.552 -16.944 -22.000  0.00  0.00    -0.297 N 
ATOM     20  C   UNL     1      35.182 -18.278 -22.206  0.00  0.00    +0.246 C 
ATOM     21  H   UNL     1      36.008 -16.711 -21.159  0.00  0.00    +0.150 HD
BRANCH  19  22
ATOM     22  C   UNL     1      35.300 -15.887 -22.955  0.00  0.00    +0.118 C 
BRANCH  22  24
ATOM     23  N   UNL     1      32.587 -13.274 -22.895  0.00  0.00    -0.243 NA
ATOM     24  C   UNL     1      34.315 -14.882 -22.434  0.00  0.00    +0.017 C 
ATOM     25  C   UNL     1      34.218 -14.633 -21.076  0.00  0.00    +0.001 C 
ATOM     26  C   UNL     1      33.494 -14.191 -23.298  0.00  0.00    +0.096 C 
ATOM     27  C   UNL     1      33.296 -13.695 -20.622  0.00  0.00    +0.020 C 
ATOM     28  C   UNL     1      32.512 -13.048 -21.564  0.00  0.00    +0.099 C 
ENDBRANCH  22  24
ENDBRANCH  19  22
ENDBRANCH   2  20
BRANCH   4  29
ATOM     29  O   UNL     1      36.361 -21.893 -18.086  0.00  0.00    -0.471 OA
ATOM     30  C   UNL     1      37.044 -21.366 -16.951  0.00  0.00    +0.252 C 
ENDBRANCH   4  29
TORSDOF 7
ENDMDL
MODEL 8
REMARK VINA RESULT:     -10.5      3.023      9.090
REMARK  Name = 4814
REMARK  7 active torsions:
REMARK  status: ('A' for Active; 'I' for Inactive)
REMARK    1  A    between atoms: C_1  and  C_9
REMARK    2  A    between atoms: C_2  and  C_20
REMARK    3  A    between atoms: C_4  and  O_29
REMARK    4  A    between atoms: N_8  and  C_11
REMARK    5  A    between atoms: C_11  and  C_13
REMARK    6  A    between atoms: N_19  and  C_22
REMARK    7  A    between atoms: C_22  and  C_24
REMARK                            x       y       z     vdW  Elec       q    Type
REMARK                         _______ _______ _______ _____ _____    ______ ____
ROOT
ATOM      1  C   UNL     1      36.339 -21.775 -17.415  0.00  0.00    +0.087 C 
ATOM      2  C   UNL     1      35.926 -20.557 -19.459  0.00  0.00    +0.054 C 
ATOM      3  C   UNL     1      36.753 -20.852 -18.375  0.00  0.00    +0.012 C 
ATOM      4  C   UNL     1      35.099 -22.402 -17.539  0.00  0.00    +0.143 C 
ATOM      5  C   UNL     1      34.687 -21.184 -19.584  0.00  0.00    +0.008 C 
ATOM      6  C   UNL     1      34.273 -22.107 -18.623  0.00  0.00    +0.037 C 
ENDROOT
BRANCH   1   9
ATOM      7  O   UNL     1      37.980 -21.200 -15.842  0.00  0.00    -0.270 OA
ATOM      8  N   UNL     1      37.132 -23.356 -15.743  0.00  0.00    -0.297 N 
ATOM      9  C   UNL     1      37.216 -22.071 -16.290  0.00  0.00    +0.249 C 
ATOM     10  H   UNL     1      36.503 -23.996 -16.149  0.00  0.00    +0.150 HD
BRANCH   8  11
ATOM     11  C   UNL     1      37.918 -23.793 -14.611  0.00  0.00    +0.118 C 
BRANCH  11  13
ATOM     12  N   UNL     1      37.014 -23.984 -10.958  0.00  0.00    -0.243 NA
ATOM     13  C   UNL     1      37.094 -23.897 -13.361  0.00  0.00    +0.017 C 
ATOM     14  C   UNL     1      35.716 -24.001 -13.434  0.00  0.00    +0.001 C 
ATOM     15  C   UNL     1      37.696 -23.892 -12.121  0.00  0.00    +0.096 C 
ATOM     16  C   UNL     1      34.979 -24.098 -12.259  0.00  0.00    +0.020 C 
ATOM     17  C   UNL     1      35.669 -24.084 -11.058  0.00  0.00    +0.099 C 
ENDBRANCH  11  13
ENDBRANCH   8  11
ENDBRANCH   1   9
BRANCH   2  20
ATOM     18  O   UNL     1      37.542 -19.214 -20.502  0.00  0.00    -0.270 OA
ATOM     19  N   UNL     1      35.395 -19.151 -21.373  0.00  0.00    -0.297 N 
ATOM     20  C   UNL     1      36.360 -19.596 -20.462  0.00  0.00    +0.246 C 
ATOM     21  H   UNL     1      34.477 -19.493 -21.284  0.00  0.00    +0.150 HD
BRANCH  19  22
ATOM     22  C   UNL     1      35.675 -18.216 -22.440  0.00  0.00    +0.118 C 
BRANCH  22  24
ATOM     23  N   UNL     1      34.787 -14.572 -22.804  0.00  0.00    -0.243 NA
ATOM     24  C   UNL     1      35.265 -16.816 -22.083  0.00  0.00    +0.017 C 
ATOM     25  C   UNL     1      34.997 -16.477 -20.769  0.00  0.00    +0.001 C 
ATOM     26  C   UNL     1      35.151 -15.849 -23.058  0.00  0.00    +0.096 C 
ATOM     27  C   UNL     1      34.620 -15.173 -20.467  0.00  0.00    +0.020 C 
ATOM     28  C   UNL     1      34.531 -14.266 -21.512  0.00  0.00    +0.099 C 
ENDBRANCH  22  24
ENDBRANCH  19  22
ENDBRANCH   2  20
BRANCH   4  29
ATOM     29  O   UNL     1      34.677 -23.308 -16.612  0.00  0.00    -0.471 OA
ATOM     30  C   UNL     1      33.270 -23.443 -16.432  0.00  0.00    +0.252 C 
ENDBRANCH   4  29
TORSDOF 7
ENDMDL
MODEL 9
REMARK VINA RESULT:     -10.4      9.684     13.442
REMARK  Name = 4814
REMARK  7 active torsions:
REMARK  status: ('A' for Active; 'I' for Inactive)
REMARK    1  A    between atoms: C_1  and  C_9
REMARK    2  A    between atoms: C_2  and  C_20
REMARK    3  A    between atoms: C_4  and  O_29
REMARK    4  A    between atoms: N_8  and  C_11
REMARK    5  A    between atoms: C_11  and  C_13
REMARK    6  A    between atoms: N_19  and  C_22
REMARK    7  A    between atoms: C_22  and  C_24
REMARK                            x       y       z     vdW  Elec       q    Type
REMARK                         _______ _______ _______ _____ _____    ______ ____
ROOT
ATOM      1  C   UNL     1      31.995 -10.835 -21.566  0.00  0.00    +0.087 C 
ATOM      2  C   UNL     1      32.762 -13.065 -22.092  0.00  0.00    +0.054 C 
ATOM      3  C   UNL     1      32.559 -11.737 -22.468  0.00  0.00    +0.012 C 
ATOM      4  C   UNL     1      31.635 -11.261 -20.288  0.00  0.00    +0.143 C 
ATOM      5  C   UNL     1      32.403 -13.490 -20.814  0.00  0.00    +0.008 C 
ATOM      6  C   UNL     1      31.838 -12.589 -19.911  0.00  0.00    +0.037 C 
ENDROOT
BRANCH   1   9
ATOM      7  O   UNL     1      30.985  -9.178 -22.882  0.00  0.00    -0.270 OA
ATOM      8  N   UNL     1      32.523  -8.475 -21.295  0.00  0.00    -0.297 N 
ATOM      9  C   UNL     1      31.791  -9.453 -21.978  0.00  0.00    +0.249 C 
ATOM     10  H   UNL     1      33.144  -8.766 -20.589  0.00  0.00    +0.150 HD
BRANCH   8  11
ATOM     11  C   UNL     1      32.413  -7.060 -21.571  0.00  0.00    +0.118 C 
BRANCH  11  13
ATOM     12  N   UNL     1      33.678  -5.343 -24.677  0.00  0.00    -0.243 NA
ATOM     13  C   UNL     1      33.336  -6.629 -22.672  0.00  0.00    +0.017 C 
ATOM     14  C   UNL     1      34.641  -7.089 -22.717  0.00  0.00    +0.001 C 
ATOM     15  C   UNL     1      32.900  -5.770 -23.658  0.00  0.00    +0.096 C 
ATOM     16  C   UNL     1      35.472  -6.673 -23.751  0.00  0.00    +0.020 C 
ATOM     17  C   UNL     1      34.948  -5.807 -24.697  0.00  0.00    +0.099 C 
ENDBRANCH  11  13
ENDBRANCH   8  11
ENDBRANCH   1   9
BRANCH   2  20
ATOM     18  O   UNL     1      32.957 -14.050 -24.211  0.00  0.00    -0.270 OA
ATOM     19  N   UNL     1      34.384 -14.820 -22.553  0.00  0.00    -0.297 N 
ATOM     20  C   UNL     1      33.352 -14.004 -23.033  0.00  0.00    +0.246 C 
ATOM     21  H   UNL     1      34.646 -14.731 -21.609  0.00  0.00    +0.150 HD
BRANCH  19  22
ATOM     22  C   UNL     1      35.085 -15.785 -23.370  0.00  0.00    +0.118 C 
BRANCH  22  24
ATOM     23  N   UNL     1      35.508 -18.486 -20.777  0.00  0.00    -0.243 NA
ATOM     24  C   UNL     1      35.114 -17.144 -22.734  0.00  0.00    +0.017 C 
ATOM     25  C   UNL     1      34.791 -18.271 -23.471  0.00  0.00    +0.001 C 
ATOM     26  C   UNL     1      35.462 -17.292 -21.410  0.00  0.00    +0.096 C 
ATOM     27  C   UNL     1      34.826 -19.517 -22.855  0.00  0.00    +0.020 C 
ATOM     28  C   UNL     1      35.189 -19.570 -21.518  0.00  0.00    +0.099 C 
ENDBRANCH  22  24
ENDBRANCH  19  22
ENDBRANCH   2  20
BRANCH   4  29
ATOM     29  O   UNL     1      31.083 -10.395 -19.391  0.00  0.00    -0.471 OA
ATOM     30  C   UNL     1      31.763 -10.229 -18.149  0.00  0.00    +0.252 C 
ENDBRANCH   4  29
TORSDOF 7
ENDMDL
