MODEL 1
REMARK VINA RESULT:     -11.2      0.000      0.000
REMARK  Name = 17754104
REMARK  13 active torsions:
REMARK  status: ('A' for Active; 'I' for Inactive)
REMARK    1  A    between atoms: C_1  and  C_29
REMARK    2  A    between atoms: C_3  and  N_11
REMARK    3  A    between atoms: C_4  and  O_7
REMARK    4  A    between atoms: C_5  and  O_9
REMARK    5  A    between atoms: C_13  and  C_14
REMARK    6  A    between atoms: C_13  and  C_17
REMARK    7  A    between atoms: C_14  and  C_16
REMARK    8  A    between atoms: C_17  and  O_18
REMARK    9  A    between atoms: O_18  and  C_21
REMARK   10  A    between atoms: C_29  and  CA_30
REMARK   11  A    between atoms: CA_30  and  N_31
REMARK   12  A    between atoms: CA_30  and  C_36
REMARK   13  A    between atoms: C_36  and  O_37
REMARK                            x       y       z     vdW  Elec       q    Type
REMARK                         _______ _______ _______ _____ _____    ______ ____
ROOT
ATOM      1  C   UNL     1      30.346 -24.164 -15.043  0.00  0.00    +0.012 C 
ATOM      2  C   UNL     1      31.545 -23.466 -15.194  0.00  0.00    +0.019 C 
ATOM      3  C   UNL     1      32.587 -23.669 -14.289  0.00  0.00    +0.090 C 
ATOM      4  C   UNL     1      30.191 -25.063 -13.988  0.00  0.00    +0.133 C 
ATOM      5  C   UNL     1      32.432 -24.568 -13.235  0.00  0.00    +0.152 C 
ATOM      6  C   UNL     1      31.233 -25.265 -13.085  0.00  0.00    +0.074 C 
ENDROOT
BRANCH   3   7
ATOM      7  N   UNL     1      33.783 -22.964 -14.452  0.00  0.00    -0.354 N 
ATOM      8  H   UNL     1      33.786 -22.039 -14.115  0.00  0.00    +0.166 HD
ATOM      9  C   UNL     1      34.950 -23.396 -15.022  0.00  0.00    +0.063 C 
BRANCH   9  10
ATOM     10  C   UNL     1      35.412 -24.660 -15.040  0.00  0.00    +0.115 C 
BRANCH  10  12
ATOM     11  O   UNL     1      36.348 -25.079 -12.908  0.00  0.00    -0.288 OA
ATOM     12  C   UNL     1      36.460 -25.164 -14.127  0.00  0.00    +0.213 C 
ENDBRANCH  10  12
ENDBRANCH   9  10
BRANCH   9  13
ATOM     13  C   UNL     1      35.784 -22.312 -15.664  0.00  0.00    +0.245 C 
BRANCH  13  14
ATOM     14  O   UNL     1      36.173 -22.725 -16.973  0.00  0.00    -0.469 OA
BRANCH  14  17
ATOM     15  C   UNL     1      36.114 -20.312 -19.741  0.00  0.00    +0.003 C 
ATOM     16  C   UNL     1      34.774 -20.448 -20.173  0.00  0.00    +0.000 C 
ATOM     17  C   UNL     1      35.716 -21.983 -18.018  0.00  0.00    +0.139 C 
ATOM     18  C   UNL     1      36.570 -21.088 -18.662  0.00  0.00    +0.037 C 
ATOM     19  C   UNL     1      33.928 -21.355 -19.513  0.00  0.00    +0.003 C 
ATOM     20  C   UNL     1      34.397 -22.117 -18.443  0.00  0.00    +0.037 C 
ATOM     21  C   UNL     1      36.960 -19.406 -20.401  0.00  0.00    +0.000 C 
ATOM     22  C   UNL     1      34.318 -19.673 -21.252  0.00  0.00    +0.000 C 
ATOM     23  C   UNL     1      36.491 -18.644 -21.471  0.00  0.00    +0.000 C 
ATOM     24  C   UNL     1      35.172 -18.778 -21.896  0.00  0.00    +0.000 C 
ENDBRANCH  14  17
ENDBRANCH  13  14
ENDBRANCH   9  13
ENDBRANCH   3   7
BRANCH   4  25
ATOM     25  O   UNL     1      29.027 -25.753 -13.828  0.00  0.00    -0.506 OA
ATOM     26  H   UNL     1      28.932 -26.353 -13.114  0.00  0.00    +0.292 HD
ENDBRANCH   4  25
BRANCH   5  27
ATOM     27  O   UNL     1      33.439 -24.780 -12.342  0.00  0.00    -0.504 OA
ATOM     28  H   UNL     1      34.190 -25.280 -12.592  0.00  0.00    +0.292 HD
ENDBRANCH   5  27
BRANCH   1  29
ATOM     29  C   UNL     1      29.239 -23.933 -16.018  0.00  0.00    +0.018 C 
BRANCH  29  30
ATOM     30  CA  UNL     1      28.623 -22.521 -15.929  0.00  0.00    +0.040 C 
BRANCH  30  31
ATOM     31  N   UNL     1      28.144 -22.258 -14.574  0.00  0.00    +0.389 N 
ATOM     32  H1  UNL     1      27.451 -22.961 -14.317  0.00  0.00    -0.088 HD
ATOM     33  H2  UNL     1      27.720 -21.332 -14.536  0.00  0.00    -0.088 HD
ATOM     34  H3  UNL     1      28.928 -22.301 -13.923  0.00  0.00    -0.088 HD
ENDBRANCH  30  31
BRANCH  30  36
ATOM     35  OXT UNL     1      26.776 -21.338 -16.990  0.00  0.00    -0.253 OA
ATOM     36  C   UNL     1      27.425 -22.367 -16.851  0.00  0.00    +0.293 C 
BRANCH  36  37
ATOM     37  O   UNL     1      27.160 -23.504 -17.547  0.00  0.00    -0.482 OA
ATOM     38  H   UNL     1      26.341 -23.943 -17.432  0.00  0.00    +0.295 HD
ENDBRANCH  36  37
ENDBRANCH  30  36
ENDBRANCH  29  30
ENDBRANCH   1  29
TORSDOF 13
ENDMDL
MODEL 2
REMARK VINA RESULT:     -10.8      3.375      6.410
REMARK  Name = 17754104
REMARK  13 active torsions:
REMARK  status: ('A' for Active; 'I' for Inactive)
REMARK    1  A    between atoms: C_1  and  C_29
REMARK    2  A    between atoms: C_3  and  N_11
REMARK    3  A    between atoms: C_4  and  O_7
REMARK    4  A    between atoms: C_5  and  O_9
REMARK    5  A    between atoms: C_13  and  C_14
REMARK    6  A    between atoms: C_13  and  C_17
REMARK    7  A    between atoms: C_14  and  C_16
REMARK    8  A    between atoms: C_17  and  O_18
REMARK    9  A    between atoms: O_18  and  C_21
REMARK   10  A    between atoms: C_29  and  CA_30
REMARK   11  A    between atoms: CA_30  and  N_31
REMARK   12  A    between atoms: CA_30  and  C_36
REMARK   13  A    between atoms: C_36  and  O_37
REMARK                            x       y       z     vdW  Elec       q    Type
REMARK                         _______ _______ _______ _____ _____    ______ ____
ROOT
ATOM      1  C   UNL     1      36.854 -25.623 -13.317  0.00  0.00    +0.012 C 
ATOM      2  C   UNL     1      35.995 -25.157 -14.313  0.00  0.00    +0.019 C 
ATOM      3  C   UNL     1      34.837 -24.463 -13.965  0.00  0.00    +0.090 C 
ATOM      4  C   UNL     1      36.554 -25.394 -11.974  0.00  0.00    +0.133 C 
ATOM      5  C   UNL     1      34.537 -24.234 -12.622  0.00  0.00    +0.152 C 
ATOM      6  C   UNL     1      35.396 -24.700 -11.627  0.00  0.00    +0.074 C 
ENDROOT
BRANCH   3   7
ATOM      7  N   UNL     1      33.985 -24.002 -14.972  0.00  0.00    -0.354 N 
ATOM      8  H   UNL     1      33.065 -24.350 -14.951  0.00  0.00    +0.166 HD
ATOM      9  C   UNL     1      34.269 -23.126 -15.986  0.00  0.00    +0.063 C 
BRANCH   9  10
ATOM     10  C   UNL     1      35.164 -22.123 -15.950  0.00  0.00    +0.115 C 
BRANCH  10  12
ATOM     11  O   UNL     1      37.443 -22.023 -15.322  0.00  0.00    -0.288 OA
ATOM     12  C   UNL     1      36.613 -22.307 -16.180  0.00  0.00    +0.213 C 
ENDBRANCH  10  12
ENDBRANCH   9  10
BRANCH   9  13
ATOM     13  C   UNL     1      33.458 -23.328 -17.245  0.00  0.00    +0.245 C 
BRANCH  13  14
ATOM     14  O   UNL     1      34.325 -23.291 -18.378  0.00  0.00    -0.469 OA
BRANCH  14  17
ATOM     15  C   UNL     1      35.682 -20.367 -20.137  0.00  0.00    +0.003 C 
ATOM     16  C   UNL     1      34.485 -19.723 -20.529  0.00  0.00    +0.000 C 
ATOM     17  C   UNL     1      34.377 -22.127 -19.081  0.00  0.00    +0.139 C 
ATOM     18  C   UNL     1      35.611 -21.569 -19.413  0.00  0.00    +0.037 C 
ATOM     19  C   UNL     1      33.251 -20.300 -20.186  0.00  0.00    +0.003 C 
ATOM     20  C   UNL     1      33.199 -21.494 -19.467  0.00  0.00    +0.037 C 
ATOM     21  C   UNL     1      36.916 -19.791 -20.480  0.00  0.00    +0.000 C 
ATOM     22  C   UNL     1      34.556 -18.521 -21.253  0.00  0.00    +0.000 C 
ATOM     23  C   UNL     1      36.969 -18.596 -21.199  0.00  0.00    +0.000 C 
ATOM     24  C   UNL     1      35.790 -17.963 -21.585  0.00  0.00    +0.000 C 
ENDBRANCH  14  17
ENDBRANCH  13  14
ENDBRANCH   9  13
ENDBRANCH   3   7
BRANCH   4  25
ATOM     25  O   UNL     1      37.383 -25.841 -10.990  0.00  0.00    -0.506 OA
ATOM     26  H   UNL     1      37.365 -26.742 -10.735  0.00  0.00    +0.292 HD
ENDBRANCH   4  25
BRANCH   5  27
ATOM     27  O   UNL     1      33.410 -23.557 -12.263  0.00  0.00    -0.504 OA
ATOM     28  H   UNL     1      32.941 -23.805 -11.491  0.00  0.00    +0.292 HD
ENDBRANCH   5  27
BRANCH   1  29
ATOM     29  C   UNL     1      38.089 -26.366 -13.707  0.00  0.00    +0.018 C 
BRANCH  29  30
ATOM     30  CA  UNL     1      39.337 -25.466 -13.834  0.00  0.00    +0.040 C 
BRANCH  30  31
ATOM     31  N   UNL     1      39.091 -24.388 -14.790  0.00  0.00    +0.389 N 
ATOM     32  H1  UNL     1      38.086 -24.264 -14.911  0.00  0.00    -0.088 HD
ATOM     33  H2  UNL     1      39.514 -24.625 -15.687  0.00  0.00    -0.088 HD
ATOM     34  H3  UNL     1      39.500 -23.523 -14.438  0.00  0.00    -0.088 HD
ENDBRANCH  30  31
BRANCH  30  36
ATOM     35  OXT UNL     1      41.321 -26.866 -13.645  0.00  0.00    -0.253 OA
ATOM     36  C   UNL     1      40.540 -26.237 -14.348  0.00  0.00    +0.293 C 
BRANCH  36  37
ATOM     37  O   UNL     1      40.647 -26.186 -15.702  0.00  0.00    -0.482 OA
ATOM     38  H   UNL     1      39.949 -25.827 -16.213  0.00  0.00    +0.295 HD
ENDBRANCH  36  37
ENDBRANCH  30  36
ENDBRANCH  29  30
ENDBRANCH   1  29
TORSDOF 13
ENDMDL
MODEL 3
REMARK VINA RESULT:     -10.7      2.561      6.579
REMARK  Name = 17754104
REMARK  13 active torsions:
REMARK  status: ('A' for Active; 'I' for Inactive)
REMARK    1  A    between atoms: C_1  and  C_29
REMARK    2  A    between atoms: C_3  and  N_11
REMARK    3  A    between atoms: C_4  and  O_7
REMARK    4  A    between atoms: C_5  and  O_9
REMARK    5  A    between atoms: C_13  and  C_14
REMARK    6  A    between atoms: C_13  and  C_17
REMARK    7  A    between atoms: C_14  and  C_16
REMARK    8  A    between atoms: C_17  and  O_18
REMARK    9  A    between atoms: O_18  and  C_21
REMARK   10  A    between atoms: C_29  and  CA_30
REMARK   11  A    between atoms: CA_30  and  N_31
REMARK   12  A    between atoms: CA_30  and  C_36
REMARK   13  A    between atoms: C_36  and  O_37
REMARK                            x       y       z     vdW  Elec       q    Type
REMARK                         _______ _______ _______ _____ _____    ______ ____
ROOT
ATOM      1  C   UNL     1      37.091 -24.593 -12.972  0.00  0.00    +0.012 C 
ATOM      2  C   UNL     1      36.259 -24.546 -14.091  0.00  0.00    +0.019 C 
ATOM      3  C   UNL     1      34.874 -24.583 -13.932  0.00  0.00    +0.090 C 
ATOM      4  C   UNL     1      36.537 -24.677 -11.695  0.00  0.00    +0.133 C 
ATOM      5  C   UNL     1      34.320 -24.667 -12.655  0.00  0.00    +0.152 C 
ATOM      6  C   UNL     1      35.152 -24.715 -11.537  0.00  0.00    +0.074 C 
ENDROOT
BRANCH   3   7
ATOM      7  N   UNL     1      34.053 -24.535 -15.061  0.00  0.00    -0.354 N 
ATOM      8  H   UNL     1      34.028 -25.351 -15.611  0.00  0.00    +0.166 HD
ATOM      9  C   UNL     1      33.277 -23.496 -15.501  0.00  0.00    +0.063 C 
BRANCH   9  10
ATOM     10  C   UNL     1      32.692 -22.555 -14.737  0.00  0.00    +0.115 C 
BRANCH  10  12
ATOM     11  O   UNL     1      30.704 -23.337 -13.719  0.00  0.00    -0.288 OA
ATOM     12  C   UNL     1      31.241 -22.514 -14.454  0.00  0.00    +0.213 C 
ENDBRANCH  10  12
ENDBRANCH   9  10
BRANCH   9  13
ATOM     13  C   UNL     1      33.064 -23.450 -16.997  0.00  0.00    +0.245 C 
BRANCH  13  14
ATOM     14  O   UNL     1      34.320 -23.264 -17.648  0.00  0.00    -0.469 OA
BRANCH  14  17
ATOM     15  C   UNL     1      35.783 -20.589 -19.695  0.00  0.00    +0.003 C 
ATOM     16  C   UNL     1      34.621 -20.074 -20.315  0.00  0.00    +0.000 C 
ATOM     17  C   UNL     1      34.418 -22.224 -18.520  0.00  0.00    +0.139 C 
ATOM     18  C   UNL     1      35.665 -21.665 -18.800  0.00  0.00    +0.037 C 
ATOM     19  C   UNL     1      33.373 -20.648 -20.021  0.00  0.00    +0.003 C 
ATOM     20  C   UNL     1      33.274 -21.716 -19.130  0.00  0.00    +0.037 C 
ATOM     21  C   UNL     1      37.031 -20.015 -19.989  0.00  0.00    +0.000 C 
ATOM     22  C   UNL     1      34.739 -18.998 -21.210  0.00  0.00    +0.000 C 
ATOM     23  C   UNL     1      37.131 -18.947 -20.880  0.00  0.00    +0.000 C 
ATOM     24  C   UNL     1      35.987 -18.439 -21.490  0.00  0.00    +0.000 C 
ENDBRANCH  14  17
ENDBRANCH  13  14
ENDBRANCH   9  13
ENDBRANCH   3   7
BRANCH   4  25
ATOM     25  O   UNL     1      37.335 -24.723 -10.591  0.00  0.00    -0.506 OA
ATOM     26  H   UNL     1      36.988 -25.021  -9.774  0.00  0.00    +0.292 HD
ENDBRANCH   4  25
BRANCH   5  27
ATOM     27  O   UNL     1      32.969 -24.704 -12.479  0.00  0.00    -0.504 OA
ATOM     28  H   UNL     1      32.588 -25.344 -11.911  0.00  0.00    +0.292 HD
ENDBRANCH   5  27
BRANCH   1  29
ATOM     29  C   UNL     1      38.572 -24.555 -13.160  0.00  0.00    +0.018 C 
BRANCH  29  30
ATOM     30  CA  UNL     1      39.099 -25.639 -14.125  0.00  0.00    +0.040 C 
BRANCH  30  31
ATOM     31  N   UNL     1      38.559 -26.948 -13.763  0.00  0.00    +0.389 N 
ATOM     32  H1  UNL     1      39.044 -27.673 -14.292  0.00  0.00    -0.088 HD
ATOM     33  H2  UNL     1      37.563 -26.977 -13.980  0.00  0.00    -0.088 HD
ATOM     34  H3  UNL     1      38.695 -27.107 -12.765  0.00  0.00    -0.088 HD
ENDBRANCH  30  31
BRANCH  30  36
ATOM     35  OXT UNL     1      41.221 -26.794 -13.809  0.00  0.00    -0.253 OA
ATOM     36  C   UNL     1      40.612 -25.762 -14.064  0.00  0.00    +0.293 C 
BRANCH  36  37
ATOM     37  O   UNL     1      41.238 -24.593 -14.363  0.00  0.00    -0.482 OA
ATOM     38  H   UNL     1      41.900 -24.258 -13.791  0.00  0.00    +0.295 HD
ENDBRANCH  36  37
ENDBRANCH  30  36
ENDBRANCH  29  30
ENDBRANCH   1  29
TORSDOF 13
ENDMDL
MODEL 4
REMARK VINA RESULT:     -10.3      2.308      6.482
REMARK  Name = 17754104
REMARK  13 active torsions:
REMARK  status: ('A' for Active; 'I' for Inactive)
REMARK    1  A    between atoms: C_1  and  C_29
REMARK    2  A    between atoms: C_3  and  N_11
REMARK    3  A    between atoms: C_4  and  O_7
REMARK    4  A    between atoms: C_5  and  O_9
REMARK    5  A    between atoms: C_13  and  C_14
REMARK    6  A    between atoms: C_13  and  C_17
REMARK    7  A    between atoms: C_14  and  C_16
REMARK    8  A    between atoms: C_17  and  O_18
REMARK    9  A    between atoms: O_18  and  C_21
REMARK   10  A    between atoms: C_29  and  CA_30
REMARK   11  A    between atoms: CA_30  and  N_31
REMARK   12  A    between atoms: CA_30  and  C_36
REMARK   13  A    between atoms: C_36  and  O_37
REMARK                            x       y       z     vdW  Elec       q    Type
REMARK                         _______ _______ _______ _____ _____    ______ ____
ROOT
ATOM      1  C   UNL     1      36.701 -24.362 -13.425  0.00  0.00    +0.012 C 
ATOM      2  C   UNL     1      35.814 -24.160 -14.483  0.00  0.00    +0.019 C 
ATOM      3  C   UNL     1      34.440 -24.269 -14.270  0.00  0.00    +0.090 C 
ATOM      4  C   UNL     1      36.215 -24.672 -12.156  0.00  0.00    +0.133 C 
ATOM      5  C   UNL     1      33.953 -24.580 -13.000  0.00  0.00    +0.152 C 
ATOM      6  C   UNL     1      34.841 -24.782 -11.944  0.00  0.00    +0.074 C 
ENDROOT
BRANCH   3   7
ATOM      7  N   UNL     1      33.562 -24.065 -15.337  0.00  0.00    -0.354 N 
ATOM      8  H   UNL     1      33.623 -24.714 -16.074  0.00  0.00    +0.166 HD
ATOM      9  C   UNL     1      32.628 -23.075 -15.488  0.00  0.00    +0.063 C 
BRANCH   9  10
ATOM     10  C   UNL     1      31.959 -22.449 -14.503  0.00  0.00    +0.115 C 
BRANCH  10  12
ATOM     11  O   UNL     1      30.006 -23.725 -14.105  0.00  0.00    -0.288 OA
ATOM     12  C   UNL     1      30.509 -22.617 -14.260  0.00  0.00    +0.213 C 
ENDBRANCH  10  12
ENDBRANCH   9  10
BRANCH   9  13
ATOM     13  C   UNL     1      32.333 -22.692 -16.920  0.00  0.00    +0.245 C 
BRANCH  13  14
ATOM     14  O   UNL     1      33.335 -23.242 -17.774  0.00  0.00    -0.469 OA
BRANCH  14  17
ATOM     15  C   UNL     1      34.675 -20.653 -20.008  0.00  0.00    +0.003 C 
ATOM     16  C   UNL     1      36.007 -20.573 -19.539  0.00  0.00    +0.000 C 
ATOM     17  C   UNL     1      34.207 -22.370 -18.349  0.00  0.00    +0.139 C 
ATOM     18  C   UNL     1      33.787 -21.558 -19.401  0.00  0.00    +0.037 C 
ATOM     19  C   UNL     1      36.414 -21.399 -18.477  0.00  0.00    +0.003 C 
ATOM     20  C   UNL     1      35.518 -22.291 -17.887  0.00  0.00    +0.037 C 
ATOM     21  C   UNL     1      34.269 -19.828 -21.068  0.00  0.00    +0.000 C 
ATOM     22  C   UNL     1      36.896 -19.669 -20.145  0.00  0.00    +0.000 C 
ATOM     23  C   UNL     1      35.164 -18.935 -21.659  0.00  0.00    +0.000 C 
ATOM     24  C   UNL     1      36.475 -18.856 -21.197  0.00  0.00    +0.000 C 
ENDBRANCH  14  17
ENDBRANCH  13  14
ENDBRANCH   9  13
ENDBRANCH   3   7
BRANCH   4  25
ATOM     25  O   UNL     1      37.068 -24.871 -11.112  0.00  0.00    -0.506 OA
ATOM     26  H   UNL     1      37.780 -25.475 -11.197  0.00  0.00    +0.292 HD
ENDBRANCH   4  25
BRANCH   5  27
ATOM     27  O   UNL     1      32.614 -24.691 -12.772  0.00  0.00    -0.504 OA
ATOM     28  H   UNL     1      32.295 -24.803 -11.899  0.00  0.00    +0.292 HD
ENDBRANCH   5  27
BRANCH   1  29
ATOM     29  C   UNL     1      38.169 -24.243 -13.671  0.00  0.00    +0.018 C 
BRANCH  29  30
ATOM     30  CA  UNL     1      38.831 -25.569 -14.106  0.00  0.00    +0.040 C 
BRANCH  30  31
ATOM     31  N   UNL     1      38.932 -26.484 -12.971  0.00  0.00    +0.389 N 
ATOM     32  H1  UNL     1      38.808 -27.442 -13.295  0.00  0.00    -0.088 HD
ATOM     33  H2  UNL     1      38.209 -26.259 -12.287  0.00  0.00    -0.088 HD
ATOM     34  H3  UNL     1      39.851 -26.388 -12.539  0.00  0.00    -0.088 HD
ENDBRANCH  30  31
BRANCH  30  36
ATOM     35  OXT UNL     1      41.097 -24.677 -14.056  0.00  0.00    -0.253 OA
ATOM     36  C   UNL     1      40.245 -25.354 -14.618  0.00  0.00    +0.293 C 
BRANCH  36  37
ATOM     37  O   UNL     1      40.486 -26.032 -15.770  0.00  0.00    -0.482 OA
ATOM     38  H   UNL     1      39.799 -26.153 -16.394  0.00  0.00    +0.295 HD
ENDBRANCH  36  37
ENDBRANCH  30  36
ENDBRANCH  29  30
ENDBRANCH   1  29
TORSDOF 13
ENDMDL
MODEL 5
REMARK VINA RESULT:     -10.0      8.131     12.323
REMARK  Name = 17754104
REMARK  13 active torsions:
REMARK  status: ('A' for Active; 'I' for Inactive)
REMARK    1  A    between atoms: C_1  and  C_29
REMARK    2  A    between atoms: C_3  and  N_11
REMARK    3  A    between atoms: C_4  and  O_7
REMARK    4  A    between atoms: C_5  and  O_9
REMARK    5  A    between atoms: C_13  and  C_14
REMARK    6  A    between atoms: C_13  and  C_17
REMARK    7  A    between atoms: C_14  and  C_16
REMARK    8  A    between atoms: C_17  and  O_18
REMARK    9  A    between atoms: O_18  and  C_21
REMARK   10  A    between atoms: C_29  and  CA_30
REMARK   11  A    between atoms: CA_30  and  N_31
REMARK   12  A    between atoms: CA_30  and  C_36
REMARK   13  A    between atoms: C_36  and  O_37
REMARK                            x       y       z     vdW  Elec       q    Type
REMARK                         _______ _______ _______ _____ _____    ______ ____
ROOT
ATOM      1  C   UNL     1      32.732 -11.229 -22.634  0.00  0.00    +0.012 C 
ATOM      2  C   UNL     1      33.367 -12.464 -22.766  0.00  0.00    +0.019 C 
ATOM      3  C   UNL     1      33.090 -13.490 -21.863  0.00  0.00    +0.090 C 
ATOM      4  C   UNL     1      31.819 -11.022 -21.600  0.00  0.00    +0.133 C 
ATOM      5  C   UNL     1      32.177 -13.283 -20.829  0.00  0.00    +0.152 C 
ATOM      6  C   UNL     1      31.542 -12.048 -20.698  0.00  0.00    +0.074 C 
ENDROOT
BRANCH   3   7
ATOM      7  N   UNL     1      33.733 -14.722 -22.006  0.00  0.00    -0.354 N 
ATOM      8  H   UNL     1      33.636 -15.348 -21.253  0.00  0.00    +0.166 HD
ATOM      9  C   UNL     1      34.482 -15.169 -23.062  0.00  0.00    +0.063 C 
BRANCH   9  10
ATOM     10  C   UNL     1      34.328 -14.826 -24.354  0.00  0.00    +0.115 C 
BRANCH  10  12
ATOM     11  O   UNL     1      33.133 -16.459 -25.581  0.00  0.00    -0.288 OA
ATOM     12  C   UNL     1      33.209 -15.295 -25.200  0.00  0.00    +0.213 C 
ENDBRANCH  10  12
ENDBRANCH   9  10
BRANCH   9  13
ATOM     13  C   UNL     1      35.563 -16.161 -22.700  0.00  0.00    +0.245 C 
BRANCH  13  14
ATOM     14  O   UNL     1      35.076 -17.487 -22.900  0.00  0.00    -0.469 OA
BRANCH  14  17
ATOM     15  C   UNL     1      34.611 -20.148 -20.412  0.00  0.00    +0.003 C 
ATOM     16  C   UNL     1      35.936 -20.291 -19.937  0.00  0.00    +0.000 C 
ATOM     17  C   UNL     1      35.357 -18.404 -21.933  0.00  0.00    +0.139 C 
ATOM     18  C   UNL     1      34.338 -19.200 -21.411  0.00  0.00    +0.037 C 
ATOM     19  C   UNL     1      36.950 -19.481 -20.474  0.00  0.00    +0.003 C 
ATOM     20  C   UNL     1      36.661 -18.544 -21.466  0.00  0.00    +0.037 C 
ATOM     21  C   UNL     1      33.598 -20.958 -19.874  0.00  0.00    +0.000 C 
ATOM     22  C   UNL     1      36.210 -21.240 -18.937  0.00  0.00    +0.000 C 
ATOM     23  C   UNL     1      33.886 -21.896 -18.882  0.00  0.00    +0.000 C 
ATOM     24  C   UNL     1      35.190 -22.036 -18.415  0.00  0.00    +0.000 C 
ENDBRANCH  14  17
ENDBRANCH  13  14
ENDBRANCH   9  13
ENDBRANCH   3   7
BRANCH   4  25
ATOM     25  O   UNL     1      31.188  -9.822 -21.458  0.00  0.00    -0.506 OA
ATOM     26  H   UNL     1      30.640  -9.665 -20.714  0.00  0.00    +0.292 HD
ENDBRANCH   4  25
BRANCH   5  27
ATOM     27  O   UNL     1      31.892 -14.273 -19.938  0.00  0.00    -0.504 OA
ATOM     28  H   UNL     1      32.526 -14.940 -19.760  0.00  0.00    +0.292 HD
ENDBRANCH   5  27
BRANCH   1  29
ATOM     29  C   UNL     1      33.042 -10.140 -23.607  0.00  0.00    +0.018 C 
BRANCH  29  30
ATOM     30  CA  UNL     1      33.619  -8.869 -22.948  0.00  0.00    +0.040 C 
BRANCH  30  31
ATOM     31  N   UNL     1      32.767  -7.717 -23.232  0.00  0.00    +0.389 N 
ATOM     32  H1  UNL     1      31.787  -7.993 -23.162  0.00  0.00    -0.088 HD
ATOM     33  H2  UNL     1      32.958  -7.376 -24.174  0.00  0.00    -0.088 HD
ATOM     34  H3  UNL     1      32.960  -6.978 -22.556  0.00  0.00    -0.088 HD
ENDBRANCH  30  31
BRANCH  30  36
ATOM     35  OXT UNL     1      35.405  -7.397 -23.706  0.00  0.00    -0.253 OA
ATOM     36  C   UNL     1      35.000  -8.531 -23.483  0.00  0.00    +0.293 C 
BRANCH  36  37
ATOM     37  O   UNL     1      35.770  -9.636 -23.662  0.00  0.00    -0.482 OA
ATOM     38  H   UNL     1      35.686 -10.364 -23.079  0.00  0.00    +0.295 HD
ENDBRANCH  36  37
ENDBRANCH  30  36
ENDBRANCH  29  30
ENDBRANCH   1  29
TORSDOF 13
ENDMDL
MODEL 6
REMARK VINA RESULT:      -9.6      4.998      9.450
REMARK  Name = 17754104
REMARK  13 active torsions:
REMARK  status: ('A' for Active; 'I' for Inactive)
REMARK    1  A    between atoms: C_1  and  C_29
REMARK    2  A    between atoms: C_3  and  N_11
REMARK    3  A    between atoms: C_4  and  O_7
REMARK    4  A    between atoms: C_5  and  O_9
REMARK    5  A    between atoms: C_13  and  C_14
REMARK    6  A    between atoms: C_13  and  C_17
REMARK    7  A    between atoms: C_14  and  C_16
REMARK    8  A    between atoms: C_17  and  O_18
REMARK    9  A    between atoms: O_18  and  C_21
REMARK   10  A    between atoms: C_29  and  CA_30
REMARK   11  A    between atoms: CA_30  and  N_31
REMARK   12  A    between atoms: CA_30  and  C_36
REMARK   13  A    between atoms: C_36  and  O_37
REMARK                            x       y       z     vdW  Elec       q    Type
REMARK                         _______ _______ _______ _____ _____    ______ ____
ROOT
ATOM      1  C   UNL     1      34.740 -15.614 -22.077  0.00  0.00    +0.012 C 
ATOM      2  C   UNL     1      35.103 -16.586 -21.144  0.00  0.00    +0.019 C 
ATOM      3  C   UNL     1      35.324 -17.900 -21.556  0.00  0.00    +0.090 C 
ATOM      4  C   UNL     1      34.597 -15.957 -23.421  0.00  0.00    +0.133 C 
ATOM      5  C   UNL     1      35.181 -18.243 -22.901  0.00  0.00    +0.152 C 
ATOM      6  C   UNL     1      34.817 -17.271 -23.833  0.00  0.00    +0.074 C 
ENDROOT
BRANCH   3   7
ATOM      7  N   UNL     1      35.687 -18.863 -20.612  0.00  0.00    -0.354 N 
ATOM      8  H   UNL     1      36.535 -18.702 -20.138  0.00  0.00    +0.166 HD
ATOM      9  C   UNL     1      35.015 -20.003 -20.262  0.00  0.00    +0.063 C 
BRANCH   9  10
ATOM     10  C   UNL     1      33.682 -20.187 -20.292  0.00  0.00    +0.115 C 
BRANCH  10  12
ATOM     11  O   UNL     1      32.689 -22.194 -19.528  0.00  0.00    -0.288 OA
ATOM     12  C   UNL     1      32.946 -21.014 -19.311  0.00  0.00    +0.213 C 
ENDBRANCH  10  12
ENDBRANCH   9  10
BRANCH   9  13
ATOM     13  C   UNL     1      35.891 -21.136 -19.779  0.00  0.00    +0.245 C 
BRANCH  13  14
ATOM     14  O   UNL     1      36.637 -20.706 -18.642  0.00  0.00    -0.469 OA
BRANCH  14  17
ATOM     15  C   UNL     1      35.103 -22.845 -16.080  0.00  0.00    +0.003 C 
ATOM     16  C   UNL     1      36.134 -22.867 -15.112  0.00  0.00    +0.000 C 
ATOM     17  C   UNL     1      36.474 -21.413 -17.490  0.00  0.00    +0.139 C 
ATOM     18  C   UNL     1      35.289 -22.113 -17.265  0.00  0.00    +0.037 C 
ATOM     19  C   UNL     1      37.321 -22.156 -15.355  0.00  0.00    +0.003 C 
ATOM     20  C   UNL     1      37.489 -21.434 -16.538  0.00  0.00    +0.037 C 
ATOM     21  C   UNL     1      33.917 -23.555 -15.837  0.00  0.00    +0.000 C 
ATOM     22  C   UNL     1      35.949 -23.599 -13.927  0.00  0.00    +0.000 C 
ATOM     23  C   UNL     1      33.749 -24.278 -14.655  0.00  0.00    +0.000 C 
ATOM     24  C   UNL     1      34.764 -24.299 -13.703  0.00  0.00    +0.000 C 
ENDBRANCH  14  17
ENDBRANCH  13  14
ENDBRANCH   9  13
ENDBRANCH   3   7
BRANCH   4  25
ATOM     25  O   UNL     1      34.244 -15.020 -24.345  0.00  0.00    -0.506 OA
ATOM     26  H   UNL     1      33.942 -15.286 -25.191  0.00  0.00    +0.292 HD
ENDBRANCH   4  25
BRANCH   5  27
ATOM     27  O   UNL     1      35.392 -19.521 -23.323  0.00  0.00    -0.504 OA
ATOM     28  H   UNL     1      36.244 -19.784 -23.612  0.00  0.00    +0.292 HD
ENDBRANCH   5  27
BRANCH   1  29
ATOM     29  C   UNL     1      34.505 -14.213 -21.618  0.00  0.00    +0.018 C 
BRANCH  29  30
ATOM     30  CA  UNL     1      33.020 -13.794 -21.650  0.00  0.00    +0.040 C 
BRANCH  30  31
ATOM     31  N   UNL     1      32.844 -12.602 -22.476  0.00  0.00    +0.389 N 
ATOM     32  H1  UNL     1      33.695 -12.041 -22.448  0.00  0.00    -0.088 HD
ATOM     33  H2  UNL     1      32.062 -12.053 -22.121  0.00  0.00    -0.088 HD
ATOM     34  H3  UNL     1      32.654 -12.882 -23.439  0.00  0.00    -0.088 HD
ENDBRANCH  30  31
BRANCH  30  36
ATOM     35  OXT UNL     1      32.268 -12.306 -19.873  0.00  0.00    -0.253 OA
ATOM     36  C   UNL     1      32.502 -13.442 -20.265  0.00  0.00    +0.293 C 
BRANCH  36  37
ATOM     37  O   UNL     1      32.286 -14.544 -19.499  0.00  0.00    -0.482 OA
ATOM     38  H   UNL     1      31.412 -14.792 -19.273  0.00  0.00    +0.295 HD
ENDBRANCH  36  37
ENDBRANCH  30  36
ENDBRANCH  29  30
ENDBRANCH   1  29
TORSDOF 13
ENDMDL
MODEL 7
REMARK VINA RESULT:      -9.5      2.613      5.007
REMARK  Name = 17754104
REMARK  13 active torsions:
REMARK  status: ('A' for Active; 'I' for Inactive)
REMARK    1  A    between atoms: C_1  and  C_29
REMARK    2  A    between atoms: C_3  and  N_11
REMARK    3  A    between atoms: C_4  and  O_7
REMARK    4  A    between atoms: C_5  and  O_9
REMARK    5  A    between atoms: C_13  and  C_14
REMARK    6  A    between atoms: C_13  and  C_17
REMARK    7  A    between atoms: C_14  and  C_16
REMARK    8  A    between atoms: C_17  and  O_18
REMARK    9  A    between atoms: O_18  and  C_21
REMARK   10  A    between atoms: C_29  and  CA_30
REMARK   11  A    between atoms: CA_30  and  N_31
REMARK   12  A    between atoms: CA_30  and  C_36
REMARK   13  A    between atoms: C_36  and  O_37
REMARK                            x       y       z     vdW  Elec       q    Type
REMARK                         _______ _______ _______ _____ _____    ______ ____
ROOT
ATOM      1  C   UNL     1      33.975 -23.398 -15.622  0.00  0.00    +0.012 C 
ATOM      2  C   UNL     1      34.458 -22.821 -16.797  0.00  0.00    +0.019 C 
ATOM      3  C   UNL     1      35.775 -22.365 -16.858  0.00  0.00    +0.090 C 
ATOM      4  C   UNL     1      34.809 -23.521 -14.511  0.00  0.00    +0.133 C 
ATOM      5  C   UNL     1      36.609 -22.488 -15.747  0.00  0.00    +0.152 C 
ATOM      6  C   UNL     1      36.125 -23.065 -14.573  0.00  0.00    +0.074 C 
ENDROOT
BRANCH   3   7
ATOM      7  N   UNL     1      36.247 -21.789 -18.041  0.00  0.00    -0.354 N 
ATOM      8  H   UNL     1      37.226 -21.740 -18.135  0.00  0.00    +0.166 HD
ATOM      9  C   UNL     1      35.521 -21.284 -19.085  0.00  0.00    +0.063 C 
BRANCH   9  10
ATOM     10  C   UNL     1      34.304 -21.694 -19.487  0.00  0.00    +0.115 C 
BRANCH  10  12
ATOM     11  O   UNL     1      32.436 -20.510 -20.327  0.00  0.00    -0.288 OA
ATOM     12  C   UNL     1      33.077 -20.880 -19.348  0.00  0.00    +0.213 C 
ENDBRANCH  10  12
ENDBRANCH   9  10
BRANCH   9  13
ATOM     13  C   UNL     1      36.198 -20.170 -19.851  0.00  0.00    +0.245 C 
BRANCH  13  14
ATOM     14  O   UNL     1      35.668 -20.113 -21.174  0.00  0.00    -0.469 OA
BRANCH  14  17
ATOM     15  C   UNL     1      34.942 -16.516 -21.323  0.00  0.00    +0.003 C 
ATOM     16  C   UNL     1      34.819 -16.336 -22.720  0.00  0.00    +0.000 C 
ATOM     17  C   UNL     1      35.392 -18.880 -21.679  0.00  0.00    +0.139 C 
ATOM     18  C   UNL     1      35.229 -17.796 -20.818  0.00  0.00    +0.037 C 
ATOM     19  C   UNL     1      34.985 -17.440 -23.573  0.00  0.00    +0.003 C 
ATOM     20  C   UNL     1      35.270 -18.703 -23.054  0.00  0.00    +0.037 C 
ATOM     21  C   UNL     1      34.775 -15.413 -20.470  0.00  0.00    +0.000 C 
ATOM     22  C   UNL     1      34.531 -15.057 -23.226  0.00  0.00    +0.000 C 
ATOM     23  C   UNL     1      34.490 -14.149 -20.989  0.00  0.00    +0.000 C 
ATOM     24  C   UNL     1      34.369 -13.972 -22.364  0.00  0.00    +0.000 C 
ENDBRANCH  14  17
ENDBRANCH  13  14
ENDBRANCH   9  13
ENDBRANCH   3   7
BRANCH   4  25
ATOM     25  O   UNL     1      34.353 -24.084 -13.357  0.00  0.00    -0.506 OA
ATOM     26  H   UNL     1      34.211 -23.551 -12.599  0.00  0.00    +0.292 HD
ENDBRANCH   4  25
BRANCH   5  27
ATOM     27  O   UNL     1      37.899 -22.049 -15.788  0.00  0.00    -0.504 OA
ATOM     28  H   UNL     1      38.365 -21.891 -14.992  0.00  0.00    +0.292 HD
ENDBRANCH   5  27
BRANCH   1  29
ATOM     29  C   UNL     1      32.562 -23.878 -15.573  0.00  0.00    +0.018 C 
BRANCH  29  30
ATOM     30  CA  UNL     1      31.552 -22.780 -15.176  0.00  0.00    +0.040 C 
BRANCH  30  31
ATOM     31  N   UNL     1      31.578 -22.563 -13.731  0.00  0.00    +0.389 N 
ATOM     32  H1  UNL     1      31.251 -23.403 -13.255  0.00  0.00    -0.088 HD
ATOM     33  H2  UNL     1      30.970 -21.779 -13.494  0.00  0.00    -0.088 HD
ATOM     34  H3  UNL     1      32.532 -22.355 -13.437  0.00  0.00    -0.088 HD
ENDBRANCH  30  31
BRANCH  30  36
ATOM     35  OXT UNL     1      29.469 -24.024 -14.950  0.00  0.00    -0.253 OA
ATOM     36  C   UNL     1      30.126 -23.169 -15.531  0.00  0.00    +0.293 C 
BRANCH  36  37
ATOM     37  O   UNL     1      29.630 -22.432 -16.559  0.00  0.00    -0.482 OA
ATOM     38  H   UNL     1      29.442 -22.841 -17.380  0.00  0.00    +0.295 HD
ENDBRANCH  36  37
ENDBRANCH  30  36
ENDBRANCH  29  30
ENDBRANCH   1  29
TORSDOF 13
ENDMDL
MODEL 8
REMARK VINA RESULT:      -9.5      5.345      9.163
REMARK  Name = 17754104
REMARK  13 active torsions:
REMARK  status: ('A' for Active; 'I' for Inactive)
REMARK    1  A    between atoms: C_1  and  C_29
REMARK    2  A    between atoms: C_3  and  N_11
REMARK    3  A    between atoms: C_4  and  O_7
REMARK    4  A    between atoms: C_5  and  O_9
REMARK    5  A    between atoms: C_13  and  C_14
REMARK    6  A    between atoms: C_13  and  C_17
REMARK    7  A    between atoms: C_14  and  C_16
REMARK    8  A    between atoms: C_17  and  O_18
REMARK    9  A    between atoms: O_18  and  C_21
REMARK   10  A    between atoms: C_29  and  CA_30
REMARK   11  A    between atoms: CA_30  and  N_31
REMARK   12  A    between atoms: CA_30  and  C_36
REMARK   13  A    between atoms: C_36  and  O_37
REMARK                            x       y       z     vdW  Elec       q    Type
REMARK                         _______ _______ _______ _____ _____    ______ ____
ROOT
ATOM      1  C   UNL     1      34.908 -20.401 -19.992  0.00  0.00    +0.012 C 
ATOM      2  C   UNL     1      34.784 -19.373 -20.928  0.00  0.00    +0.019 C 
ATOM      3  C   UNL     1      35.922 -18.712 -21.390  0.00  0.00    +0.090 C 
ATOM      4  C   UNL     1      36.168 -20.767 -19.520  0.00  0.00    +0.133 C 
ATOM      5  C   UNL     1      37.182 -19.078 -20.918  0.00  0.00    +0.152 C 
ATOM      6  C   UNL     1      37.305 -20.105 -19.983  0.00  0.00    +0.074 C 
ENDROOT
BRANCH   3   7
ATOM      7  N   UNL     1      35.785 -17.685 -22.327  0.00  0.00    -0.354 N 
ATOM      8  H   UNL     1      36.319 -16.875 -22.159  0.00  0.00    +0.166 HD
ATOM      9  C   UNL     1      35.000 -17.660 -23.449  0.00  0.00    +0.063 C 
BRANCH   9  10
ATOM     10  C   UNL     1      34.644 -18.719 -24.199  0.00  0.00    +0.115 C 
BRANCH  10  12
ATOM     11  O   UNL     1      32.603 -18.329 -25.330  0.00  0.00    -0.288 OA
ATOM     12  C   UNL     1      33.245 -19.035 -24.559  0.00  0.00    +0.213 C 
ENDBRANCH  10  12
ENDBRANCH   9  10
BRANCH   9  13
ATOM     13  C   UNL     1      34.527 -16.287 -23.864  0.00  0.00    +0.245 C 
BRANCH  13  14
ATOM     14  O   UNL     1      35.167 -15.300 -23.057  0.00  0.00    -0.469 OA
BRANCH  14  17
ATOM     15  C   UNL     1      32.868 -12.622 -22.045  0.00  0.00    +0.003 C 
ATOM     16  C   UNL     1      32.720 -12.915 -20.669  0.00  0.00    +0.000 C 
ATOM     17  C   UNL     1      34.368 -14.522 -22.277  0.00  0.00    +0.139 C 
ATOM     18  C   UNL     1      33.695 -13.436 -22.836  0.00  0.00    +0.037 C 
ATOM     19  C   UNL     1      33.405 -14.013 -20.122  0.00  0.00    +0.003 C 
ATOM     20  C   UNL     1      34.223 -14.811 -20.923  0.00  0.00    +0.037 C 
ATOM     21  C   UNL     1      32.183 -11.524 -22.590  0.00  0.00    +0.000 C 
ATOM     22  C   UNL     1      31.893 -12.101 -19.877  0.00  0.00    +0.000 C 
ATOM     23  C   UNL     1      31.365 -10.725 -21.790  0.00  0.00    +0.000 C 
ATOM     24  C   UNL     1      31.220 -11.014 -20.436  0.00  0.00    +0.000 C 
ENDBRANCH  14  17
ENDBRANCH  13  14
ENDBRANCH   9  13
ENDBRANCH   3   7
BRANCH   4  25
ATOM     25  O   UNL     1      36.306 -21.770 -18.608  0.00  0.00    -0.506 OA
ATOM     26  H   UNL     1      37.150 -22.142 -18.444  0.00  0.00    +0.292 HD
ENDBRANCH   4  25
BRANCH   5  27
ATOM     27  O   UNL     1      38.305 -18.444 -21.358  0.00  0.00    -0.504 OA
ATOM     28  H   UNL     1      38.855 -17.989 -20.751  0.00  0.00    +0.292 HD
ENDBRANCH   5  27
BRANCH   1  29
ATOM     29  C   UNL     1      33.679 -21.098 -19.506  0.00  0.00    +0.018 C 
BRANCH  29  30
ATOM     30  CA  UNL     1      33.977 -22.368 -18.681  0.00  0.00    +0.040 C 
BRANCH  30  31
ATOM     31  N   UNL     1      33.891 -23.556 -19.527  0.00  0.00    +0.389 N 
ATOM     32  H1  UNL     1      33.246 -24.226 -19.107  0.00  0.00    -0.088 HD
ATOM     33  H2  UNL     1      34.814 -23.981 -19.613  0.00  0.00    -0.088 HD
ATOM     34  H3  UNL     1      33.549 -23.291 -20.451  0.00  0.00    -0.088 HD
ENDBRANCH  30  31
BRANCH  30  36
ATOM     35  OXT UNL     1      31.811 -22.170 -17.583  0.00  0.00    -0.253 OA
ATOM     36  C   UNL     1      32.972 -22.560 -17.558  0.00  0.00    +0.293 C 
BRANCH  36  37
ATOM     37  O   UNL     1      33.492 -23.255 -16.512  0.00  0.00    -0.482 OA
ATOM     38  H   UNL     1      34.419 -23.286 -16.386  0.00  0.00    +0.295 HD
ENDBRANCH  36  37
ENDBRANCH  30  36
ENDBRANCH  29  30
ENDBRANCH   1  29
TORSDOF 13
ENDMDL
MODEL 9
REMARK VINA RESULT:      -9.3      9.366     13.617
REMARK  Name = 17754104
REMARK  13 active torsions:
REMARK  status: ('A' for Active; 'I' for Inactive)
REMARK    1  A    between atoms: C_1  and  C_29
REMARK    2  A    between atoms: C_3  and  N_11
REMARK    3  A    between atoms: C_4  and  O_7
REMARK    4  A    between atoms: C_5  and  O_9
REMARK    5  A    between atoms: C_13  and  C_14
REMARK    6  A    between atoms: C_13  and  C_17
REMARK    7  A    between atoms: C_14  and  C_16
REMARK    8  A    between atoms: C_17  and  O_18
REMARK    9  A    between atoms: O_18  and  C_21
REMARK   10  A    between atoms: C_29  and  CA_30
REMARK   11  A    between atoms: CA_30  and  N_31
REMARK   12  A    between atoms: CA_30  and  C_36
REMARK   13  A    between atoms: C_36  and  O_37
REMARK                            x       y       z     vdW  Elec       q    Type
REMARK                         _______ _______ _______ _____ _____    ______ ____
ROOT
ATOM      1  C   UNL     1      34.913 -16.511 -22.607  0.00  0.00    +0.012 C 
ATOM      2  C   UNL     1      34.612 -15.155 -22.743  0.00  0.00    +0.019 C 
ATOM      3  C   UNL     1      34.005 -14.691 -23.910  0.00  0.00    +0.090 C 
ATOM      4  C   UNL     1      34.607 -17.400 -23.636  0.00  0.00    +0.133 C 
ATOM      5  C   UNL     1      33.699 -15.580 -24.939  0.00  0.00    +0.152 C 
ATOM      6  C   UNL     1      34.001 -16.935 -24.802  0.00  0.00    +0.074 C 
ENDROOT
BRANCH   3   7
ATOM      7  N   UNL     1      33.708 -13.331 -24.033  0.00  0.00    -0.354 N 
ATOM      8  H   UNL     1      34.036 -12.892 -24.851  0.00  0.00    +0.166 HD
ATOM      9  C   UNL     1      33.019 -12.532 -23.161  0.00  0.00    +0.063 C 
BRANCH   9  10
ATOM     10  C   UNL     1      32.035 -12.918 -22.328  0.00  0.00    +0.115 C 
BRANCH  10  12
ATOM     11  O   UNL     1      31.974 -14.019 -20.235  0.00  0.00    -0.288 OA
ATOM     12  C   UNL     1      32.183 -12.983 -20.858  0.00  0.00    +0.213 C 
ENDBRANCH  10  12
ENDBRANCH   9  10
BRANCH   9  13
ATOM     13  C   UNL     1      33.418 -11.074 -23.183  0.00  0.00    +0.245 C 
BRANCH  13  14
ATOM     14  O   UNL     1      32.363 -10.302 -23.753  0.00  0.00    -0.469 OA
BRANCH  14  17
ATOM     15  C   UNL     1      31.406  -6.783 -23.316  0.00  0.00    +0.003 C 
ATOM     16  C   UNL     1      31.454  -6.676 -21.907  0.00  0.00    +0.000 C 
ATOM     17  C   UNL     1      32.065  -9.119 -23.150  0.00  0.00    +0.139 C 
ATOM     18  C   UNL     1      31.714  -8.012 -23.923  0.00  0.00    +0.037 C 
ATOM     19  C   UNL     1      31.810  -7.800 -21.143  0.00  0.00    +0.003 C 
ATOM     20  C   UNL     1      32.113  -9.013 -21.763  0.00  0.00    +0.037 C 
ATOM     21  C   UNL     1      31.051  -5.659 -24.079  0.00  0.00    +0.000 C 
ATOM     22  C   UNL     1      31.147  -5.447 -21.300  0.00  0.00    +0.000 C 
ATOM     23  C   UNL     1      30.748  -4.445 -23.460  0.00  0.00    +0.000 C 
ATOM     24  C   UNL     1      30.796  -4.340 -22.073  0.00  0.00    +0.000 C 
ENDBRANCH  14  17
ENDBRANCH  13  14
ENDBRANCH   9  13
ENDBRANCH   3   7
BRANCH   4  25
ATOM     25  O   UNL     1      34.894 -18.727 -23.519  0.00  0.00    -0.506 OA
ATOM     26  H   UNL     1      35.073 -19.095 -22.676  0.00  0.00    +0.292 HD
ENDBRANCH   4  25
BRANCH   5  27
ATOM     27  O   UNL     1      33.105 -15.145 -26.086  0.00  0.00    -0.504 OA
ATOM     28  H   UNL     1      33.545 -14.528 -26.636  0.00  0.00    +0.292 HD
ENDBRANCH   5  27
BRANCH   1  29
ATOM     29  C   UNL     1      35.565 -16.991 -21.352  0.00  0.00    +0.018 C 
BRANCH  29  30
ATOM     30  CA  UNL     1      35.810 -18.516 -21.329  0.00  0.00    +0.040 C 
BRANCH  30  31
ATOM     31  N   UNL     1      34.782 -19.184 -20.534  0.00  0.00    +0.389 N 
ATOM     32  H1  UNL     1      35.227 -19.745 -19.808  0.00  0.00    -0.088 HD
ATOM     33  H2  UNL     1      34.223 -19.787 -21.137  0.00  0.00    -0.088 HD
ATOM     34  H3  UNL     1      34.180 -18.483 -20.100  0.00  0.00    -0.088 HD
ENDBRANCH  30  31
BRANCH  30  36
ATOM     35  OXT UNL     1      37.283 -19.381 -19.593  0.00  0.00    -0.253 OA
ATOM     36  C   UNL     1      37.145 -18.865 -20.695  0.00  0.00    +0.293 C 
BRANCH  36  37
ATOM     37  O   UNL     1      38.195 -18.572 -21.507  0.00  0.00    -0.482 OA
ATOM     38  H   UNL     1      38.075 -17.999 -22.238  0.00  0.00    +0.295 HD
ENDBRANCH  36  37
ENDBRANCH  30  36
ENDBRANCH  29  30
ENDBRANCH   1  29
TORSDOF 13
ENDMDL
