MODEL 1
REMARK VINA RESULT:     -11.3      0.000      0.000
REMARK  Name = 25113181
REMARK  3 active torsions:
REMARK  status: ('A' for Active; 'I' for Inactive)
REMARK    1  A    between atoms: C_14  and  C_19
REMARK    2  A    between atoms: C_17  and  C_30
REMARK    3  A    between atoms: C_22  and  O_25
REMARK                            x       y       z     vdW  Elec       q    Type
REMARK                         _______ _______ _______ _____ _____    ______ ____
ROOT
ATOM      1  N   UNL     1      35.886 -24.616 -13.737  0.00  0.00    -0.290 N 
ATOM      2  N   UNL     1      38.722 -24.894 -13.539  0.00  0.00    +0.388 N 
ATOM      3  N   UNL     1      34.073 -23.742 -14.995  0.00  0.00    -0.392 NA
ATOM      4  N   UNL     1      32.335 -24.573 -12.993  0.00  0.00    -0.263 NA
ATOM      5  C   UNL     1      36.692 -24.826 -14.947  0.00  0.00    +0.070 C 
ATOM      6  C   UNL     1      36.601 -24.050 -12.590  0.00  0.00    +0.070 C 
ATOM      7  C   UNL     1      37.983 -25.575 -14.610  0.00  0.00    -0.056 C 
ATOM      8  C   UNL     1      37.896 -24.824 -12.328  0.00  0.00    -0.056 C 
ATOM      9  C   UNL     1      34.518 -24.370 -13.893  0.00  0.00    +0.184 C 
ATOM     10  C   UNL     1      39.980 -25.587 -13.263  0.00  0.00    -0.101 C 
ATOM     11  C   UNL     1      32.749 -23.526 -15.102  0.00  0.00    +0.131 C 
ATOM     12  C   UNL     1      33.661 -24.780 -12.906  0.00  0.00    +0.199 C 
ATOM     13  C   UNL     1      31.869 -23.947 -14.088  0.00  0.00    +0.084 C 
ATOM     14  C   UNL     1      32.232 -22.880 -16.223  0.00  0.00    +0.097 C 
ATOM     15  C   UNL     1      30.505 -23.706 -14.231  0.00  0.00    +0.078 C 
ATOM     16  C   UNL     1      30.864 -22.644 -16.356  0.00  0.00    -0.015 C 
ATOM     17  C   UNL     1      29.998 -23.059 -15.357  0.00  0.00    +0.052 C 
ATOM     18  H   UNL     1      38.943 -23.946 -13.844  0.00  0.00    -0.080 HD
ENDROOT
BRANCH  14  19
ATOM     19  C   UNL     1      33.109 -22.432 -17.290  0.00  0.00    -0.009 C 
ATOM     20  C   UNL     1      32.589 -21.716 -18.367  0.00  0.00    +0.033 C 
ATOM     21  C   UNL     1      34.474 -22.717 -17.236  0.00  0.00    -0.003 C 
ATOM     22  C   UNL     1      33.432 -21.286 -19.391  0.00  0.00    +0.133 C 
ATOM     23  C   UNL     1      35.317 -22.286 -18.260  0.00  0.00    +0.003 C 
ATOM     24  C   UNL     1      34.797 -21.570 -19.337  0.00  0.00    +0.037 C 
BRANCH  22  25
ATOM     25  O   UNL     1      32.925 -20.585 -20.442  0.00  0.00    -0.506 OA
ATOM     26  H   UNL     1      32.505 -21.036 -21.148  0.00  0.00    +0.292 HD
ENDBRANCH  22  25
ENDBRANCH  14  19
BRANCH  17  30
ATOM     27  F   UNL     1      28.036 -21.953 -14.550  0.00  0.00    -0.166 F 
ATOM     28  F   UNL     1      28.170 -22.283 -16.689  0.00  0.00    -0.166 F 
ATOM     29  F   UNL     1      27.797 -23.959 -15.355  0.00  0.00    -0.166 F 
ATOM     30  C   UNL     1      28.533 -22.816 -15.484  0.00  0.00    +0.415 C 
ENDBRANCH  17  30
TORSDOF 3
ENDMDL
MODEL 2
REMARK VINA RESULT:     -11.2      4.042      6.799
REMARK  Name = 25113181
REMARK  3 active torsions:
REMARK  status: ('A' for Active; 'I' for Inactive)
REMARK    1  A    between atoms: C_14  and  C_19
REMARK    2  A    between atoms: C_17  and  C_30
REMARK    3  A    between atoms: C_22  and  O_25
REMARK                            x       y       z     vdW  Elec       q    Type
REMARK                         _______ _______ _______ _____ _____    ______ ____
ROOT
ATOM      1  N   UNL     1      30.824 -23.810 -15.114  0.00  0.00    -0.290 N 
ATOM      2  N   UNL     1      28.476 -23.457 -16.702  0.00  0.00    +0.388 N 
ATOM      3  N   UNL     1      33.188 -23.617 -15.017  0.00  0.00    -0.392 NA
ATOM      4  N   UNL     1      33.144 -24.814 -12.510  0.00  0.00    -0.263 NA
ATOM      5  C   UNL     1      30.715 -22.662 -16.022  0.00  0.00    +0.070 C 
ATOM      6  C   UNL     1      29.982 -24.962 -15.445  0.00  0.00    +0.070 C 
ATOM      7  C   UNL     1      29.248 -22.293 -16.249  0.00  0.00    -0.056 C 
ATOM      8  C   UNL     1      28.537 -24.520 -15.692  0.00  0.00    -0.056 C 
ATOM      9  C   UNL     1      32.036 -24.006 -14.443  0.00  0.00    +0.184 C 
ATOM     10  C   UNL     1      27.088 -23.081 -16.969  0.00  0.00    -0.101 C 
ATOM     11  C   UNL     1      34.330 -23.826 -14.337  0.00  0.00    +0.131 C 
ATOM     12  C   UNL     1      32.014 -24.595 -13.207  0.00  0.00    +0.199 C 
ATOM     13  C   UNL     1      34.307 -24.431 -13.067  0.00  0.00    +0.084 C 
ATOM     14  C   UNL     1      35.552 -23.443 -14.883  0.00  0.00    +0.097 C 
ATOM     15  C   UNL     1      35.507 -24.633 -12.390  0.00  0.00    +0.078 C 
ATOM     16  C   UNL     1      36.748 -23.649 -14.197  0.00  0.00    -0.015 C 
ATOM     17  C   UNL     1      36.725 -24.246 -12.946  0.00  0.00    +0.052 C 
ATOM     18  H   UNL     1      28.883 -23.804 -17.571  0.00  0.00    -0.080 HD
ENDROOT
BRANCH  14  19
ATOM     19  C   UNL     1      35.615 -22.814 -16.191  0.00  0.00    -0.009 C 
ATOM     20  C   UNL     1      34.550 -22.947 -17.081  0.00  0.00    +0.033 C 
ATOM     21  C   UNL     1      36.740 -22.075 -16.554  0.00  0.00    -0.003 C 
ATOM     22  C   UNL     1      34.611 -22.342 -18.335  0.00  0.00    +0.133 C 
ATOM     23  C   UNL     1      36.801 -21.469 -17.810  0.00  0.00    +0.003 C 
ATOM     24  C   UNL     1      35.736 -21.602 -18.700  0.00  0.00    +0.037 C 
BRANCH  22  25
ATOM     25  O   UNL     1      33.571 -22.470 -19.205  0.00  0.00    -0.506 OA
ATOM     26  H   UNL     1      32.901 -23.105 -19.044  0.00  0.00    +0.292 HD
ENDBRANCH  22  25
ENDBRANCH  14  19
BRANCH  17  30
ATOM     27  F   UNL     1      39.079 -24.675 -13.005  0.00  0.00    -0.166 F 
ATOM     28  F   UNL     1      38.346 -23.430 -11.388  0.00  0.00    -0.166 F 
ATOM     29  F   UNL     1      37.937 -25.566 -11.383  0.00  0.00    -0.166 F 
ATOM     30  C   UNL     1      37.995 -24.472 -12.199  0.00  0.00    +0.415 C 
ENDBRANCH  17  30
TORSDOF 3
ENDMDL
MODEL 3
REMARK VINA RESULT:      -9.4      3.066      5.014
REMARK  Name = 25113181
REMARK  3 active torsions:
REMARK  status: ('A' for Active; 'I' for Inactive)
REMARK    1  A    between atoms: C_14  and  C_19
REMARK    2  A    between atoms: C_17  and  C_30
REMARK    3  A    between atoms: C_22  and  O_25
REMARK                            x       y       z     vdW  Elec       q    Type
REMARK                         _______ _______ _______ _____ _____    ______ ____
ROOT
ATOM      1  N   UNL     1      36.530 -24.052 -14.407  0.00  0.00    -0.290 N 
ATOM      2  N   UNL     1      36.954 -25.683 -12.100  0.00  0.00    +0.388 N 
ATOM      3  N   UNL     1      34.942 -23.177 -15.940  0.00  0.00    -0.392 NA
ATOM      4  N   UNL     1      37.029 -22.084 -17.415  0.00  0.00    -0.263 NA
ATOM      5  C   UNL     1      35.553 -24.046 -13.311  0.00  0.00    +0.070 C 
ATOM      6  C   UNL     1      37.373 -25.248 -14.497  0.00  0.00    +0.070 C 
ATOM      7  C   UNL     1      36.227 -24.412 -11.987  0.00  0.00    -0.056 C 
ATOM      8  C   UNL     1      37.989 -25.577 -13.135  0.00  0.00    -0.056 C 
ATOM      9  C   UNL     1      36.224 -23.329 -15.565  0.00  0.00    +0.184 C 
ATOM     10  C   UNL     1      37.548 -26.051 -10.816  0.00  0.00    -0.101 C 
ATOM     11  C   UNL     1      34.696 -22.475 -17.060  0.00  0.00    +0.131 C 
ATOM     12  C   UNL     1      37.253 -22.790 -16.291  0.00  0.00    +0.199 C 
ATOM     13  C   UNL     1      35.752 -21.921 -17.806  0.00  0.00    +0.084 C 
ATOM     14  C   UNL     1      33.387 -22.286 -17.496  0.00  0.00    +0.097 C 
ATOM     15  C   UNL     1      35.461 -21.200 -18.961  0.00  0.00    +0.078 C 
ATOM     16  C   UNL     1      33.106 -21.562 -18.654  0.00  0.00    -0.015 C 
ATOM     17  C   UNL     1      34.147 -21.016 -19.389  0.00  0.00    +0.052 C 
ATOM     18  H   UNL     1      36.296 -26.416 -12.366  0.00  0.00    -0.080 HD
ENDROOT
BRANCH  14  19
ATOM     19  C   UNL     1      32.270 -22.841 -16.750  0.00  0.00    -0.009 C 
ATOM     20  C   UNL     1      30.999 -22.284 -16.879  0.00  0.00    +0.033 C 
ATOM     21  C   UNL     1      32.471 -23.934 -15.908  0.00  0.00    -0.003 C 
ATOM     22  C   UNL     1      29.928 -22.819 -16.164  0.00  0.00    +0.133 C 
ATOM     23  C   UNL     1      31.399 -24.469 -15.192  0.00  0.00    +0.003 C 
ATOM     24  C   UNL     1      30.128 -23.912 -15.320  0.00  0.00    +0.037 C 
BRANCH  22  25
ATOM     25  O   UNL     1      28.686 -22.276 -16.290  0.00  0.00    -0.506 OA
ATOM     26  H   UNL     1      27.970 -22.805 -16.581  0.00  0.00    +0.292 HD
ENDBRANCH  22  25
ENDBRANCH  14  19
BRANCH  17  30
ATOM     27  F   UNL     1      34.067 -18.894 -20.492  0.00  0.00    -0.166 F 
ATOM     28  F   UNL     1      34.634 -20.608 -21.694  0.00  0.00    -0.166 F 
ATOM     29  F   UNL     1      32.571 -20.372 -21.049  0.00  0.00    -0.166 F 
ATOM     30  C   UNL     1      33.864 -20.238 -20.628  0.00  0.00    +0.415 C 
ENDBRANCH  17  30
TORSDOF 3
ENDMDL
MODEL 4
REMARK VINA RESULT:      -9.4      4.101      6.876
REMARK  Name = 25113181
REMARK  3 active torsions:
REMARK  status: ('A' for Active; 'I' for Inactive)
REMARK    1  A    between atoms: C_14  and  C_19
REMARK    2  A    between atoms: C_17  and  C_30
REMARK    3  A    between atoms: C_22  and  O_25
REMARK                            x       y       z     vdW  Elec       q    Type
REMARK                         _______ _______ _______ _____ _____    ______ ____
ROOT
ATOM      1  N   UNL     1      36.316 -21.457 -18.032  0.00  0.00    -0.290 N 
ATOM      2  N   UNL     1      35.544 -19.948 -20.332  0.00  0.00    +0.388 N 
ATOM      3  N   UNL     1      35.588 -22.550 -16.054  0.00  0.00    -0.392 NA
ATOM      4  N   UNL     1      38.243 -23.033 -15.392  0.00  0.00    -0.263 NA
ATOM      5  C   UNL     1      35.059 -21.764 -18.727  0.00  0.00    +0.070 C 
ATOM      6  C   UNL     1      36.832 -20.099 -18.227  0.00  0.00    +0.070 C 
ATOM      7  C   UNL     1      35.144 -21.355 -20.198  0.00  0.00    -0.056 C 
ATOM      8  C   UNL     1      36.859 -19.742 -19.716  0.00  0.00    -0.056 C 
ATOM      9  C   UNL     1      36.596 -22.142 -16.845  0.00  0.00    +0.184 C 
ATOM     10  C   UNL     1      35.569 -19.553 -21.739  0.00  0.00    -0.101 C 
ATOM     11  C   UNL     1      35.905 -23.205 -14.923  0.00  0.00    +0.131 C 
ATOM     12  C   UNL     1      37.905 -22.381 -16.519  0.00  0.00    +0.199 C 
ATOM     13  C   UNL     1      37.249 -23.450 -14.588  0.00  0.00    +0.084 C 
ATOM     14  C   UNL     1      34.901 -23.650 -14.066  0.00  0.00    +0.097 C 
ATOM     15  C   UNL     1      37.541 -24.130 -13.408  0.00  0.00    +0.078 C 
ATOM     16  C   UNL     1      35.204 -24.331 -12.887  0.00  0.00    -0.015 C 
ATOM     17  C   UNL     1      36.529 -24.572 -12.558  0.00  0.00    +0.052 C 
ATOM     18  H   UNL     1      34.859 -19.365 -19.851  0.00  0.00    -0.080 HD
ENDROOT
BRANCH  14  19
ATOM     19  C   UNL     1      33.502 -23.417 -14.379  0.00  0.00    -0.009 C 
ATOM     20  C   UNL     1      33.121 -23.106 -15.684  0.00  0.00    +0.033 C 
ATOM     21  C   UNL     1      32.539 -23.506 -13.374  0.00  0.00    -0.003 C 
ATOM     22  C   UNL     1      31.778 -22.883 -15.983  0.00  0.00    +0.133 C 
ATOM     23  C   UNL     1      31.195 -23.284 -13.674  0.00  0.00    +0.003 C 
ATOM     24  C   UNL     1      30.814 -22.972 -14.979  0.00  0.00    +0.037 C 
BRANCH  22  25
ATOM     25  O   UNL     1      31.405 -22.580 -17.257  0.00  0.00    -0.506 OA
ATOM     26  H   UNL     1      31.265 -21.688 -17.506  0.00  0.00    +0.292 HD
ENDBRANCH  22  25
ENDBRANCH  14  19
BRANCH  17  30
ATOM     27  F   UNL     1      35.871 -25.284 -10.370  0.00  0.00    -0.166 F 
ATOM     28  F   UNL     1      37.154 -26.622 -11.496  0.00  0.00    -0.166 F 
ATOM     29  F   UNL     1      37.965 -24.779 -10.674  0.00  0.00    -0.166 F 
ATOM     30  C   UNL     1      36.870 -25.300 -11.302  0.00  0.00    +0.415 C 
ENDBRANCH  17  30
TORSDOF 3
ENDMDL
