MODEL 1
REMARK VINA RESULT:     -11.1      0.000      0.000
REMARK  Name = 25118925
REMARK  3 active torsions:
REMARK  status: ('A' for Active; 'I' for Inactive)
REMARK    1  A    between atoms: C_3  and  C_12
REMARK    2  A    between atoms: C_5  and  C_24
REMARK    3  A    between atoms: C_27  and  C_33
REMARK                            x       y       z     vdW  Elec       q    Type
REMARK                         _______ _______ _______ _____ _____    ______ ____
ROOT
ATOM      1  N   UNL     1      34.095 -15.724 -24.352  0.00  0.00    -0.279 N 
ATOM      2  N   UNL     1      34.258 -15.730 -22.137  0.00  0.00    -0.394 NA
ATOM      3  C   UNL     1      33.840 -15.057 -23.186  0.00  0.00    +0.160 C 
ATOM      4  C   UNL     1      34.715 -16.898 -24.025  0.00  0.00    +0.152 C 
ATOM      5  C   UNL     1      34.804 -16.879 -22.653  0.00  0.00    +0.130 C 
ATOM      6  C   UNL     1      33.776 -15.285 -25.689  0.00  0.00    +0.115 C 
ENDROOT
BRANCH   3  12
ATOM      7  N   UNL     1      32.631 -11.039 -22.160  0.00  0.00    -0.296 N 
ATOM      8  N   UNL     1      32.243  -8.737 -22.651  0.00  0.00    -0.233 NA
ATOM      9  N   UNL     1      31.798  -8.086 -18.706  0.00  0.00    -0.223 N 
ATOM     10  N   UNL     1      31.793  -7.087 -20.911  0.00  0.00    -0.232 NA
ATOM     11  N   UNL     1      31.973  -9.285 -18.120  0.00  0.00    -0.183 NA
ATOM     12  C   UNL     1      33.155 -13.704 -23.161  0.00  0.00    +0.070 C 
ATOM     13  C   UNL     1      34.144 -12.551 -23.385  0.00  0.00    +0.030 C 
ATOM     14  C   UNL     1      32.381 -13.471 -21.855  0.00  0.00    +0.030 C 
ATOM     15  C   UNL     1      33.428 -11.200 -23.384  0.00  0.00    +0.092 C 
ATOM     16  C   UNL     1      31.678 -12.113 -21.857  0.00  0.00    +0.092 C 
ATOM     17  C   UNL     1      32.354  -9.734 -21.739  0.00  0.00    +0.118 C 
ATOM     18  C   UNL     1      32.187  -9.437 -20.390  0.00  0.00    +0.152 C 
ATOM     19  C   UNL     1      31.916  -8.120 -20.063  0.00  0.00    +0.133 C 
ATOM     20  C   UNL     1      32.209 -10.104 -19.151  0.00  0.00    +0.105 C 
ATOM     21  C   UNL     1      31.973  -7.493 -22.186  0.00  0.00    +0.252 C 
ATOM     22  H   UNL     1      31.603  -7.263 -18.202  0.00  0.00    +0.176 HD
ENDBRANCH   3  12
BRANCH   5  24
ATOM     23  F   UNL     1      37.088 -20.898 -19.564  0.00  0.00    -0.204 F 
ATOM     24  C   UNL     1      35.389 -17.913 -21.858  0.00  0.00    +0.027 C 
ATOM     25  C   UNL     1      34.580 -18.894 -21.283  0.00  0.00    +0.008 C 
ATOM     26  C   UNL     1      36.769 -17.943 -21.658  0.00  0.00    +0.005 C 
ATOM     27  C   UNL     1      35.150 -19.903 -20.508  0.00  0.00    +0.099 C 
ATOM     28  C   UNL     1      37.340 -18.951 -20.882  0.00  0.00    +0.030 C 
ATOM     29  C   UNL     1      36.530 -19.932 -20.307  0.00  0.00    +0.144 C 
BRANCH  27  33
ATOM     30  F   UNL     1      34.654 -22.224 -20.218  0.00  0.00    -0.166 F 
ATOM     31  F   UNL     1      34.273 -20.919 -18.529  0.00  0.00    -0.166 F 
ATOM     32  F   UNL     1      32.978 -20.840 -20.275  0.00  0.00    -0.166 F 
ATOM     33  C   UNL     1      34.284 -20.950 -19.894  0.00  0.00    +0.421 C 
ENDBRANCH  27  33
ENDBRANCH   5  24
TORSDOF 3
ENDMDL
MODEL 2
REMARK VINA RESULT:     -10.6      3.366      5.931
REMARK  Name = 25118925
REMARK  3 active torsions:
REMARK  status: ('A' for Active; 'I' for Inactive)
REMARK    1  A    between atoms: C_3  and  C_12
REMARK    2  A    between atoms: C_5  and  C_24
REMARK    3  A    between atoms: C_27  and  C_33
REMARK                            x       y       z     vdW  Elec       q    Type
REMARK                         _______ _______ _______ _____ _____    ______ ____
ROOT
ATOM      1  N   UNL     1      31.899 -11.297 -20.918  0.00  0.00    -0.279 N 
ATOM      2  N   UNL     1      32.888 -11.376 -22.905  0.00  0.00    -0.394 NA
ATOM      3  C   UNL     1      32.311 -10.596 -22.017  0.00  0.00    +0.160 C 
ATOM      4  C   UNL     1      32.233 -12.607 -21.118  0.00  0.00    +0.152 C 
ATOM      5  C   UNL     1      32.842 -12.631 -22.350  0.00  0.00    +0.130 C 
ATOM      6  C   UNL     1      31.231 -10.768 -19.753  0.00  0.00    +0.115 C 
ENDROOT
BRANCH   3  12
ATOM      7  N   UNL     1      32.094  -6.556 -23.528  0.00  0.00    -0.296 N 
ATOM      8  N   UNL     1      30.966  -4.499 -23.965  0.00  0.00    -0.233 NA
ATOM      9  N   UNL     1      34.080  -3.411 -26.269  0.00  0.00    -0.223 N 
ATOM     10  N   UNL     1      31.916  -2.766 -25.395  0.00  0.00    -0.232 NA
ATOM     11  N   UNL     1      34.945  -4.441 -26.218  0.00  0.00    -0.183 NA
ATOM     12  C   UNL     1      32.104  -9.099 -22.146  0.00  0.00    +0.070 C 
ATOM     13  C   UNL     1      31.029  -8.752 -23.186  0.00  0.00    +0.030 C 
ATOM     14  C   UNL     1      33.407  -8.363 -22.489  0.00  0.00    +0.030 C 
ATOM     15  C   UNL     1      30.818  -7.241 -23.281  0.00  0.00    +0.092 C 
ATOM     16  C   UNL     1      33.185  -6.853 -22.593  0.00  0.00    +0.092 C 
ATOM     17  C   UNL     1      32.042  -5.303 -24.149  0.00  0.00    +0.118 C 
ATOM     18  C   UNL     1      33.084  -4.862 -24.959  0.00  0.00    +0.152 C 
ATOM     19  C   UNL     1      32.949  -3.611 -25.534  0.00  0.00    +0.133 C 
ATOM     20  C   UNL     1      34.333  -5.322 -25.418  0.00  0.00    +0.105 C 
ATOM     21  C   UNL     1      30.970  -3.298 -24.591  0.00  0.00    +0.252 C 
ATOM     22  H   UNL     1      34.247  -2.591 -26.787  0.00  0.00    +0.176 HD
ENDBRANCH   3  12
BRANCH   5  24
ATOM     23  F   UNL     1      34.859 -17.185 -24.820  0.00  0.00    -0.204 F 
ATOM     24  C   UNL     1      33.362 -13.803 -22.983  0.00  0.00    +0.027 C 
ATOM     25  C   UNL     1      34.039 -14.762 -22.229  0.00  0.00    +0.008 C 
ATOM     26  C   UNL     1      33.191 -13.989 -24.355  0.00  0.00    +0.005 C 
ATOM     27  C   UNL     1      34.546 -15.905 -22.846  0.00  0.00    +0.099 C 
ATOM     28  C   UNL     1      33.698 -15.131 -24.973  0.00  0.00    +0.030 C 
ATOM     29  C   UNL     1      34.375 -16.090 -24.218  0.00  0.00    +0.144 C 
BRANCH  27  33
ATOM     30  F   UNL     1      34.672 -18.157 -22.050  0.00  0.00    -0.166 F 
ATOM     31  F   UNL     1      36.549 -17.151 -22.459  0.00  0.00    -0.166 F 
ATOM     32  F   UNL     1      35.370 -16.583 -20.722  0.00  0.00    -0.166 F 
ATOM     33  C   UNL     1      35.269 -16.928 -22.038  0.00  0.00    +0.421 C 
ENDBRANCH  27  33
ENDBRANCH   5  24
TORSDOF 3
ENDMDL
MODEL 3
REMARK VINA RESULT:     -10.6      3.010      5.220
REMARK  Name = 25118925
REMARK  3 active torsions:
REMARK  status: ('A' for Active; 'I' for Inactive)
REMARK    1  A    between atoms: C_3  and  C_12
REMARK    2  A    between atoms: C_5  and  C_24
REMARK    3  A    between atoms: C_27  and  C_33
REMARK                            x       y       z     vdW  Elec       q    Type
REMARK                         _______ _______ _______ _____ _____    ______ ____
ROOT
ATOM      1  N   UNL     1      32.326 -11.092 -22.029  0.00  0.00    -0.279 N 
ATOM      2  N   UNL     1      33.237 -11.777 -23.935  0.00  0.00    -0.394 NA
ATOM      3  C   UNL     1      32.708 -10.756 -23.298  0.00  0.00    +0.160 C 
ATOM      4  C   UNL     1      32.631 -12.412 -21.846  0.00  0.00    +0.152 C 
ATOM      5  C   UNL     1      33.191 -12.812 -23.035  0.00  0.00    +0.130 C 
ATOM      6  C   UNL     1      31.712 -10.227 -21.050  0.00  0.00    +0.115 C 
ENDROOT
BRANCH   3  12
ATOM      7  N   UNL     1      32.159  -6.490 -23.694  0.00  0.00    -0.296 N 
ATOM      8  N   UNL     1      32.750  -4.330 -24.518  0.00  0.00    -0.233 NA
ATOM      9  N   UNL     1      30.091  -2.745 -21.948  0.00  0.00    -0.223 N 
ATOM     10  N   UNL     1      31.726  -2.283 -23.673  0.00  0.00    -0.232 NA
ATOM     11  N   UNL     1      29.555  -3.791 -21.292  0.00  0.00    -0.183 NA
ATOM     12  C   UNL     1      32.521  -9.357 -23.854  0.00  0.00    +0.070 C 
ATOM     13  C   UNL     1      33.673  -8.420 -23.463  0.00  0.00    +0.030 C 
ATOM     14  C   UNL     1      31.185  -8.736 -23.421  0.00  0.00    +0.030 C 
ATOM     15  C   UNL     1      33.479  -7.025 -24.057  0.00  0.00    +0.092 C 
ATOM     16  C   UNL     1      31.003  -7.336 -24.009  0.00  0.00    +0.092 C 
ATOM     17  C   UNL     1      32.011  -5.098 -23.681  0.00  0.00    +0.118 C 
ATOM     18  C   UNL     1      31.109  -4.483 -22.819  0.00  0.00    +0.152 C 
ATOM     19  C   UNL     1      31.027  -3.103 -22.873  0.00  0.00    +0.133 C 
ATOM     20  C   UNL     1      30.179  -4.847 -21.827  0.00  0.00    +0.105 C 
ATOM     21  C   UNL     1      32.564  -2.990 -24.463  0.00  0.00    +0.252 C 
ATOM     22  H   UNL     1      29.833  -1.811 -21.777  0.00  0.00    +0.176 HD
ENDBRANCH   3  12
BRANCH   5  24
ATOM     23  F   UNL     1      35.037 -17.943 -24.122  0.00  0.00    -0.204 F 
ATOM     24  C   UNL     1      33.668 -14.132 -23.312  0.00  0.00    +0.027 C 
ATOM     25  C   UNL     1      34.246 -14.893 -22.296  0.00  0.00    +0.008 C 
ATOM     26  C   UNL     1      33.552 -14.660 -24.598  0.00  0.00    +0.005 C 
ATOM     27  C   UNL     1      34.710 -16.180 -22.566  0.00  0.00    +0.099 C 
ATOM     28  C   UNL     1      34.015 -15.946 -24.869  0.00  0.00    +0.030 C 
ATOM     29  C   UNL     1      34.594 -16.707 -23.853  0.00  0.00    +0.144 C 
BRANCH  27  33
ATOM     30  F   UNL     1      34.664 -18.157 -21.221  0.00  0.00    -0.166 F 
ATOM     31  F   UNL     1      36.615 -17.367 -21.742  0.00  0.00    -0.166 F 
ATOM     32  F   UNL     1      35.376 -16.326 -20.288  0.00  0.00    -0.166 F 
ATOM     33  C   UNL     1      35.329 -16.992 -21.479  0.00  0.00    +0.421 C 
ENDBRANCH  27  33
ENDBRANCH   5  24
TORSDOF 3
ENDMDL
MODEL 4
REMARK VINA RESULT:     -10.3      3.708      6.113
REMARK  Name = 25118925
REMARK  3 active torsions:
REMARK  status: ('A' for Active; 'I' for Inactive)
REMARK    1  A    between atoms: C_3  and  C_12
REMARK    2  A    between atoms: C_5  and  C_24
REMARK    3  A    between atoms: C_27  and  C_33
REMARK                            x       y       z     vdW  Elec       q    Type
REMARK                         _______ _______ _______ _____ _____    ______ ____
ROOT
ATOM      1  N   UNL     1      31.640 -11.044 -20.195  0.00  0.00    -0.279 N 
ATOM      2  N   UNL     1      32.930 -11.394 -21.969  0.00  0.00    -0.394 NA
ATOM      3  C   UNL     1      32.183 -10.518 -21.334  0.00  0.00    +0.160 C 
ATOM      4  C   UNL     1      32.069 -12.339 -20.097  0.00  0.00    +0.152 C 
ATOM      5  C   UNL     1      32.863 -12.531 -21.203  0.00  0.00    +0.130 C 
ATOM      6  C   UNL     1      30.772 -10.372 -19.258  0.00  0.00    +0.115 C 
ENDROOT
BRANCH   3  12
ATOM      7  N   UNL     1      32.075  -6.812 -23.551  0.00  0.00    -0.296 N 
ATOM      8  N   UNL     1      30.955  -4.972 -24.577  0.00  0.00    -0.233 NA
ATOM      9  N   UNL     1      34.440  -3.969 -26.320  0.00  0.00    -0.223 N 
ATOM     10  N   UNL     1      32.100  -3.406 -26.057  0.00  0.00    -0.232 NA
ATOM     11  N   UNL     1      35.330  -4.889 -25.904  0.00  0.00    -0.183 NA
ATOM     12  C   UNL     1      31.922  -9.088 -21.769  0.00  0.00    +0.070 C 
ATOM     13  C   UNL     1      31.092  -9.018 -23.059  0.00  0.00    +0.030 C 
ATOM     14  C   UNL     1      33.223  -8.293 -21.952  0.00  0.00    +0.030 C 
ATOM     15  C   UNL     1      30.818  -7.570 -23.463  0.00  0.00    +0.092 C 
ATOM     16  C   UNL     1      32.942  -6.849 -22.368  0.00  0.00    +0.092 C 
ATOM     17  C   UNL     1      32.090  -5.686 -24.382  0.00  0.00    +0.118 C 
ATOM     18  C   UNL     1      33.261  -5.282 -25.016  0.00  0.00    +0.152 C 
ATOM     19  C   UNL     1      33.186  -4.158 -25.819  0.00  0.00    +0.133 C 
ATOM     20  C   UNL     1      34.606  -5.685 -25.109  0.00  0.00    +0.105 C 
ATOM     21  C   UNL     1      31.030  -3.891 -25.390  0.00  0.00    +0.252 C 
ATOM     22  H   UNL     1      34.671  -3.231 -26.928  0.00  0.00    +0.176 HD
ENDBRANCH   3  12
BRANCH   5  24
ATOM     23  F   UNL     1      35.483 -17.276 -22.441  0.00  0.00    -0.204 F 
ATOM     24  C   UNL     1      33.535 -13.752 -21.524  0.00  0.00    +0.027 C 
ATOM     25  C   UNL     1      33.553 -14.214 -22.840  0.00  0.00    +0.008 C 
ATOM     26  C   UNL     1      34.176 -14.479 -20.521  0.00  0.00    +0.005 C 
ATOM     27  C   UNL     1      34.209 -15.404 -23.153  0.00  0.00    +0.099 C 
ATOM     28  C   UNL     1      34.832 -15.669 -20.833  0.00  0.00    +0.030 C 
ATOM     29  C   UNL     1      34.849 -16.131 -22.150  0.00  0.00    +0.144 C 
BRANCH  27  33
ATOM     30  F   UNL     1      33.587 -17.093 -24.728  0.00  0.00    -0.166 F 
ATOM     31  F   UNL     1      33.625 -15.046 -25.445  0.00  0.00    -0.166 F 
ATOM     32  F   UNL     1      35.491 -16.088 -25.036  0.00  0.00    -0.166 F 
ATOM     33  C   UNL     1      34.225 -15.897 -24.561  0.00  0.00    +0.421 C 
ENDBRANCH  27  33
ENDBRANCH   5  24
TORSDOF 3
ENDMDL
MODEL 5
REMARK VINA RESULT:      -9.9      3.308      5.400
REMARK  Name = 25118925
REMARK  3 active torsions:
REMARK  status: ('A' for Active; 'I' for Inactive)
REMARK    1  A    between atoms: C_3  and  C_12
REMARK    2  A    between atoms: C_5  and  C_24
REMARK    3  A    between atoms: C_27  and  C_33
REMARK                            x       y       z     vdW  Elec       q    Type
REMARK                         _______ _______ _______ _____ _____    ______ ____
ROOT
ATOM      1  N   UNL     1      31.974 -11.012 -21.228  0.00  0.00    -0.279 N 
ATOM      2  N   UNL     1      33.259 -11.814 -22.852  0.00  0.00    -0.394 NA
ATOM      3  C   UNL     1      32.542 -10.787 -22.451  0.00  0.00    +0.160 C 
ATOM      4  C   UNL     1      32.353 -12.262 -20.824  0.00  0.00    +0.152 C 
ATOM      5  C   UNL     1      33.145 -12.736 -21.842  0.00  0.00    +0.130 C 
ATOM      6  C   UNL     1      31.127 -10.109 -20.487  0.00  0.00    +0.115 C 
ENDROOT
BRANCH   3  12
ATOM      7  N   UNL     1      32.041  -6.626 -23.493  0.00  0.00    -0.296 N 
ATOM      8  N   UNL     1      32.605  -4.645 -24.697  0.00  0.00    -0.233 NA
ATOM      9  N   UNL     1      30.182  -2.589 -22.230  0.00  0.00    -0.223 N 
ATOM     10  N   UNL     1      31.687  -2.459 -24.123  0.00  0.00    -0.232 NA
ATOM     11  N   UNL     1      29.680  -3.499 -21.376  0.00  0.00    -0.183 NA
ATOM     12  C   UNL     1      32.338  -9.491 -23.212  0.00  0.00    +0.070 C 
ATOM     13  C   UNL     1      33.534  -8.539 -23.064  0.00  0.00    +0.030 C 
ATOM     14  C   UNL     1      31.051  -8.769 -22.789  0.00  0.00    +0.030 C 
ATOM     15  C   UNL     1      33.319  -7.252 -23.859  0.00  0.00    +0.092 C 
ATOM     16  C   UNL     1      30.849  -7.476 -23.581  0.00  0.00    +0.092 C 
ATOM     17  C   UNL     1      31.919  -5.246 -23.695  0.00  0.00    +0.118 C 
ATOM     18  C   UNL     1      31.098  -4.474 -22.880  0.00  0.00    +0.152 C 
ATOM     19  C   UNL     1      31.037  -3.118 -23.151  0.00  0.00    +0.133 C 
ATOM     20  C   UNL     1      30.241  -4.645 -21.776  0.00  0.00    +0.105 C 
ATOM     21  C   UNL     1      32.448  -3.308 -24.846  0.00  0.00    +0.252 C 
ATOM     22  H   UNL     1      29.954  -1.632 -22.194  0.00  0.00    +0.176 HD
ENDBRANCH   3  12
BRANCH   5  24
ATOM     23  F   UNL     1      35.590 -17.729 -21.897  0.00  0.00    -0.204 F 
ATOM     24  C   UNL     1      33.773 -14.021 -21.859  0.00  0.00    +0.027 C 
ATOM     25  C   UNL     1      33.844 -14.748 -23.047  0.00  0.00    +0.008 C 
ATOM     26  C   UNL     1      34.316 -14.547 -20.687  0.00  0.00    +0.005 C 
ATOM     27  C   UNL     1      34.457 -16.000 -23.064  0.00  0.00    +0.099 C 
ATOM     28  C   UNL     1      34.928 -15.800 -20.702  0.00  0.00    +0.030 C 
ATOM     29  C   UNL     1      34.999 -16.526 -21.891  0.00  0.00    +0.144 C 
BRANCH  27  33
ATOM     30  F   UNL     1      33.436 -16.619 -25.136  0.00  0.00    -0.166 F 
ATOM     31  F   UNL     1      35.597 -16.439 -25.120  0.00  0.00    -0.166 F 
ATOM     32  F   UNL     1      34.641 -18.120 -24.125  0.00  0.00    -0.166 F 
ATOM     33  C   UNL     1      34.532 -16.776 -24.335  0.00  0.00    +0.421 C 
ENDBRANCH  27  33
ENDBRANCH   5  24
TORSDOF 3
ENDMDL
MODEL 6
REMARK VINA RESULT:      -9.7      6.315     11.237
REMARK  Name = 25118925
REMARK  3 active torsions:
REMARK  status: ('A' for Active; 'I' for Inactive)
REMARK    1  A    between atoms: C_3  and  C_12
REMARK    2  A    between atoms: C_5  and  C_24
REMARK    3  A    between atoms: C_27  and  C_33
REMARK                            x       y       z     vdW  Elec       q    Type
REMARK                         _______ _______ _______ _____ _____    ______ ____
ROOT
ATOM      1  N   UNL     1      35.945 -20.556 -19.891  0.00  0.00    -0.279 N 
ATOM      2  N   UNL     1      34.013 -19.705 -20.583  0.00  0.00    -0.394 NA
ATOM      3  C   UNL     1      34.582 -20.654 -19.871  0.00  0.00    +0.160 C 
ATOM      4  C   UNL     1      36.267 -19.475 -20.664  0.00  0.00    +0.152 C 
ATOM      5  C   UNL     1      35.059 -18.967 -21.079  0.00  0.00    +0.130 C 
ATOM      6  C   UNL     1      36.886 -21.424 -19.225  0.00  0.00    +0.115 C 
ENDROOT
BRANCH   3  12
ATOM      7  N   UNL     1      32.886 -23.091 -16.734  0.00  0.00    -0.296 N 
ATOM      8  N   UNL     1      31.090 -24.230 -15.652  0.00  0.00    -0.233 NA
ATOM      9  N   UNL     1      33.489 -24.752 -12.465  0.00  0.00    -0.223 N 
ATOM     10  N   UNL     1      31.291 -25.149 -13.402  0.00  0.00    -0.232 NA
ATOM     11  N   UNL     1      34.659 -24.174 -12.795  0.00  0.00    -0.183 NA
ATOM     12  C   UNL     1      33.860 -21.746 -19.105  0.00  0.00    +0.070 C 
ATOM     13  C   UNL     1      32.671 -21.200 -18.300  0.00  0.00    +0.030 C 
ATOM     14  C   UNL     1      34.804 -22.515 -18.168  0.00  0.00    +0.030 C 
ATOM     15  C   UNL     1      31.943 -22.321 -17.558  0.00  0.00    +0.092 C 
ATOM     16  C   UNL     1      34.066 -23.627 -17.421  0.00  0.00    +0.092 C 
ATOM     17  C   UNL     1      32.364 -23.771 -15.627  0.00  0.00    +0.118 C 
ATOM     18  C   UNL     1      33.139 -23.987 -14.492  0.00  0.00    +0.152 C 
ATOM     19  C   UNL     1      32.544 -24.668 -13.444  0.00  0.00    +0.133 C 
ATOM     20  C   UNL     1      34.439 -23.711 -14.031  0.00  0.00    +0.105 C 
ATOM     21  C   UNL     1      30.639 -24.882 -14.554  0.00  0.00    +0.252 C 
ATOM     22  H   UNL     1      33.330 -25.193 -11.600  0.00  0.00    +0.176 HD
ENDBRANCH   3  12
BRANCH   5  24
ATOM     23  F   UNL     1      34.442 -14.519 -24.357  0.00  0.00    -0.204 F 
ATOM     24  C   UNL     1      34.899 -17.822 -21.920  0.00  0.00    +0.027 C 
ATOM     25  C   UNL     1      34.708 -16.561 -21.354  0.00  0.00    +0.008 C 
ATOM     26  C   UNL     1      34.936 -17.964 -23.307  0.00  0.00    +0.005 C 
ATOM     27  C   UNL     1      34.553 -15.444 -22.174  0.00  0.00    +0.099 C 
ATOM     28  C   UNL     1      34.781 -16.848 -24.128  0.00  0.00    +0.030 C 
ATOM     29  C   UNL     1      34.590 -15.587 -23.561  0.00  0.00    +0.144 C 
BRANCH  27  33
ATOM     30  F   UNL     1      34.891 -13.080 -22.298  0.00  0.00    -0.166 F 
ATOM     31  F   UNL     1      33.034 -13.762 -21.411  0.00  0.00    -0.166 F 
ATOM     32  F   UNL     1      34.904 -13.991 -20.325  0.00  0.00    -0.166 F 
ATOM     33  C   UNL     1      34.349 -14.098 -21.567  0.00  0.00    +0.421 C 
ENDBRANCH  27  33
ENDBRANCH   5  24
TORSDOF 3
ENDMDL
MODEL 7
REMARK VINA RESULT:      -9.2      6.086     10.899
REMARK  Name = 25118925
REMARK  3 active torsions:
REMARK  status: ('A' for Active; 'I' for Inactive)
REMARK    1  A    between atoms: C_3  and  C_12
REMARK    2  A    between atoms: C_5  and  C_24
REMARK    3  A    between atoms: C_27  and  C_33
REMARK                            x       y       z     vdW  Elec       q    Type
REMARK                         _______ _______ _______ _____ _____    ______ ____
ROOT
ATOM      1  N   UNL     1      32.352 -11.737 -21.987  0.00  0.00    -0.279 N 
ATOM      2  N   UNL     1      33.092 -10.651 -23.778  0.00  0.00    -0.394 NA
ATOM      3  C   UNL     1      33.061 -11.808 -23.154  0.00  0.00    +0.160 C 
ATOM      4  C   UNL     1      31.901 -10.452 -21.859  0.00  0.00    +0.152 C 
ATOM      5  C   UNL     1      32.371  -9.802 -22.976  0.00  0.00    +0.130 C 
ATOM      6  C   UNL     1      32.113 -12.809 -21.051  0.00  0.00    +0.115 C 
ENDROOT
BRANCH   3  12
ATOM      7  N   UNL     1      34.232 -15.941 -23.607  0.00  0.00    -0.296 N 
ATOM      8  N   UNL     1      34.538 -17.946 -24.863  0.00  0.00    -0.233 NA
ATOM      9  N   UNL     1      35.194 -19.883 -21.398  0.00  0.00    -0.223 N 
ATOM     10  N   UNL     1      35.048 -20.085 -23.807  0.00  0.00    -0.232 NA
ATOM     11  N   UNL     1      35.080 -18.949 -20.435  0.00  0.00    -0.183 NA
ATOM     12  C   UNL     1      33.715 -13.093 -23.626  0.00  0.00    +0.070 C 
ATOM     13  C   UNL     1      32.688 -14.102 -24.161  0.00  0.00    +0.030 C 
ATOM     14  C   UNL     1      34.556 -13.752 -22.523  0.00  0.00    +0.030 C 
ATOM     15  C   UNL     1      33.370 -15.377 -24.655  0.00  0.00    +0.092 C 
ATOM     16  C   UNL     1      35.226 -15.033 -23.022  0.00  0.00    +0.092 C 
ATOM     17  C   UNL     1      34.503 -17.312 -23.666  0.00  0.00    +0.118 C 
ATOM     18  C   UNL     1      34.740 -18.044 -22.506  0.00  0.00    +0.152 C 
ATOM     19  C   UNL     1      34.998 -19.396 -22.656  0.00  0.00    +0.133 C 
ATOM     20  C   UNL     1      34.804 -17.832 -21.116  0.00  0.00    +0.105 C 
ATOM     21  C   UNL     1      34.804 -19.274 -24.859  0.00  0.00    +0.252 C 
ATOM     22  H   UNL     1      35.398 -20.828 -21.212  0.00  0.00    +0.176 HD
ENDBRANCH   3  12
BRANCH   5  24
ATOM     23  F   UNL     1      31.496  -4.437 -24.145  0.00  0.00    -0.204 F 
ATOM     24  C   UNL     1      32.145  -8.422 -23.274  0.00  0.00    +0.027 C 
ATOM     25  C   UNL     1      32.068  -7.488 -22.240  0.00  0.00    +0.008 C 
ATOM     26  C   UNL     1      32.004  -8.008 -24.599  0.00  0.00    +0.005 C 
ATOM     27  C   UNL     1      31.849  -6.142 -22.531  0.00  0.00    +0.099 C 
ATOM     28  C   UNL     1      31.784  -6.663 -24.890  0.00  0.00    +0.030 C 
ATOM     29  C   UNL     1      31.707  -5.729 -23.856  0.00  0.00    +0.144 C 
BRANCH  27  33
ATOM     30  F   UNL     1      32.353  -3.948 -21.722  0.00  0.00    -0.166 F 
ATOM     31  F   UNL     1      30.486  -4.834 -21.065  0.00  0.00    -0.166 F 
ATOM     32  F   UNL     1      32.374  -5.577 -20.282  0.00  0.00    -0.166 F 
ATOM     33  C   UNL     1      31.766  -5.145 -21.425  0.00  0.00    +0.421 C 
ENDBRANCH  27  33
ENDBRANCH   5  24
TORSDOF 3
ENDMDL
MODEL 8
REMARK VINA RESULT:      -9.0      6.182     10.944
REMARK  Name = 25118925
REMARK  3 active torsions:
REMARK  status: ('A' for Active; 'I' for Inactive)
REMARK    1  A    between atoms: C_3  and  C_12
REMARK    2  A    between atoms: C_5  and  C_24
REMARK    3  A    between atoms: C_27  and  C_33
REMARK                            x       y       z     vdW  Elec       q    Type
REMARK                         _______ _______ _______ _____ _____    ______ ____
ROOT
ATOM      1  N   UNL     1      32.290 -11.516 -21.657  0.00  0.00    -0.279 N 
ATOM      2  N   UNL     1      33.298 -10.303 -23.222  0.00  0.00    -0.394 NA
ATOM      3  C   UNL     1      33.110 -11.517 -22.751  0.00  0.00    +0.160 C 
ATOM      4  C   UNL     1      31.933 -10.219 -21.414  0.00  0.00    +0.152 C 
ATOM      5  C   UNL     1      32.567  -9.490 -22.392  0.00  0.00    +0.130 C 
ATOM      6  C   UNL     1      31.870 -12.662 -20.888  0.00  0.00    +0.115 C 
ENDROOT
BRANCH   3  12
ATOM      7  N   UNL     1      34.192 -15.645 -23.420  0.00  0.00    -0.296 N 
ATOM      8  N   UNL     1      34.361 -17.618 -24.751  0.00  0.00    -0.233 NA
ATOM      9  N   UNL     1      35.312 -19.653 -21.414  0.00  0.00    -0.223 N 
ATOM     10  N   UNL     1      34.944 -19.789 -23.803  0.00  0.00    -0.232 NA
ATOM     11  N   UNL     1      35.296 -18.745 -20.420  0.00  0.00    -0.183 NA
ATOM     12  C   UNL     1      33.704 -12.793 -23.315  0.00  0.00    +0.070 C 
ATOM     13  C   UNL     1      32.623 -13.779 -23.780  0.00  0.00    +0.030 C 
ATOM     14  C   UNL     1      34.636 -13.489 -22.312  0.00  0.00    +0.030 C 
ATOM     15  C   UNL     1      33.244 -15.046 -24.369  0.00  0.00    +0.092 C 
ATOM     16  C   UNL     1      35.244 -14.761 -22.905  0.00  0.00    +0.092 C 
ATOM     17  C   UNL     1      34.442 -17.016 -23.539  0.00  0.00    +0.118 C 
ATOM     18  C   UNL     1      34.777 -17.782 -22.426  0.00  0.00    +0.152 C 
ATOM     19  C   UNL     1      35.007 -19.130 -22.635  0.00  0.00    +0.133 C 
ATOM     20  C   UNL     1      34.971 -17.607 -21.043  0.00  0.00    +0.105 C 
ATOM     21  C   UNL     1      34.613 -18.947 -24.807  0.00  0.00    +0.252 C 
ATOM     22  H   UNL     1      35.522 -20.604 -21.273  0.00  0.00    +0.176 HD
ENDBRANCH   3  12
BRANCH   5  24
ATOM     23  F   UNL     1      32.243  -3.967 -22.941  0.00  0.00    -0.204 F 
ATOM     24  C   UNL     1      32.485  -8.070 -22.536  0.00  0.00    +0.027 C 
ATOM     25  C   UNL     1      32.625  -7.486 -23.795  0.00  0.00    +0.008 C 
ATOM     26  C   UNL     1      32.262  -7.267 -21.417  0.00  0.00    +0.005 C 
ATOM     27  C   UNL     1      32.544  -6.101 -23.936  0.00  0.00    +0.099 C 
ATOM     28  C   UNL     1      32.181  -5.882 -21.556  0.00  0.00    +0.030 C 
ATOM     29  C   UNL     1      32.322  -5.299 -22.816  0.00  0.00    +0.144 C 
BRANCH  27  33
ATOM     30  F   UNL     1      32.933  -6.383 -26.278  0.00  0.00    -0.166 F 
ATOM     31  F   UNL     1      31.594  -4.783 -25.690  0.00  0.00    -0.166 F 
ATOM     32  F   UNL     1      33.732  -4.593 -25.338  0.00  0.00    -0.166 F 
ATOM     33  C   UNL     1      32.695  -5.479 -25.282  0.00  0.00    +0.421 C 
ENDBRANCH  27  33
ENDBRANCH   5  24
TORSDOF 3
ENDMDL
MODEL 9
REMARK VINA RESULT:      -8.4      7.096     12.124
REMARK  Name = 25118925
REMARK  3 active torsions:
REMARK  status: ('A' for Active; 'I' for Inactive)
REMARK    1  A    between atoms: C_3  and  C_12
REMARK    2  A    between atoms: C_5  and  C_24
REMARK    3  A    between atoms: C_27  and  C_33
REMARK                            x       y       z     vdW  Elec       q    Type
REMARK                         _______ _______ _______ _____ _____    ______ ____
ROOT
ATOM      1  N   UNL     1      33.515 -21.522 -18.656  0.00  0.00    -0.279 N 
ATOM      2  N   UNL     1      35.478 -20.926 -19.507  0.00  0.00    -0.394 NA
ATOM      3  C   UNL     1      34.870 -21.704 -18.639  0.00  0.00    +0.160 C 
ATOM      4  C   UNL     1      33.242 -20.567 -19.595  0.00  0.00    +0.152 C 
ATOM      5  C   UNL     1      34.468 -20.215 -20.106  0.00  0.00    +0.130 C 
ATOM      6  C   UNL     1      32.538 -22.203 -17.840  0.00  0.00    +0.115 C 
ENDROOT
BRANCH   3  12
ATOM      7  N   UNL     1      36.271 -23.819 -15.143  0.00  0.00    -0.296 N 
ATOM      8  N   UNL     1      36.534 -25.767 -13.790  0.00  0.00    -0.233 NA
ATOM      9  N   UNL     1      37.854 -23.392 -10.823  0.00  0.00    -0.223 N 
ATOM     10  N   UNL     1      37.361 -25.665 -11.497  0.00  0.00    -0.232 NA
ATOM     11  N   UNL     1      37.817 -22.141 -11.318  0.00  0.00    -0.183 NA
ATOM     12  C   UNL     1      35.541 -22.698 -17.710  0.00  0.00    +0.070 C 
ATOM     13  C   UNL     1      34.524 -23.457 -16.844  0.00  0.00    +0.030 C 
ATOM     14  C   UNL     1      36.587 -22.029 -16.806  0.00  0.00    +0.030 C 
ATOM     15  C   UNL     1      35.219 -24.471 -15.935  0.00  0.00    +0.092 C 
ATOM     16  C   UNL     1      37.269 -23.049 -15.893  0.00  0.00    +0.092 C 
ATOM     17  C   UNL     1      36.633 -24.423 -13.933  0.00  0.00    +0.118 C 
ATOM     18  C   UNL     1      37.099 -23.662 -12.866  0.00  0.00    +0.152 C 
ATOM     19  C   UNL     1      37.434 -24.341 -11.707  0.00  0.00    +0.133 C 
ATOM     20  C   UNL     1      37.357 -22.312 -12.562  0.00  0.00    +0.105 C 
ATOM     21  C   UNL     1      36.899 -26.296 -12.598  0.00  0.00    +0.252 C 
ATOM     22  H   UNL     1      38.156 -23.602  -9.911  0.00  0.00    +0.176 HD
ENDBRANCH   3  12
BRANCH   5  24
ATOM     23  F   UNL     1      35.289 -16.418 -24.084  0.00  0.00    -0.204 F 
ATOM     24  C   UNL     1      34.678 -19.236 -21.127  0.00  0.00    +0.027 C 
ATOM     25  C   UNL     1      34.588 -17.878 -20.822  0.00  0.00    +0.008 C 
ATOM     26  C   UNL     1      34.976 -19.640 -22.429  0.00  0.00    +0.005 C 
ATOM     27  C   UNL     1      34.794 -16.924 -21.818  0.00  0.00    +0.099 C 
ATOM     28  C   UNL     1      35.181 -18.687 -23.426  0.00  0.00    +0.030 C 
ATOM     29  C   UNL     1      35.090 -17.328 -23.120  0.00  0.00    +0.144 C 
BRANCH  27  33
ATOM     30  F   UNL     1      35.411 -14.672 -22.335  0.00  0.00    -0.166 F 
ATOM     31  F   UNL     1      33.420 -14.987 -21.535  0.00  0.00    -0.166 F 
ATOM     32  F   UNL     1      35.155 -15.185 -20.237  0.00  0.00    -0.166 F 
ATOM     33  C   UNL     1      34.696 -15.472 -21.490  0.00  0.00    +0.421 C 
ENDBRANCH  27  33
ENDBRANCH   5  24
TORSDOF 3
ENDMDL
