MODEL 1
REMARK VINA RESULT:     -11.9      0.000      0.000
REMARK  Name = 46937030
REMARK  7 active torsions:
REMARK  status: ('A' for Active; 'I' for Inactive)
REMARK    1  A    between atoms: C_3  and  C_10
REMARK    2  A    between atoms: C_7  and  C_25
REMARK    3  A    between atoms: N_9  and  C_12
REMARK    4  A    between atoms: C_12  and  C_13
REMARK    5  A    between atoms: C_18  and  C_21
REMARK    6  A    between atoms: C_25  and  N_26
REMARK    7  A    between atoms: N_26  and  C_29
REMARK                            x       y       z     vdW  Elec       q    Type
REMARK                         _______ _______ _______ _____ _____    ______ ____
ROOT
ATOM      1  O   UNL     1      35.431 -25.380 -11.415  0.00  0.00    -0.277 OA
ATOM      2  N   UNL     1      36.167 -24.195 -13.257  0.00  0.00    -0.275 N 
ATOM      3  C   UNL     1      36.045 -23.149 -14.271  0.00  0.00    +0.152 C 
ATOM      4  C   UNL     1      37.484 -22.825 -14.658  0.00  0.00    +0.031 C 
ATOM      5  C   UNL     1      37.525 -24.719 -13.206  0.00  0.00    +0.094 C 
ATOM      6  C   UNL     1      38.219 -24.143 -14.430  0.00  0.00    +0.024 C 
ATOM      7  C   UNL     1      35.213 -24.583 -12.329  0.00  0.00    +0.204 C 
ENDROOT
BRANCH   3  10
ATOM      8  O   UNL     1      35.109 -24.928 -15.558  0.00  0.00    -0.273 OA
ATOM      9  N   UNL     1      34.889 -22.741 -16.327  0.00  0.00    -0.299 N 
ATOM     10  C   UNL     1      35.297 -23.720 -15.437  0.00  0.00    +0.241 C 
ATOM     11  H   UNL     1      35.099 -21.802 -16.120  0.00  0.00    +0.150 HD
BRANCH   9  12
ATOM     12  C   UNL     1      34.168 -23.031 -17.546  0.00  0.00    +0.116 C 
BRANCH  12  13
ATOM     13  C   UNL     1      34.381 -21.973 -18.589  0.00  0.00    -0.003 C 
ATOM     14  C   UNL     1      35.676 -21.609 -18.959  0.00  0.00    -0.003 C 
ATOM     15  C   UNL     1      33.284 -21.352 -19.188  0.00  0.00    -0.003 C 
ATOM     16  C   UNL     1      35.874 -20.626 -19.929  0.00  0.00    +0.002 C 
ATOM     17  C   UNL     1      33.483 -20.369 -20.157  0.00  0.00    +0.002 C 
ATOM     18  C   UNL     1      34.778 -20.006 -20.528  0.00  0.00    +0.031 C 
BRANCH  18  21
ATOM     19  N   UNL     1      35.396 -17.695 -21.194  0.00  0.00    -0.343 N 
ATOM     20  N   UNL     1      34.775 -19.262 -22.813  0.00  0.00    -0.285 NA
ATOM     21  C   UNL     1      34.984 -18.981 -21.539  0.00  0.00    +0.117 C 
ATOM     22  H   UNL     1      35.529 -17.017 -21.895  0.00  0.00    +0.144 HD
ATOM     23  H   UNL     1      35.553 -17.465 -20.250  0.00  0.00    +0.144 HD
ATOM     24  H   UNL     1      34.914 -18.569 -23.499  0.00  0.00    +0.188 HD
ENDBRANCH  18  21
ENDBRANCH  12  13
ENDBRANCH   9  12
ENDBRANCH   3  10
BRANCH   7  25
ATOM     25  C   UNL     1      33.845 -23.968 -12.488  0.00  0.00    +0.006 C 
BRANCH  25  26
ATOM     26  N   UNL     1      33.038 -24.916 -13.238  0.00  0.00    +0.391 N 
ATOM     27  H   UNL     1      33.306 -24.880 -14.222  0.00  0.00    -0.084 HD
ATOM     28  H   UNL     1      33.195 -25.851 -12.864  0.00  0.00    -0.084 HD
BRANCH  26  29
ATOM     29  C   UNL     1      31.613 -24.590 -13.115  0.00  0.00    -0.061 C 
ATOM     30  C   UNL     1      31.387 -23.088 -13.332  0.00  0.00    -0.021 C 
ATOM     31  C   UNL     1      30.806 -25.548 -14.005  0.00  0.00    -0.021 C 
ATOM     32  C   UNL     1      29.322 -25.202 -14.141  0.00  0.00    -0.002 C 
ATOM     33  C   UNL     1      31.747 -22.508 -14.700  0.00  0.00    -0.002 C 
ATOM     34  C   UNL     1      28.942 -24.549 -15.472  0.00  0.00    -0.000 C 
ATOM     35  C   UNL     1      30.967 -23.019 -15.911  0.00  0.00    -0.000 C 
ATOM     36  C   UNL     1      29.454 -23.126 -15.713  0.00  0.00    -0.000 C 
ENDBRANCH  26  29
ENDBRANCH  25  26
ENDBRANCH   7  25
TORSDOF 7
ENDMDL
MODEL 2
REMARK VINA RESULT:     -10.5      2.168      6.613
REMARK  Name = 46937030
REMARK  7 active torsions:
REMARK  status: ('A' for Active; 'I' for Inactive)
REMARK    1  A    between atoms: C_3  and  C_10
REMARK    2  A    between atoms: C_7  and  C_25
REMARK    3  A    between atoms: N_9  and  C_12
REMARK    4  A    between atoms: C_12  and  C_13
REMARK    5  A    between atoms: C_18  and  C_21
REMARK    6  A    between atoms: C_25  and  N_26
REMARK    7  A    between atoms: N_26  and  C_29
REMARK                            x       y       z     vdW  Elec       q    Type
REMARK                         _______ _______ _______ _____ _____    ______ ____
ROOT
ATOM      1  O   UNL     1      38.067 -22.438 -15.819  0.00  0.00    -0.277 OA
ATOM      2  N   UNL     1      37.141 -24.285 -14.786  0.00  0.00    -0.275 N 
ATOM      3  C   UNL     1      36.084 -25.275 -14.581  0.00  0.00    +0.152 C 
ATOM      4  C   UNL     1      36.810 -26.499 -14.031  0.00  0.00    +0.031 C 
ATOM      5  C   UNL     1      38.382 -24.706 -14.150  0.00  0.00    +0.094 C 
ATOM      6  C   UNL     1      38.003 -25.900 -13.290  0.00  0.00    +0.024 C 
ATOM      7  C   UNL     1      37.092 -23.156 -15.587  0.00  0.00    +0.204 C 
ENDROOT
BRANCH   3  10
ATOM      8  O   UNL     1      35.503 -24.023 -12.633  0.00  0.00    -0.273 OA
ATOM      9  N   UNL     1      33.823 -25.125 -13.809  0.00  0.00    -0.299 N 
ATOM     10  C   UNL     1      35.127 -24.726 -13.567  0.00  0.00    +0.241 C 
ATOM     11  H   UNL     1      33.644 -25.691 -14.594  0.00  0.00    +0.150 HD
BRANCH   9  12
ATOM     12  C   UNL     1      32.712 -24.750 -12.964  0.00  0.00    +0.116 C 
BRANCH  12  13
ATOM     13  C   UNL     1      31.503 -24.362 -13.766  0.00  0.00    -0.003 C 
ATOM     14  C   UNL     1      30.429 -25.245 -13.879  0.00  0.00    -0.003 C 
ATOM     15  C   UNL     1      31.454 -23.119 -14.398  0.00  0.00    -0.003 C 
ATOM     16  C   UNL     1      29.305 -24.885 -14.624  0.00  0.00    +0.002 C 
ATOM     17  C   UNL     1      30.331 -22.760 -15.143  0.00  0.00    +0.002 C 
ATOM     18  C   UNL     1      29.257 -23.642 -15.256  0.00  0.00    +0.031 C 
BRANCH  18  21
ATOM     19  N   UNL     1      27.105 -22.428 -15.504  0.00  0.00    -0.343 N 
ATOM     20  N   UNL     1      27.935 -23.726 -17.261  0.00  0.00    -0.285 NA
ATOM     21  C   UNL     1      28.086 -23.266 -16.032  0.00  0.00    +0.117 C 
ATOM     22  H   UNL     1      26.320 -22.187 -16.048  0.00  0.00    +0.144 HD
ATOM     23  H   UNL     1      27.197 -22.078 -14.589  0.00  0.00    +0.144 HD
ATOM     24  H   UNL     1      27.143 -23.473 -17.788  0.00  0.00    +0.188 HD
ENDBRANCH  18  21
ENDBRANCH  12  13
ENDBRANCH   9  12
ENDBRANCH   3  10
BRANCH   7  25
ATOM     25  C   UNL     1      35.749 -22.827 -16.189  0.00  0.00    +0.006 C 
BRANCH  25  26
ATOM     26  N   UNL     1      35.897 -21.564 -16.894  0.00  0.00    +0.391 N 
ATOM     27  H   UNL     1      35.093 -20.970 -16.689  0.00  0.00    -0.084 HD
ATOM     28  H   UNL     1      36.757 -21.113 -16.584  0.00  0.00    -0.084 HD
BRANCH  26  29
ATOM     29  C   UNL     1      35.974 -21.788 -18.341  0.00  0.00    -0.061 C 
ATOM     30  C   UNL     1      34.711 -22.502 -18.840  0.00  0.00    -0.021 C 
ATOM     31  C   UNL     1      36.338 -20.464 -19.030  0.00  0.00    -0.021 C 
ATOM     32  C   UNL     1      36.256 -20.489 -20.557  0.00  0.00    -0.002 C 
ATOM     33  C   UNL     1      33.376 -21.773 -18.684  0.00  0.00    -0.002 C 
ATOM     34  C   UNL     1      35.020 -19.796 -21.137  0.00  0.00    -0.000 C 
ATOM     35  C   UNL     1      33.195 -20.461 -19.446  0.00  0.00    -0.000 C 
ATOM     36  C   UNL     1      33.671 -20.480 -20.899  0.00  0.00    -0.000 C 
ENDBRANCH  26  29
ENDBRANCH  25  26
ENDBRANCH   7  25
TORSDOF 7
ENDMDL
MODEL 3
REMARK VINA RESULT:     -10.1      7.514     13.148
REMARK  Name = 46937030
REMARK  7 active torsions:
REMARK  status: ('A' for Active; 'I' for Inactive)
REMARK    1  A    between atoms: C_3  and  C_10
REMARK    2  A    between atoms: C_7  and  C_25
REMARK    3  A    between atoms: N_9  and  C_12
REMARK    4  A    between atoms: C_12  and  C_13
REMARK    5  A    between atoms: C_18  and  C_21
REMARK    6  A    between atoms: C_25  and  N_26
REMARK    7  A    between atoms: N_26  and  C_29
REMARK                            x       y       z     vdW  Elec       q    Type
REMARK                         _______ _______ _______ _____ _____    ______ ____
ROOT
ATOM      1  O   UNL     1      31.256 -12.090 -22.500  0.00  0.00    -0.277 OA
ATOM      2  N   UNL     1      32.913 -13.403 -21.567  0.00  0.00    -0.275 N 
ATOM      3  C   UNL     1      34.290 -13.880 -21.449  0.00  0.00    +0.152 C 
ATOM      4  C   UNL     1      34.410 -14.343 -20.001  0.00  0.00    +0.031 C 
ATOM      5  C   UNL     1      32.122 -13.795 -20.408  0.00  0.00    +0.094 C 
ATOM      6  C   UNL     1      32.991 -14.786 -19.651  0.00  0.00    +0.024 C 
ATOM      7  C   UNL     1      32.394 -12.561 -22.538  0.00  0.00    +0.204 C 
ENDROOT
BRANCH   3  10
ATOM      8  O   UNL     1      34.003 -15.015 -23.530  0.00  0.00    -0.273 OA
ATOM      9  N   UNL     1      35.158 -16.081 -21.813  0.00  0.00    -0.299 N 
ATOM     10  C   UNL     1      34.462 -15.034 -22.391  0.00  0.00    +0.241 C 
ATOM     11  H   UNL     1      35.479 -15.978 -20.888  0.00  0.00    +0.150 HD
BRANCH   9  12
ATOM     12  C   UNL     1      35.439 -17.320 -22.502  0.00  0.00    +0.116 C 
BRANCH  12  13
ATOM     13  C   UNL     1      35.505 -18.486 -21.557  0.00  0.00    -0.003 C 
ATOM     14  C   UNL     1      36.716 -18.823 -20.951  0.00  0.00    -0.003 C 
ATOM     15  C   UNL     1      34.358 -19.231 -21.287  0.00  0.00    -0.003 C 
ATOM     16  C   UNL     1      36.778 -19.906 -20.074  0.00  0.00    +0.002 C 
ATOM     17  C   UNL     1      34.420 -20.314 -20.409  0.00  0.00    +0.002 C 
ATOM     18  C   UNL     1      35.631 -20.650 -19.802  0.00  0.00    +0.031 C 
BRANCH  18  21
ATOM     19  N   UNL     1      36.653 -21.838 -17.876  0.00  0.00    -0.343 N 
ATOM     20  N   UNL     1      34.837 -22.776 -19.009  0.00  0.00    -0.285 NA
ATOM     21  C   UNL     1      35.695 -21.778 -18.887  0.00  0.00    +0.117 C 
ATOM     22  H   UNL     1      36.678 -22.612 -17.268  0.00  0.00    +0.144 HD
ATOM     23  H   UNL     1      37.303 -21.107 -17.771  0.00  0.00    +0.144 HD
ATOM     24  H   UNL     1      34.879 -23.541 -18.391  0.00  0.00    +0.188 HD
ENDBRANCH  18  21
ENDBRANCH  12  13
ENDBRANCH   9  12
ENDBRANCH   3  10
BRANCH   7  25
ATOM     25  C   UNL     1      33.313 -12.229 -23.687  0.00  0.00    +0.006 C 
BRANCH  25  26
ATOM     26  N   UNL     1      34.259 -11.238 -23.201  0.00  0.00    +0.391 N 
ATOM     27  H   UNL     1      34.080 -11.059 -22.213  0.00  0.00    -0.084 HD
ATOM     28  H   UNL     1      35.206 -11.596 -23.329  0.00  0.00    -0.084 HD
BRANCH  26  29
ATOM     29  C   UNL     1      34.123  -9.984 -23.950  0.00  0.00    -0.061 C 
ATOM     30  C   UNL     1      32.761  -9.337 -23.665  0.00  0.00    -0.021 C 
ATOM     31  C   UNL     1      35.367  -9.119 -23.700  0.00  0.00    -0.021 C 
ATOM     32  C   UNL     1      35.280  -7.694 -24.250  0.00  0.00    -0.002 C 
ATOM     33  C   UNL     1      32.470  -8.903 -22.228  0.00  0.00    -0.002 C 
ATOM     34  C   UNL     1      35.016  -6.620 -23.191  0.00  0.00    -0.000 C 
ATOM     35  C   UNL     1      33.355  -7.813 -21.626  0.00  0.00    -0.000 C 
ATOM     36  C   UNL     1      33.630  -6.618 -22.541  0.00  0.00    -0.000 C 
ENDBRANCH  26  29
ENDBRANCH  25  26
ENDBRANCH   7  25
TORSDOF 7
ENDMDL
MODEL 4
REMARK VINA RESULT:      -9.9      7.829     13.416
REMARK  Name = 46937030
REMARK  7 active torsions:
REMARK  status: ('A' for Active; 'I' for Inactive)
REMARK    1  A    between atoms: C_3  and  C_10
REMARK    2  A    between atoms: C_7  and  C_25
REMARK    3  A    between atoms: N_9  and  C_12
REMARK    4  A    between atoms: C_12  and  C_13
REMARK    5  A    between atoms: C_18  and  C_21
REMARK    6  A    between atoms: C_25  and  N_26
REMARK    7  A    between atoms: N_26  and  C_29
REMARK                            x       y       z     vdW  Elec       q    Type
REMARK                         _______ _______ _______ _____ _____    ______ ____
ROOT
ATOM      1  O   UNL     1      31.408 -11.767 -22.656  0.00  0.00    -0.277 OA
ATOM      2  N   UNL     1      32.993 -13.174 -21.735  0.00  0.00    -0.275 N 
ATOM      3  C   UNL     1      34.339 -13.734 -21.631  0.00  0.00    +0.152 C 
ATOM      4  C   UNL     1      34.449 -14.194 -20.181  0.00  0.00    +0.031 C 
ATOM      5  C   UNL     1      32.194 -13.509 -20.564  0.00  0.00    +0.094 C 
ATOM      6  C   UNL     1      33.011 -14.546 -19.810  0.00  0.00    +0.024 C 
ATOM      7  C   UNL     1      32.515 -12.308 -22.706  0.00  0.00    +0.204 C 
ENDROOT
BRANCH   3  10
ATOM      8  O   UNL     1      33.930 -14.873 -23.689  0.00  0.00    -0.273 OA
ATOM      9  N   UNL     1      35.098 -15.974 -22.003  0.00  0.00    -0.299 N 
ATOM     10  C   UNL     1      34.427 -14.902 -22.566  0.00  0.00    +0.241 C 
ATOM     11  H   UNL     1      35.455 -15.877 -21.090  0.00  0.00    +0.150 HD
BRANCH   9  12
ATOM     12  C   UNL     1      35.300 -17.230 -22.689  0.00  0.00    +0.116 C 
BRANCH  12  13
ATOM     13  C   UNL     1      35.418 -18.381 -21.731  0.00  0.00    -0.003 C 
ATOM     14  C   UNL     1      36.641 -18.656 -21.120  0.00  0.00    -0.003 C 
ATOM     15  C   UNL     1      34.305 -19.174 -21.452  0.00  0.00    -0.003 C 
ATOM     16  C   UNL     1      36.752 -19.725 -20.230  0.00  0.00    +0.002 C 
ATOM     17  C   UNL     1      34.415 -20.242 -20.562  0.00  0.00    +0.002 C 
ATOM     18  C   UNL     1      35.638 -20.517 -19.951  0.00  0.00    +0.031 C 
BRANCH  18  21
ATOM     19  N   UNL     1      36.717 -21.640 -18.017  0.00  0.00    -0.343 N 
ATOM     20  N   UNL     1      34.934 -22.663 -19.128  0.00  0.00    -0.285 NA
ATOM     21  C   UNL     1      35.752 -21.631 -19.023  0.00  0.00    +0.117 C 
ATOM     22  H   UNL     1      36.776 -22.405 -17.400  0.00  0.00    +0.144 HD
ATOM     23  H   UNL     1      37.339 -20.883 -17.924  0.00  0.00    +0.144 HD
ATOM     24  H   UNL     1      35.010 -23.418 -18.501  0.00  0.00    +0.188 HD
ENDBRANCH  18  21
ENDBRANCH  12  13
ENDBRANCH   9  12
ENDBRANCH   3  10
BRANCH   7  25
ATOM     25  C   UNL     1      33.437 -12.040 -23.868  0.00  0.00    +0.006 C 
BRANCH  25  26
ATOM     26  N   UNL     1      34.080 -10.761 -23.615  0.00  0.00    +0.391 N 
ATOM     27  H   UNL     1      34.683 -10.845 -22.796  0.00  0.00    -0.084 HD
ATOM     28  H   UNL     1      34.631 -10.502 -24.433  0.00  0.00    -0.084 HD
BRANCH  26  29
ATOM     29  C   UNL     1      33.078  -9.719 -23.370  0.00  0.00    -0.061 C 
ATOM     30  C   UNL     1      33.637  -8.652 -22.421  0.00  0.00    -0.021 C 
ATOM     31  C   UNL     1      32.532  -9.229 -24.720  0.00  0.00    -0.021 C 
ATOM     32  C   UNL     1      31.626  -7.999 -24.639  0.00  0.00    -0.002 C 
ATOM     33  C   UNL     1      34.849  -7.847 -22.894  0.00  0.00    -0.002 C 
ATOM     34  C   UNL     1      32.292  -6.691 -25.074  0.00  0.00    -0.000 C 
ATOM     35  C   UNL     1      34.672  -6.964 -24.129  0.00  0.00    -0.000 C 
ATOM     36  C   UNL     1      33.387  -6.136 -24.159  0.00  0.00    -0.000 C 
ENDBRANCH  26  29
ENDBRANCH  25  26
ENDBRANCH   7  25
TORSDOF 7
ENDMDL
MODEL 5
REMARK VINA RESULT:      -9.8      1.930      5.083
REMARK  Name = 46937030
REMARK  7 active torsions:
REMARK  status: ('A' for Active; 'I' for Inactive)
REMARK    1  A    between atoms: C_3  and  C_10
REMARK    2  A    between atoms: C_7  and  C_25
REMARK    3  A    between atoms: N_9  and  C_12
REMARK    4  A    between atoms: C_12  and  C_13
REMARK    5  A    between atoms: C_18  and  C_21
REMARK    6  A    between atoms: C_25  and  N_26
REMARK    7  A    between atoms: N_26  and  C_29
REMARK                            x       y       z     vdW  Elec       q    Type
REMARK                         _______ _______ _______ _____ _____    ______ ____
ROOT
ATOM      1  O   UNL     1      32.721 -23.578 -12.825  0.00  0.00    -0.277 OA
ATOM      2  N   UNL     1      33.198 -23.373 -15.076  0.00  0.00    -0.275 N 
ATOM      3  C   UNL     1      33.999 -23.633 -16.271  0.00  0.00    +0.152 C 
ATOM      4  C   UNL     1      33.011 -23.512 -17.427  0.00  0.00    +0.031 C 
ATOM      5  C   UNL     1      31.890 -22.835 -15.430  0.00  0.00    +0.094 C 
ATOM      6  C   UNL     1      31.984 -22.507 -16.911  0.00  0.00    +0.024 C 
ATOM      7  C   UNL     1      33.506 -23.706 -13.767  0.00  0.00    +0.204 C 
ENDROOT
BRANCH   3  10
ATOM      8  O   UNL     1      35.382 -21.900 -15.386  0.00  0.00    -0.273 OA
ATOM      9  N   UNL     1      35.562 -22.445 -17.641  0.00  0.00    -0.299 N 
ATOM     10  C   UNL     1      35.053 -22.571 -16.360  0.00  0.00    +0.241 C 
ATOM     11  H   UNL     1      35.218 -23.044 -18.344  0.00  0.00    +0.150 HD
BRANCH   9  12
ATOM     12  C   UNL     1      36.574 -21.478 -18.000  0.00  0.00    +0.116 C 
BRANCH  12  13
ATOM     13  C   UNL     1      36.184 -20.678 -19.209  0.00  0.00    -0.003 C 
ATOM     14  C   UNL     1      37.101 -19.804 -19.792  0.00  0.00    -0.003 C 
ATOM     15  C   UNL     1      34.904 -20.809 -19.749  0.00  0.00    -0.003 C 
ATOM     16  C   UNL     1      36.739 -19.060 -20.916  0.00  0.00    +0.002 C 
ATOM     17  C   UNL     1      34.542 -20.065 -20.873  0.00  0.00    +0.002 C 
ATOM     18  C   UNL     1      35.460 -19.192 -21.456  0.00  0.00    +0.031 C 
BRANCH  18  21
ATOM     19  N   UNL     1      35.505 -17.100 -22.793  0.00  0.00    -0.343 N 
ATOM     20  N   UNL     1      34.320 -18.962 -23.560  0.00  0.00    -0.285 NA
ATOM     21  C   UNL     1      35.082 -18.418 -22.628  0.00  0.00    +0.117 C 
ATOM     22  H   UNL     1      35.237 -16.594 -23.595  0.00  0.00    +0.144 HD
ATOM     23  H   UNL     1      36.070 -16.674 -22.109  0.00  0.00    +0.144 HD
ATOM     24  H   UNL     1      34.063 -18.440 -24.353  0.00  0.00    +0.188 HD
ENDBRANCH  18  21
ENDBRANCH  12  13
ENDBRANCH   9  12
ENDBRANCH   3  10
BRANCH   7  25
ATOM     25  C   UNL     1      34.891 -24.254 -13.531  0.00  0.00    +0.006 C 
BRANCH  25  26
ATOM     26  N   UNL     1      35.559 -23.341 -12.618  0.00  0.00    +0.391 N 
ATOM     27  H   UNL     1      35.147 -22.412 -12.712  0.00  0.00    -0.084 HD
ATOM     28  H   UNL     1      35.442 -23.684 -11.665  0.00  0.00    -0.084 HD
BRANCH  26  29
ATOM     29  C   UNL     1      36.992 -23.266 -12.921  0.00  0.00    -0.061 C 
ATOM     30  C   UNL     1      37.817 -23.783 -11.736  0.00  0.00    -0.021 C 
ATOM     31  C   UNL     1      37.246 -23.928 -14.284  0.00  0.00    -0.021 C 
ATOM     32  C   UNL     1      38.722 -24.111 -14.645  0.00  0.00    -0.002 C 
ATOM     33  C   UNL     1      37.636 -25.247 -11.331  0.00  0.00    -0.002 C 
ATOM     34  C   UNL     1      39.241 -25.542 -14.488  0.00  0.00    -0.000 C 
ATOM     35  C   UNL     1      38.031 -26.315 -12.349  0.00  0.00    -0.000 C 
ATOM     36  C   UNL     1      39.365 -26.078 -13.059  0.00  0.00    -0.000 C 
ENDBRANCH  26  29
ENDBRANCH  25  26
ENDBRANCH   7  25
TORSDOF 7
ENDMDL
MODEL 6
REMARK VINA RESULT:      -9.6      1.626      2.518
REMARK  Name = 46937030
REMARK  7 active torsions:
REMARK  status: ('A' for Active; 'I' for Inactive)
REMARK    1  A    between atoms: C_3  and  C_10
REMARK    2  A    between atoms: C_7  and  C_25
REMARK    3  A    between atoms: N_9  and  C_12
REMARK    4  A    between atoms: C_12  and  C_13
REMARK    5  A    between atoms: C_18  and  C_21
REMARK    6  A    between atoms: C_25  and  N_26
REMARK    7  A    between atoms: N_26  and  C_29
REMARK                            x       y       z     vdW  Elec       q    Type
REMARK                         _______ _______ _______ _____ _____    ______ ____
ROOT
ATOM      1  O   UNL     1      33.299 -24.961 -12.368  0.00  0.00    -0.277 OA
ATOM      2  N   UNL     1      35.430 -24.069 -12.423  0.00  0.00    -0.275 N 
ATOM      3  C   UNL     1      36.413 -23.057 -12.807  0.00  0.00    +0.152 C 
ATOM      4  C   UNL     1      37.488 -23.141 -11.728  0.00  0.00    +0.031 C 
ATOM      5  C   UNL     1      35.953 -24.936 -11.375  0.00  0.00    +0.094 C 
ATOM      6  C   UNL     1      37.433 -24.602 -11.286  0.00  0.00    +0.024 C 
ATOM      7  C   UNL     1      34.111 -24.161 -12.838  0.00  0.00    +0.204 C 
ENDROOT
BRANCH   3  10
ATOM      8  O   UNL     1      37.358 -24.581 -14.383  0.00  0.00    -0.273 OA
ATOM      9  N   UNL     1      37.010 -22.370 -15.021  0.00  0.00    -0.299 N 
ATOM     10  C   UNL     1      36.972 -23.440 -14.144  0.00  0.00    +0.241 C 
ATOM     11  H   UNL     1      36.670 -21.498 -14.713  0.00  0.00    +0.150 HD
BRANCH   9  12
ATOM     12  C   UNL     1      37.526 -22.469 -16.367  0.00  0.00    +0.116 C 
BRANCH  12  13
ATOM     13  C   UNL     1      36.535 -21.984 -17.386  0.00  0.00    -0.003 C 
ATOM     14  C   UNL     1      36.939 -21.101 -18.387  0.00  0.00    -0.003 C 
ATOM     15  C   UNL     1      35.210 -22.417 -17.331  0.00  0.00    -0.003 C 
ATOM     16  C   UNL     1      36.019 -20.650 -19.333  0.00  0.00    +0.002 C 
ATOM     17  C   UNL     1      34.289 -21.967 -18.277  0.00  0.00    +0.002 C 
ATOM     18  C   UNL     1      34.694 -21.084 -19.278  0.00  0.00    +0.031 C 
BRANCH  18  21
ATOM     19  N   UNL     1      34.142 -19.913 -21.397  0.00  0.00    -0.343 N 
ATOM     20  N   UNL     1      32.445 -20.850 -20.094  0.00  0.00    -0.285 NA
ATOM     21  C   UNL     1      33.734 -20.615 -20.265  0.00  0.00    +0.117 C 
ATOM     22  H   UNL     1      33.475 -19.605 -22.052  0.00  0.00    +0.144 HD
ATOM     23  H   UNL     1      35.098 -19.725 -21.542  0.00  0.00    +0.144 HD
ATOM     24  H   UNL     1      31.794 -20.534 -20.760  0.00  0.00    +0.188 HD
ENDBRANCH  18  21
ENDBRANCH  12  13
ENDBRANCH   9  12
ENDBRANCH   3  10
BRANCH   7  25
ATOM     25  C   UNL     1      33.691 -23.207 -13.928  0.00  0.00    +0.006 C 
BRANCH  25  26
ATOM     26  N   UNL     1      32.287 -22.901 -13.707  0.00  0.00    +0.391 N 
ATOM     27  H   UNL     1      31.901 -23.564 -13.033  0.00  0.00    -0.084 HD
ATOM     28  H   UNL     1      32.210 -21.949 -13.348  0.00  0.00    -0.084 HD
BRANCH  26  29
ATOM     29  C   UNL     1      31.535 -22.996 -14.962  0.00  0.00    -0.061 C 
ATOM     30  C   UNL     1      31.434 -24.458 -15.415  0.00  0.00    -0.021 C 
ATOM     31  C   UNL     1      30.214 -22.225 -14.809  0.00  0.00    -0.021 C 
ATOM     32  C   UNL     1      29.228 -22.403 -15.965  0.00  0.00    -0.002 C 
ATOM     33  C   UNL     1      30.688 -25.433 -14.503  0.00  0.00    -0.002 C 
ATOM     34  C   UNL     1      28.059 -23.343 -15.662  0.00  0.00    -0.000 C 
ATOM     35  C   UNL     1      29.201 -25.180 -14.264  0.00  0.00    -0.000 C 
ATOM     36  C   UNL     1      28.390 -24.831 -15.513  0.00  0.00    -0.000 C 
ENDBRANCH  26  29
ENDBRANCH  25  26
ENDBRANCH   7  25
TORSDOF 7
ENDMDL
MODEL 7
REMARK VINA RESULT:      -9.6      2.544      6.759
REMARK  Name = 46937030
REMARK  7 active torsions:
REMARK  status: ('A' for Active; 'I' for Inactive)
REMARK    1  A    between atoms: C_3  and  C_10
REMARK    2  A    between atoms: C_7  and  C_25
REMARK    3  A    between atoms: N_9  and  C_12
REMARK    4  A    between atoms: C_12  and  C_13
REMARK    5  A    between atoms: C_18  and  C_21
REMARK    6  A    between atoms: C_25  and  N_26
REMARK    7  A    between atoms: N_26  and  C_29
REMARK                            x       y       z     vdW  Elec       q    Type
REMARK                         _______ _______ _______ _____ _____    ______ ____
ROOT
ATOM      1  O   UNL     1      32.318 -21.313 -18.704  0.00  0.00    -0.277 OA
ATOM      2  N   UNL     1      34.495 -21.049 -19.433  0.00  0.00    -0.275 N 
ATOM      3  C   UNL     1      35.890 -21.467 -19.559  0.00  0.00    +0.152 C 
ATOM      4  C   UNL     1      36.369 -20.813 -20.851  0.00  0.00    +0.031 C 
ATOM      5  C   UNL     1      34.180 -19.984 -20.377  0.00  0.00    +0.094 C 
ATOM      6  C   UNL     1      35.521 -19.546 -20.942  0.00  0.00    +0.024 C 
ATOM      7  C   UNL     1      33.507 -21.635 -18.658  0.00  0.00    +0.204 C 
ENDROOT
BRANCH   3  10
ATOM      8  O   UNL     1      37.166 -19.817 -18.398  0.00  0.00    -0.273 OA
ATOM      9  N   UNL     1      36.681 -21.826 -17.328  0.00  0.00    -0.299 N 
ATOM     10  C   UNL     1      36.642 -20.928 -18.380  0.00  0.00    +0.241 C 
ATOM     11  H   UNL     1      36.221 -22.691 -17.432  0.00  0.00    +0.150 HD
BRANCH   9  12
ATOM     12  C   UNL     1      37.364 -21.558 -16.083  0.00  0.00    +0.116 C 
BRANCH  12  13
ATOM     13  C   UNL     1      37.308 -22.731 -15.147  0.00  0.00    -0.003 C 
ATOM     14  C   UNL     1      38.325 -23.687 -15.167  0.00  0.00    -0.003 C 
ATOM     15  C   UNL     1      36.240 -22.866 -14.260  0.00  0.00    -0.003 C 
ATOM     16  C   UNL     1      38.273 -24.777 -14.298  0.00  0.00    +0.002 C 
ATOM     17  C   UNL     1      36.189 -23.956 -13.391  0.00  0.00    +0.002 C 
ATOM     18  C   UNL     1      37.206 -24.911 -13.410  0.00  0.00    +0.031 C 
BRANCH  18  21
ATOM     19  N   UNL     1      37.118 -27.355 -12.982  0.00  0.00    -0.343 N 
ATOM     20  N   UNL     1      37.129 -25.847 -11.197  0.00  0.00    -0.285 NA
ATOM     21  C   UNL     1      37.152 -26.047 -12.503  0.00  0.00    +0.117 C 
ATOM     22  H   UNL     1      37.082 -28.109 -12.350  0.00  0.00    +0.144 HD
ATOM     23  H   UNL     1      37.131 -27.525 -13.951  0.00  0.00    +0.144 HD
ATOM     24  H   UNL     1      37.092 -26.615 -10.582  0.00  0.00    +0.188 HD
ENDBRANCH  18  21
ENDBRANCH  12  13
ENDBRANCH   9  12
ENDBRANCH   3  10
BRANCH   7  25
ATOM     25  C   UNL     1      33.960 -22.726 -17.721  0.00  0.00    +0.006 C 
BRANCH  25  26
ATOM     26  N   UNL     1      32.765 -23.414 -17.260  0.00  0.00    +0.391 N 
ATOM     27  H   UNL     1      31.968 -23.117 -17.825  0.00  0.00    -0.084 HD
ATOM     28  H   UNL     1      32.907 -24.420 -17.353  0.00  0.00    -0.084 HD
BRANCH  26  29
ATOM     29  C   UNL     1      32.501 -23.101 -15.852  0.00  0.00    -0.061 C 
ATOM     30  C   UNL     1      31.038 -22.678 -15.663  0.00  0.00    -0.021 C 
ATOM     31  C   UNL     1      33.004 -24.264 -14.982  0.00  0.00    -0.021 C 
ATOM     32  C   UNL     1      32.615 -24.177 -13.505  0.00  0.00    -0.002 C 
ATOM     33  C   UNL     1      29.955 -23.708 -15.987  0.00  0.00    -0.002 C 
ATOM     34  C   UNL     1      31.472 -25.108 -13.094  0.00  0.00    -0.000 C 
ATOM     35  C   UNL     1      29.920 -24.984 -15.145  0.00  0.00    -0.000 C 
ATOM     36  C   UNL     1      30.080 -24.775 -13.639  0.00  0.00    -0.000 C 
ENDBRANCH  26  29
ENDBRANCH  25  26
ENDBRANCH   7  25
TORSDOF 7
ENDMDL
MODEL 8
REMARK VINA RESULT:      -9.6      4.853     10.314
REMARK  Name = 46937030
REMARK  7 active torsions:
REMARK  status: ('A' for Active; 'I' for Inactive)
REMARK    1  A    between atoms: C_3  and  C_10
REMARK    2  A    between atoms: C_7  and  C_25
REMARK    3  A    between atoms: N_9  and  C_12
REMARK    4  A    between atoms: C_12  and  C_13
REMARK    5  A    between atoms: C_18  and  C_21
REMARK    6  A    between atoms: C_25  and  N_26
REMARK    7  A    between atoms: N_26  and  C_29
REMARK                            x       y       z     vdW  Elec       q    Type
REMARK                         _______ _______ _______ _____ _____    ______ ____
ROOT
ATOM      1  O   UNL     1      35.275 -15.358 -22.965  0.00  0.00    -0.277 OA
ATOM      2  N   UNL     1      34.949 -17.569 -22.380  0.00  0.00    -0.275 N 
ATOM      3  C   UNL     1      34.558 -18.631 -21.455  0.00  0.00    +0.152 C 
ATOM      4  C   UNL     1      34.122 -19.781 -22.358  0.00  0.00    +0.031 C 
ATOM      5  C   UNL     1      35.051 -18.073 -23.744  0.00  0.00    +0.094 C 
ATOM      6  C   UNL     1      34.966 -19.585 -23.615  0.00  0.00    +0.024 C 
ATOM      7  C   UNL     1      35.074 -16.217 -22.104  0.00  0.00    +0.204 C 
ENDROOT
BRANCH   3  10
ATOM      8  O   UNL     1      36.762 -18.299 -20.600  0.00  0.00    -0.273 OA
ATOM      9  N   UNL     1      35.613 -20.243 -20.034  0.00  0.00    -0.299 N 
ATOM     10  C   UNL     1      35.765 -19.015 -20.655  0.00  0.00    +0.241 C 
ATOM     11  H   UNL     1      34.764 -20.726 -20.152  0.00  0.00    +0.150 HD
BRANCH   9  12
ATOM     12  C   UNL     1      36.642 -20.851 -19.220  0.00  0.00    +0.116 C 
BRANCH  12  13
ATOM     13  C   UNL     1      36.065 -21.602 -18.055  0.00  0.00    -0.003 C 
ATOM     14  C   UNL     1      36.808 -21.747 -16.883  0.00  0.00    -0.003 C 
ATOM     15  C   UNL     1      34.788 -22.155 -18.145  0.00  0.00    -0.003 C 
ATOM     16  C   UNL     1      36.273 -22.445 -15.800  0.00  0.00    +0.002 C 
ATOM     17  C   UNL     1      34.253 -22.853 -17.061  0.00  0.00    +0.002 C 
ATOM     18  C   UNL     1      34.995 -22.997 -15.889  0.00  0.00    +0.031 C 
BRANCH  18  21
ATOM     19  N   UNL     1      34.925 -24.976 -14.391  0.00  0.00    -0.343 N 
ATOM     20  N   UNL     1      33.443 -23.199 -14.065  0.00  0.00    -0.285 NA
ATOM     21  C   UNL     1      34.437 -23.724 -14.761  0.00  0.00    +0.117 C 
ATOM     22  H   UNL     1      34.532 -25.451 -13.623  0.00  0.00    +0.144 HD
ATOM     23  H   UNL     1      35.662 -25.386 -14.898  0.00  0.00    +0.144 HD
ATOM     24  H   UNL     1      33.064 -23.690 -13.301  0.00  0.00    +0.188 HD
ENDBRANCH  18  21
ENDBRANCH  12  13
ENDBRANCH   9  12
ENDBRANCH   3  10
BRANCH   7  25
ATOM     25  C   UNL     1      34.947 -15.822 -20.655  0.00  0.00    +0.006 C 
BRANCH  25  26
ATOM     26  N   UNL     1      34.612 -14.407 -20.627  0.00  0.00    +0.391 N 
ATOM     27  H   UNL     1      34.589 -14.086 -19.659  0.00  0.00    -0.084 HD
ATOM     28  H   UNL     1      35.318 -13.892 -21.152  0.00  0.00    -0.084 HD
BRANCH  26  29
ATOM     29  C   UNL     1      33.301 -14.176 -21.243  0.00  0.00    -0.061 C 
ATOM     30  C   UNL     1      32.207 -14.124 -20.169  0.00  0.00    -0.021 C 
ATOM     31  C   UNL     1      33.403 -12.968 -22.187  0.00  0.00    -0.021 C 
ATOM     32  C   UNL     1      32.067 -12.476 -22.749  0.00  0.00    -0.002 C 
ATOM     33  C   UNL     1      32.290 -13.007 -19.127  0.00  0.00    -0.002 C 
ATOM     34  C   UNL     1      31.534 -11.201 -22.091  0.00  0.00    -0.000 C 
ATOM     35  C   UNL     1      32.171 -11.567 -19.623  0.00  0.00    -0.000 C 
ATOM     36  C   UNL     1      31.058 -11.319 -20.641  0.00  0.00    -0.000 C 
ENDBRANCH  26  29
ENDBRANCH  25  26
ENDBRANCH   7  25
TORSDOF 7
ENDMDL
MODEL 9
REMARK VINA RESULT:      -9.5      6.572     11.017
REMARK  Name = 46937030
REMARK  7 active torsions:
REMARK  status: ('A' for Active; 'I' for Inactive)
REMARK    1  A    between atoms: C_3  and  C_10
REMARK    2  A    between atoms: C_7  and  C_25
REMARK    3  A    between atoms: N_9  and  C_12
REMARK    4  A    between atoms: C_12  and  C_13
REMARK    5  A    between atoms: C_18  and  C_21
REMARK    6  A    between atoms: C_25  and  N_26
REMARK    7  A    between atoms: N_26  and  C_29
REMARK                            x       y       z     vdW  Elec       q    Type
REMARK                         _______ _______ _______ _____ _____    ______ ____
ROOT
ATOM      1  O   UNL     1      34.521 -18.576 -23.783  0.00  0.00    -0.277 OA
ATOM      2  N   UNL     1      34.414 -16.276 -23.599  0.00  0.00    -0.275 N 
ATOM      3  C   UNL     1      34.859 -14.985 -23.076  0.00  0.00    +0.152 C 
ATOM      4  C   UNL     1      34.459 -13.980 -24.152  0.00  0.00    +0.031 C 
ATOM      5  C   UNL     1      33.541 -16.100 -24.752  0.00  0.00    +0.094 C 
ATOM      6  C   UNL     1      33.225 -14.614 -24.789  0.00  0.00    +0.024 C 
ATOM      7  C   UNL     1      34.839 -17.535 -23.205  0.00  0.00    +0.204 C 
ENDROOT
BRANCH   3  10
ATOM      8  O   UNL     1      34.473 -15.204 -20.731  0.00  0.00    -0.273 OA
ATOM      9  N   UNL     1      33.010 -13.913 -21.999  0.00  0.00    -0.299 N 
ATOM     10  C   UNL     1      34.116 -14.721 -21.802  0.00  0.00    +0.241 C 
ATOM     11  H   UNL     1      32.824 -13.584 -22.909  0.00  0.00    +0.150 HD
BRANCH   9  12
ATOM     12  C   UNL     1      32.111 -13.527 -20.934  0.00  0.00    +0.116 C 
BRANCH  12  13
ATOM     13  C   UNL     1      32.142 -12.047 -20.682  0.00  0.00    -0.003 C 
ATOM     14  C   UNL     1      32.095 -11.563 -19.374  0.00  0.00    -0.003 C 
ATOM     15  C   UNL     1      32.218 -11.158 -21.753  0.00  0.00    -0.003 C 
ATOM     16  C   UNL     1      32.124 -10.188 -19.139  0.00  0.00    +0.002 C 
ATOM     17  C   UNL     1      32.246  -9.783 -21.518  0.00  0.00    +0.002 C 
ATOM     18  C   UNL     1      32.200  -9.298 -20.210  0.00  0.00    +0.031 C 
BRANCH  18  21
ATOM     19  N   UNL     1      31.300  -7.009 -20.551  0.00  0.00    -0.343 N 
ATOM     20  N   UNL     1      33.158  -7.351 -19.177  0.00  0.00    -0.285 NA
ATOM     21  C   UNL     1      32.231  -7.865 -19.966  0.00  0.00    +0.117 C 
ATOM     22  H   UNL     1      31.339  -6.042 -20.371  0.00  0.00    +0.144 HD
ATOM     23  H   UNL     1      30.603  -7.372 -21.145  0.00  0.00    +0.144 HD
ATOM     24  H   UNL     1      33.181  -6.381 -19.010  0.00  0.00    +0.188 HD
ENDBRANCH  18  21
ENDBRANCH  12  13
ENDBRANCH   9  12
ENDBRANCH   3  10
BRANCH   7  25
ATOM     25  C   UNL     1      35.741 -17.582 -21.998  0.00  0.00    +0.006 C 
BRANCH  25  26
ATOM     26  N   UNL     1      34.933 -18.047 -20.882  0.00  0.00    +0.391 N 
ATOM     27  H   UNL     1      35.456 -17.923 -20.015  0.00  0.00    -0.084 HD
ATOM     28  H   UNL     1      34.069 -17.507 -20.854  0.00  0.00    -0.084 HD
BRANCH  26  29
ATOM     29  C   UNL     1      34.598 -19.466 -21.044  0.00  0.00    -0.061 C 
ATOM     30  C   UNL     1      35.875 -20.316 -21.080  0.00  0.00    -0.021 C 
ATOM     31  C   UNL     1      33.540 -19.849 -19.998  0.00  0.00    -0.021 C 
ATOM     32  C   UNL     1      33.239 -21.346 -19.907  0.00  0.00    -0.002 C 
ATOM     33  C   UNL     1      36.759 -20.319 -19.831  0.00  0.00    -0.002 C 
ATOM     34  C   UNL     1      33.867 -22.047 -18.700  0.00  0.00    -0.000 C 
ATOM     35  C   UNL     1      36.161 -20.886 -18.544  0.00  0.00    -0.000 C 
ATOM     36  C   UNL     1      35.391 -22.197 -18.705  0.00  0.00    -0.000 C 
ENDBRANCH  26  29
ENDBRANCH  25  26
ENDBRANCH   7  25
TORSDOF 7
ENDMDL
