MODEL 1
REMARK VINA RESULT:     -11.3      0.000      0.000
REMARK  Name = 100472
REMARK  3 active torsions:
REMARK  status: ('A' for Active; 'I' for Inactive)
REMARK    1  A    between atoms: C_1  and  C_13
REMARK    2  A    between atoms: C_2  and  C_7
REMARK    3  A    between atoms: C_13  and  C_16
REMARK                            x       y       z     vdW  Elec       q    Type
REMARK                         _______ _______ _______ _____ _____    ______ ____
ROOT
ATOM      1  C   UNL     1      35.822 -19.607 -21.041  0.00  0.00    -0.013 C 
ATOM      2  C   UNL     1      35.062 -21.254 -18.921  0.00  0.00    -0.000 C 
ATOM      3  C   UNL     1      34.482 -19.960 -20.877  0.00  0.00    -0.004 C 
ATOM      4  C   UNL     1      36.781 -20.077 -20.144  0.00  0.00    -0.004 C 
ATOM      5  C   UNL     1      34.103 -20.784 -19.818  0.00  0.00    -0.000 C 
ATOM      6  C   UNL     1      36.402 -20.900 -19.084  0.00  0.00    -0.000 C 
ENDROOT
BRANCH   2   7
ATOM      7  C   UNL     1      34.669 -22.108 -17.821  0.00  0.00    -0.000 C 
ATOM      8  C   UNL     1      35.565 -22.371 -16.786  0.00  0.00    -0.000 C 
ATOM      9  C   UNL     1      33.392 -22.670 -17.798  0.00  0.00    -0.000 C 
ATOM     10  C   UNL     1      35.185 -23.194 -15.726  0.00  0.00    +0.000 C 
ATOM     11  C   UNL     1      33.012 -23.493 -16.738  0.00  0.00    +0.000 C 
ATOM     12  C   UNL     1      33.909 -23.755 -15.702  0.00  0.00    +0.000 C 
ENDBRANCH   2   7
BRANCH   1  13
ATOM     13  C   UNL     1      36.228 -18.726 -22.174  0.00  0.00    +0.112 C 
BRANCH  13  16
ATOM     14  O   UNL     1      35.429 -16.686 -21.168  0.00  0.00    -0.274 OA
ATOM     15  N   UNL     1      35.066 -17.056 -23.459  0.00  0.00    -0.269 N 
ATOM     16  C   UNL     1      35.532 -17.368 -22.184  0.00  0.00    +0.232 C 
ATOM     17  H   UNL     1      35.238 -17.726 -24.160  0.00  0.00    +0.156 HD
ATOM     18  N   UNL     1      34.013 -15.789 -25.155  0.00  0.00    -0.229 NA
ATOM     19  C   UNL     1      34.375 -15.890 -23.864  0.00  0.00    +0.134 C 
ATOM     20  C   UNL     1      34.129 -14.942 -22.893  0.00  0.00    +0.034 C 
ATOM     21  C   UNL     1      33.451 -13.793 -23.280  0.00  0.00    +0.004 C 
ATOM     22  C   UNL     1      33.054 -13.639 -24.604  0.00  0.00    +0.021 C 
ATOM     23  C   UNL     1      33.357 -14.657 -25.494  0.00  0.00    +0.100 C 
ENDBRANCH  13  16
ENDBRANCH   1  13
TORSDOF 3
ENDMDL
MODEL 2
REMARK VINA RESULT:     -11.2      2.230      3.714
REMARK  Name = 100472
REMARK  3 active torsions:
REMARK  status: ('A' for Active; 'I' for Inactive)
REMARK    1  A    between atoms: C_1  and  C_13
REMARK    2  A    between atoms: C_2  and  C_7
REMARK    3  A    between atoms: C_13  and  C_16
REMARK                            x       y       z     vdW  Elec       q    Type
REMARK                         _______ _______ _______ _____ _____    ______ ____
ROOT
ATOM      1  C   UNL     1      34.928 -17.205 -23.287  0.00  0.00    -0.013 C 
ATOM      2  C   UNL     1      34.948 -19.194 -21.330  0.00  0.00    -0.000 C 
ATOM      3  C   UNL     1      35.396 -16.918 -22.004  0.00  0.00    -0.004 C 
ATOM      4  C   UNL     1      34.469 -18.487 -23.590  0.00  0.00    -0.004 C 
ATOM      5  C   UNL     1      35.406 -17.912 -21.026  0.00  0.00    -0.000 C 
ATOM      6  C   UNL     1      34.480 -19.482 -22.612  0.00  0.00    -0.000 C 
ENDROOT
BRANCH   2   7
ATOM      7  C   UNL     1      34.958 -20.226 -20.315  0.00  0.00    -0.000 C 
ATOM      8  C   UNL     1      36.164 -20.632 -19.745  0.00  0.00    -0.000 C 
ATOM      9  C   UNL     1      33.761 -20.813 -19.907  0.00  0.00    -0.000 C 
ATOM     10  C   UNL     1      36.173 -21.626 -18.766  0.00  0.00    +0.000 C 
ATOM     11  C   UNL     1      33.769 -21.807 -18.928  0.00  0.00    +0.000 C 
ATOM     12  C   UNL     1      34.976 -22.213 -18.358  0.00  0.00    +0.000 C 
ENDBRANCH   2   7
BRANCH   1  13
ATOM     13  C   UNL     1      34.917 -16.142 -24.332  0.00  0.00    +0.112 C 
BRANCH  13  16
ATOM     14  O   UNL     1      33.400 -14.362 -24.916  0.00  0.00    -0.274 OA
ATOM     15  N   UNL     1      33.885 -14.762 -22.654  0.00  0.00    -0.269 N 
ATOM     16  C   UNL     1      33.975 -14.981 -24.026  0.00  0.00    +0.232 C 
ATOM     17  H   UNL     1      34.420 -15.359 -22.082  0.00  0.00    +0.156 HD
ATOM     18  N   UNL     1      33.173 -13.742 -20.642  0.00  0.00    -0.229 NA
ATOM     19  C   UNL     1      33.115 -13.781 -21.985  0.00  0.00    +0.134 C 
ATOM     20  C   UNL     1      32.359 -12.939 -22.773  0.00  0.00    +0.034 C 
ATOM     21  C   UNL     1      31.598 -11.972 -22.125  0.00  0.00    +0.004 C 
ATOM     22  C   UNL     1      31.623 -11.890 -20.737  0.00  0.00    +0.021 C 
ATOM     23  C   UNL     1      32.419 -12.790 -20.048  0.00  0.00    +0.100 C 
ENDBRANCH  13  16
ENDBRANCH   1  13
TORSDOF 3
ENDMDL
MODEL 3
REMARK VINA RESULT:     -11.0      2.620      8.289
REMARK  Name = 100472
REMARK  3 active torsions:
REMARK  status: ('A' for Active; 'I' for Inactive)
REMARK    1  A    between atoms: C_1  and  C_13
REMARK    2  A    between atoms: C_2  and  C_7
REMARK    3  A    between atoms: C_13  and  C_16
REMARK                            x       y       z     vdW  Elec       q    Type
REMARK                         _______ _______ _______ _____ _____    ______ ____
ROOT
ATOM      1  C   UNL     1      35.128 -16.344 -22.186  0.00  0.00    -0.013 C 
ATOM      2  C   UNL     1      33.547 -14.174 -21.426  0.00  0.00    -0.000 C 
ATOM      3  C   UNL     1      34.522 -15.547 -23.158  0.00  0.00    -0.004 C 
ATOM      4  C   UNL     1      34.943 -16.056 -20.834  0.00  0.00    -0.004 C 
ATOM      5  C   UNL     1      33.733 -14.462 -22.778  0.00  0.00    -0.000 C 
ATOM      6  C   UNL     1      34.153 -14.971 -20.454  0.00  0.00    -0.000 C 
ENDROOT
BRANCH   2   7
ATOM      7  C   UNL     1      32.727 -13.049 -21.031  0.00  0.00    -0.000 C 
ATOM      8  C   UNL     1      32.694 -12.644 -19.697  0.00  0.00    -0.000 C 
ATOM      9  C   UNL     1      31.970 -12.371 -21.985  0.00  0.00    -0.000 C 
ATOM     10  C   UNL     1      31.904 -11.559 -19.317  0.00  0.00    +0.000 C 
ATOM     11  C   UNL     1      31.180 -11.285 -21.606  0.00  0.00    +0.000 C 
ATOM     12  C   UNL     1      31.148 -10.880 -20.271  0.00  0.00    +0.000 C 
ENDBRANCH   2   7
BRANCH   1  13
ATOM     13  C   UNL     1      35.973 -17.504 -22.593  0.00  0.00    +0.112 C 
BRANCH  13  16
ATOM     14  O   UNL     1      37.277 -18.679 -20.941  0.00  0.00    -0.274 OA
ATOM     15  N   UNL     1      35.010 -19.228 -21.218  0.00  0.00    -0.269 N 
ATOM     16  C   UNL     1      36.187 -18.533 -21.486  0.00  0.00    +0.232 C 
ATOM     17  H   UNL     1      34.224 -18.977 -21.757  0.00  0.00    +0.156 HD
ATOM     18  N   UNL     1      33.585 -20.795 -20.167  0.00  0.00    -0.229 NA
ATOM     19  C   UNL     1      34.812 -20.253 -20.263  0.00  0.00    +0.134 C 
ATOM     20  C   UNL     1      35.902 -20.613 -19.500  0.00  0.00    +0.034 C 
ATOM     21  C   UNL     1      35.718 -21.619 -18.559  0.00  0.00    +0.004 C 
ATOM     22  C   UNL     1      34.468 -22.212 -18.419  0.00  0.00    +0.021 C 
ATOM     23  C   UNL     1      33.444 -21.768 -19.239  0.00  0.00    +0.100 C 
ENDBRANCH  13  16
ENDBRANCH   1  13
TORSDOF 3
ENDMDL
MODEL 4
REMARK VINA RESULT:     -10.9      4.167      9.359
REMARK  Name = 100472
REMARK  3 active torsions:
REMARK  status: ('A' for Active; 'I' for Inactive)
REMARK    1  A    between atoms: C_1  and  C_13
REMARK    2  A    between atoms: C_2  and  C_7
REMARK    3  A    between atoms: C_13  and  C_16
REMARK                            x       y       z     vdW  Elec       q    Type
REMARK                         _______ _______ _______ _____ _____    ______ ____
ROOT
ATOM      1  C   UNL     1      34.712 -21.653 -18.852  0.00  0.00    -0.013 C 
ATOM      2  C   UNL     1      34.802 -19.718 -20.860  0.00  0.00    -0.000 C 
ATOM      3  C   UNL     1      35.939 -21.135 -19.268  0.00  0.00    -0.004 C 
ATOM      4  C   UNL     1      33.530 -21.203 -19.440  0.00  0.00    -0.004 C 
ATOM      5  C   UNL     1      35.984 -20.168 -20.272  0.00  0.00    -0.000 C 
ATOM      6  C   UNL     1      33.575 -20.236 -20.444  0.00  0.00    -0.000 C 
ENDROOT
BRANCH   2   7
ATOM      7  C   UNL     1      34.849 -18.715 -21.902  0.00  0.00    -0.000 C 
ATOM      8  C   UNL     1      34.440 -19.035 -23.197  0.00  0.00    -0.000 C 
ATOM      9  C   UNL     1      35.302 -17.429 -21.611  0.00  0.00    -0.000 C 
ATOM     10  C   UNL     1      34.484 -18.068 -24.201  0.00  0.00    +0.000 C 
ATOM     11  C   UNL     1      35.346 -16.461 -22.616  0.00  0.00    +0.000 C 
ATOM     12  C   UNL     1      34.937 -16.782 -23.910  0.00  0.00    +0.000 C 
ENDBRANCH   2   7
BRANCH   1  13
ATOM     13  C   UNL     1      34.664 -22.687 -17.778  0.00  0.00    +0.112 C 
BRANCH  13  16
ATOM     14  O   UNL     1      32.264 -22.470 -17.717  0.00  0.00    -0.274 OA
ATOM     15  N   UNL     1      33.365 -23.552 -15.947  0.00  0.00    -0.269 N 
ATOM     16  C   UNL     1      33.280 -22.878 -17.163  0.00  0.00    +0.232 C 
ATOM     17  H   UNL     1      34.270 -23.806 -15.652  0.00  0.00    +0.156 HD
ATOM     18  N   UNL     1      32.607 -24.565 -13.949  0.00  0.00    -0.229 NA
ATOM     19  C   UNL     1      32.302 -23.913 -15.085  0.00  0.00    +0.134 C 
ATOM     20  C   UNL     1      31.030 -23.565 -15.485  0.00  0.00    +0.034 C 
ATOM     21  C   UNL     1      29.979 -23.916 -14.646  0.00  0.00    +0.004 C 
ATOM     22  C   UNL     1      30.240 -24.592 -13.459  0.00  0.00    +0.021 C 
ATOM     23  C   UNL     1      31.559 -24.891 -13.160  0.00  0.00    +0.100 C 
ENDBRANCH  13  16
ENDBRANCH   1  13
TORSDOF 3
ENDMDL
MODEL 5
REMARK VINA RESULT:     -10.9      2.331      8.879
REMARK  Name = 100472
REMARK  3 active torsions:
REMARK  status: ('A' for Active; 'I' for Inactive)
REMARK    1  A    between atoms: C_1  and  C_13
REMARK    2  A    between atoms: C_2  and  C_7
REMARK    3  A    between atoms: C_13  and  C_16
REMARK                            x       y       z     vdW  Elec       q    Type
REMARK                         _______ _______ _______ _____ _____    ______ ____
ROOT
ATOM      1  C   UNL     1      35.348 -17.033 -22.309  0.00  0.00    -0.013 C 
ATOM      2  C   UNL     1      34.131 -14.532 -22.534  0.00  0.00    -0.000 C 
ATOM      3  C   UNL     1      34.968 -16.552 -23.563  0.00  0.00    -0.004 C 
ATOM      4  C   UNL     1      35.119 -16.263 -21.169  0.00  0.00    -0.004 C 
ATOM      5  C   UNL     1      34.360 -15.301 -23.675  0.00  0.00    -0.000 C 
ATOM      6  C   UNL     1      34.512 -15.013 -21.281  0.00  0.00    -0.000 C 
ENDROOT
BRANCH   2   7
ATOM      7  C   UNL     1      33.500 -13.235 -22.651  0.00  0.00    -0.000 C 
ATOM      8  C   UNL     1      33.970 -12.312 -23.584  0.00  0.00    -0.000 C 
ATOM      9  C   UNL     1      32.422 -12.909 -21.829  0.00  0.00    -0.000 C 
ATOM     10  C   UNL     1      33.360 -11.062 -23.697  0.00  0.00    +0.000 C 
ATOM     11  C   UNL     1      31.812 -11.659 -21.941  0.00  0.00    +0.000 C 
ATOM     12  C   UNL     1      32.282 -10.736 -22.876  0.00  0.00    +0.000 C 
ENDBRANCH   2   7
BRANCH   1  13
ATOM     13  C   UNL     1      35.998 -18.369 -22.189  0.00  0.00    +0.112 C 
BRANCH  13  16
ATOM     14  O   UNL     1      34.040 -19.676 -21.673  0.00  0.00    -0.274 OA
ATOM     15  N   UNL     1      35.944 -19.874 -20.313  0.00  0.00    -0.269 N 
ATOM     16  C   UNL     1      35.193 -19.379 -21.376  0.00  0.00    +0.232 C 
ATOM     17  H   UNL     1      36.859 -19.522 -20.225  0.00  0.00    +0.156 HD
ATOM     18  N   UNL     1      36.433 -21.166 -18.393  0.00  0.00    -0.229 NA
ATOM     19  C   UNL     1      35.545 -20.824 -19.343  0.00  0.00    +0.134 C 
ATOM     20  C   UNL     1      34.266 -21.328 -19.454  0.00  0.00    +0.034 C 
ATOM     21  C   UNL     1      33.865 -22.262 -18.506  0.00  0.00    +0.004 C 
ATOM     22  C   UNL     1      34.746 -22.650 -17.503  0.00  0.00    +0.021 C 
ATOM     23  C   UNL     1      36.007 -22.078 -17.491  0.00  0.00    +0.100 C 
ENDBRANCH  13  16
ENDBRANCH   1  13
TORSDOF 3
ENDMDL
MODEL 6
REMARK VINA RESULT:     -10.9      3.935      8.575
REMARK  Name = 100472
REMARK  3 active torsions:
REMARK  status: ('A' for Active; 'I' for Inactive)
REMARK    1  A    between atoms: C_1  and  C_13
REMARK    2  A    between atoms: C_2  and  C_7
REMARK    3  A    between atoms: C_13  and  C_16
REMARK                            x       y       z     vdW  Elec       q    Type
REMARK                         _______ _______ _______ _____ _____    ______ ____
ROOT
ATOM      1  C   UNL     1      34.468 -22.026 -19.100  0.00  0.00    -0.013 C 
ATOM      2  C   UNL     1      34.734 -19.717 -20.644  0.00  0.00    -0.000 C 
ATOM      3  C   UNL     1      33.333 -21.334 -19.523  0.00  0.00    -0.004 C 
ATOM      4  C   UNL     1      35.737 -21.562 -19.449  0.00  0.00    -0.004 C 
ATOM      5  C   UNL     1      33.466 -20.180 -20.295  0.00  0.00    -0.000 C 
ATOM      6  C   UNL     1      35.870 -20.409 -20.221  0.00  0.00    -0.000 C 
ENDROOT
BRANCH   2   7
ATOM      7  C   UNL     1      34.873 -18.520 -21.445  0.00  0.00    -0.000 C 
ATOM      8  C   UNL     1      34.818 -18.600 -22.836  0.00  0.00    -0.000 C 
ATOM      9  C   UNL     1      35.062 -17.285 -20.824  0.00  0.00    -0.000 C 
ATOM     10  C   UNL     1      34.951 -17.445 -23.607  0.00  0.00    +0.000 C 
ATOM     11  C   UNL     1      35.194 -16.130 -21.595  0.00  0.00    +0.000 C 
ATOM     12  C   UNL     1      35.138 -16.211 -22.987  0.00  0.00    +0.000 C 
ENDBRANCH   2   7
BRANCH   1  13
ATOM     13  C   UNL     1      34.326 -23.260 -18.275  0.00  0.00    +0.112 C 
BRANCH  13  16
ATOM     14  O   UNL     1      34.112 -22.944 -15.895  0.00  0.00    -0.274 OA
ATOM     15  N   UNL     1      32.177 -23.006 -17.223  0.00  0.00    -0.269 N 
ATOM     16  C   UNL     1      33.547 -23.052 -16.979  0.00  0.00    +0.232 C 
ATOM     17  H   UNL     1      31.898 -23.112 -18.162  0.00  0.00    +0.156 HD
ATOM     18  N   UNL     1      29.871 -22.815 -16.732  0.00  0.00    -0.229 NA
ATOM     19  C   UNL     1      31.137 -22.828 -16.279  0.00  0.00    +0.134 C 
ATOM     20  C   UNL     1      31.512 -22.677 -14.961  0.00  0.00    +0.034 C 
ATOM     21  C   UNL     1      30.499 -22.499 -14.027  0.00  0.00    +0.004 C 
ATOM     22  C   UNL     1      29.172 -22.479 -14.443  0.00  0.00    +0.021 C 
ATOM     23  C   UNL     1      28.914 -22.639 -15.794  0.00  0.00    +0.100 C 
ENDBRANCH  13  16
ENDBRANCH   1  13
TORSDOF 3
ENDMDL
MODEL 7
REMARK VINA RESULT:     -10.7      4.476      9.840
REMARK  Name = 100472
REMARK  3 active torsions:
REMARK  status: ('A' for Active; 'I' for Inactive)
REMARK    1  A    between atoms: C_1  and  C_13
REMARK    2  A    between atoms: C_2  and  C_7
REMARK    3  A    between atoms: C_13  and  C_16
REMARK                            x       y       z     vdW  Elec       q    Type
REMARK                         _______ _______ _______ _____ _____    ______ ____
ROOT
ATOM      1  C   UNL     1      34.155 -22.328 -18.102  0.00  0.00    -0.013 C 
ATOM      2  C   UNL     1      34.582 -20.432 -20.104  0.00  0.00    -0.000 C 
ATOM      3  C   UNL     1      35.455 -22.010 -18.497  0.00  0.00    -0.004 C 
ATOM      4  C   UNL     1      33.068 -21.699 -18.710  0.00  0.00    -0.004 C 
ATOM      5  C   UNL     1      35.668 -21.062 -19.497  0.00  0.00    -0.000 C 
ATOM      6  C   UNL     1      33.282 -20.751 -19.710  0.00  0.00    -0.000 C 
ENDROOT
BRANCH   2   7
ATOM      7  C   UNL     1      34.802 -19.449 -21.143  0.00  0.00    -0.000 C 
ATOM      8  C   UNL     1      34.445 -19.734 -22.460  0.00  0.00    -0.000 C 
ATOM      9  C   UNL     1      35.373 -18.217 -20.825  0.00  0.00    -0.000 C 
ATOM     10  C   UNL     1      34.658 -18.786 -23.461  0.00  0.00    +0.000 C 
ATOM     11  C   UNL     1      35.585 -17.268 -21.826  0.00  0.00    +0.000 C 
ATOM     12  C   UNL     1      35.227 -17.553 -23.144  0.00  0.00    +0.000 C 
ENDBRANCH   2   7
BRANCH   1  13
ATOM     13  C   UNL     1      33.927 -23.342 -17.032  0.00  0.00    +0.112 C 
BRANCH  13  16
ATOM     14  O   UNL     1      35.165 -22.141 -15.349  0.00  0.00    -0.274 OA
ATOM     15  N   UNL     1      35.364 -24.477 -15.473  0.00  0.00    -0.269 N 
ATOM     16  C   UNL     1      34.889 -23.225 -15.853  0.00  0.00    +0.232 C 
ATOM     17  H   UNL     1      35.033 -25.245 -15.993  0.00  0.00    +0.156 HD
ATOM     18  N   UNL     1      36.599 -26.064 -14.226  0.00  0.00    -0.229 NA
ATOM     19  C   UNL     1      36.268 -24.775 -14.425  0.00  0.00    +0.134 C 
ATOM     20  C   UNL     1      36.738 -23.711 -13.686  0.00  0.00    +0.034 C 
ATOM     21  C   UNL     1      37.626 -23.993 -12.655  0.00  0.00    +0.004 C 
ATOM     22  C   UNL     1      38.000 -25.309 -12.407  0.00  0.00    +0.021 C 
ATOM     23  C   UNL     1      37.462 -26.299 -13.214  0.00  0.00    +0.100 C 
ENDBRANCH  13  16
ENDBRANCH   1  13
TORSDOF 3
ENDMDL
MODEL 8
REMARK VINA RESULT:     -10.6      4.649      8.618
REMARK  Name = 100472
REMARK  3 active torsions:
REMARK  status: ('A' for Active; 'I' for Inactive)
REMARK    1  A    between atoms: C_1  and  C_13
REMARK    2  A    between atoms: C_2  and  C_7
REMARK    3  A    between atoms: C_13  and  C_16
REMARK                            x       y       z     vdW  Elec       q    Type
REMARK                         _______ _______ _______ _____ _____    ______ ____
ROOT
ATOM      1  C   UNL     1      34.095 -22.743 -17.359  0.00  0.00    -0.013 C 
ATOM      2  C   UNL     1      34.949 -21.014 -19.376  0.00  0.00    -0.000 C 
ATOM      3  C   UNL     1      33.176 -22.234 -18.278  0.00  0.00    -0.004 C 
ATOM      4  C   UNL     1      35.441 -22.386 -17.449  0.00  0.00    -0.004 C 
ATOM      5  C   UNL     1      33.603 -21.371 -19.286  0.00  0.00    -0.000 C 
ATOM      6  C   UNL     1      35.868 -21.522 -18.458  0.00  0.00    -0.000 C 
ENDROOT
BRANCH   2   7
ATOM      7  C   UNL     1      35.391 -20.117 -20.422  0.00  0.00    -0.000 C 
ATOM      8  C   UNL     1      36.648 -19.518 -20.341  0.00  0.00    -0.000 C 
ATOM      9  C   UNL     1      34.561 -19.852 -21.510  0.00  0.00    -0.000 C 
ATOM     10  C   UNL     1      37.075 -18.654 -21.349  0.00  0.00    +0.000 C 
ATOM     11  C   UNL     1      34.988 -18.988 -22.519  0.00  0.00    +0.000 C 
ATOM     12  C   UNL     1      36.245 -18.390 -22.438  0.00  0.00    +0.000 C 
ENDBRANCH   2   7
BRANCH   1  13
ATOM     13  C   UNL     1      33.639 -23.667 -16.281  0.00  0.00    +0.112 C 
BRANCH  13  16
ATOM     14  O   UNL     1      32.428 -22.724 -14.422  0.00  0.00    -0.274 OA
ATOM     15  N   UNL     1      31.251 -23.385 -16.344  0.00  0.00    -0.269 N 
ATOM     16  C   UNL     1      32.382 -23.197 -15.553  0.00  0.00    +0.232 C 
ATOM     17  H   UNL     1      31.401 -23.781 -17.232  0.00  0.00    +0.156 HD
ATOM     18  N   UNL     1      28.961 -23.338 -16.933  0.00  0.00    -0.229 NA
ATOM     19  C   UNL     1      29.909 -23.073 -16.018  0.00  0.00    +0.134 C 
ATOM     20  C   UNL     1      29.683 -22.515 -14.777  0.00  0.00    +0.034 C 
ATOM     21  C   UNL     1      28.369 -22.204 -14.448  0.00  0.00    +0.004 C 
ATOM     22  C   UNL     1      27.350 -22.458 -15.360  0.00  0.00    +0.021 C 
ATOM     23  C   UNL     1      27.696 -23.020 -16.578  0.00  0.00    +0.100 C 
ENDBRANCH  13  16
ENDBRANCH   1  13
TORSDOF 3
ENDMDL
MODEL 9
REMARK VINA RESULT:     -10.4      2.189      8.931
REMARK  Name = 100472
REMARK  3 active torsions:
REMARK  status: ('A' for Active; 'I' for Inactive)
REMARK    1  A    between atoms: C_1  and  C_13
REMARK    2  A    between atoms: C_2  and  C_7
REMARK    3  A    between atoms: C_13  and  C_16
REMARK                            x       y       z     vdW  Elec       q    Type
REMARK                         _______ _______ _______ _____ _____    ______ ____
ROOT
ATOM      1  C   UNL     1      34.552 -16.561 -23.783  0.00  0.00    -0.013 C 
ATOM      2  C   UNL     1      33.803 -13.906 -23.361  0.00  0.00    -0.000 C 
ATOM      3  C   UNL     1      33.796 -15.888 -24.744  0.00  0.00    -0.004 C 
ATOM      4  C   UNL     1      34.932 -15.906 -22.611  0.00  0.00    -0.004 C 
ATOM      5  C   UNL     1      33.422 -14.561 -24.533  0.00  0.00    -0.000 C 
ATOM      6  C   UNL     1      34.558 -14.579 -22.401  0.00  0.00    -0.000 C 
ENDROOT
BRANCH   2   7
ATOM      7  C   UNL     1      33.414 -12.530 -23.142  0.00  0.00    -0.000 C 
ATOM      8  C   UNL     1      32.358 -12.232 -22.282  0.00  0.00    -0.000 C 
ATOM      9  C   UNL     1      34.096 -11.501 -23.792  0.00  0.00    -0.000 C 
ATOM     10  C   UNL     1      31.983 -10.905 -22.070  0.00  0.00    +0.000 C 
ATOM     11  C   UNL     1      33.723 -10.174 -23.580  0.00  0.00    +0.000 C 
ATOM     12  C   UNL     1      32.666  -9.876 -22.719  0.00  0.00    +0.000 C 
ENDBRANCH   2   7
BRANCH   1  13
ATOM     13  C   UNL     1      34.952 -17.980 -24.009  0.00  0.00    +0.112 C 
BRANCH  13  16
ATOM     14  O   UNL     1      36.641 -18.640 -22.421  0.00  0.00    -0.274 OA
ATOM     15  N   UNL     1      34.425 -19.346 -22.100  0.00  0.00    -0.269 N 
ATOM     16  C   UNL     1      35.461 -18.686 -22.755  0.00  0.00    +0.232 C 
ATOM     17  H   UNL     1      33.534 -19.276 -22.514  0.00  0.00    +0.156 HD
ATOM     18  N   UNL     1      33.371 -20.665 -20.444  0.00  0.00    -0.229 NA
ATOM     19  C   UNL     1      34.502 -20.107 -20.910  0.00  0.00    +0.134 C 
ATOM     20  C   UNL     1      35.743 -20.213 -20.318  0.00  0.00    +0.034 C 
ATOM     21  C   UNL     1      35.829 -20.957 -19.147  0.00  0.00    +0.004 C 
ATOM     22  C   UNL     1      34.688 -21.555 -18.623  0.00  0.00    +0.021 C 
ATOM     23  C   UNL     1      33.494 -21.380 -19.303  0.00  0.00    +0.100 C 
ENDBRANCH  13  16
ENDBRANCH   1  13
TORSDOF 3
ENDMDL
