MODEL 1
REMARK VINA RESULT:     -11.4      0.000      0.000
REMARK  Name = 11963557
REMARK  4 active torsions:
REMARK  status: ('A' for Active; 'I' for Inactive)
REMARK    1  A    between atoms: C_11  and  C_19
REMARK    2  A    between atoms: C_13  and  C_30
REMARK    3  A    between atoms: C_16  and  N_22
REMARK    4  A    between atoms: C_30  and  C_32
REMARK                            x       y       z     vdW  Elec       q    Type
REMARK                         _______ _______ _______ _____ _____    ______ ____
ROOT
ATOM      1  O   UNL     1      35.735 -22.113 -20.695  0.00  0.00    -0.270 OA
ATOM      2  O   UNL     1      34.525 -13.800 -20.340  0.00  0.00    -0.274 OA
ATOM      3  N   UNL     1      34.788 -15.614 -21.661  0.00  0.00    -0.233 N 
ATOM      4  N   UNL     1      35.365 -19.916 -19.957  0.00  0.00    -0.264 N 
ATOM      5  N   UNL     1      35.241 -18.792 -23.276  0.00  0.00    -0.273 N 
ATOM      6  N   UNL     1      35.375 -19.826 -22.378  0.00  0.00    -0.157 NA
ATOM      7  C   UNL     1      35.084 -17.788 -21.227  0.00  0.00    +0.067 A 
ATOM      8  C   UNL     1      35.077 -17.642 -22.593  0.00  0.00    +0.093 A 
ATOM      9  C   UNL     1      35.280 -19.210 -21.150  0.00  0.00    +0.157 A 
ATOM     10  C   UNL     1      34.912 -16.582 -20.623  0.00  0.00    +0.076 C 
ATOM     11  C   UNL     1      35.581 -21.289 -19.778  0.00  0.00    +0.251 C 
ATOM     12  C   UNL     1      34.900 -16.341 -22.863  0.00  0.00    +0.091 C 
ATOM     13  C   UNL     1      34.597 -14.243 -21.476  0.00  0.00    +0.238 C 
ATOM     14  H   UNL     1      35.260 -19.386 -19.134  0.00  0.00    +0.157 HD
ATOM     15  H   UNL     1      35.261 -18.878 -24.256  0.00  0.00    +0.189 HD
ENDROOT
BRANCH  11  19
ATOM     16  C   UNL     1      35.786 -22.631 -15.728  0.00  0.00    +0.048 C 
ATOM     17  C   UNL     1      34.639 -22.865 -16.513  0.00  0.00    +0.015 C 
ATOM     18  C   UNL     1      36.863 -21.941 -16.319  0.00  0.00    +0.015 C 
ATOM     19  C   UNL     1      35.651 -21.745 -18.400  0.00  0.00    +0.054 C 
ATOM     20  C   UNL     1      34.573 -22.427 -17.836  0.00  0.00    +0.006 C 
ATOM     21  C   UNL     1      36.796 -21.502 -17.641  0.00  0.00    +0.006 C 
BRANCH  16  22
ATOM     22  N   UNL     1      35.854 -23.071 -14.402  0.00  0.00    -0.312 N 
ATOM     23  N   UNL     1      36.036 -24.208 -11.788  0.00  0.00    +0.388 N 
ATOM     24  C   UNL     1      34.818 -23.999 -13.928  0.00  0.00    +0.068 C 
ATOM     25  C   UNL     1      37.157 -23.184 -13.739  0.00  0.00    +0.068 C 
ATOM     26  C   UNL     1      34.725 -23.964 -12.401  0.00  0.00    -0.056 C 
ATOM     27  C   UNL     1      36.988 -23.177 -12.217  0.00  0.00    -0.056 C 
ATOM     28  C   UNL     1      35.924 -24.227 -10.329  0.00  0.00    -0.101 C 
ATOM     29  H   UNL     1      36.378 -25.119 -12.092  0.00  0.00    -0.080 HD
ENDBRANCH  16  22
ENDBRANCH  11  19
BRANCH  13  30
ATOM     30  C   UNL     1      34.497 -13.430 -22.730  0.00  0.00    +0.119 C 
BRANCH  30  32
ATOM     31  S   UNL     1      33.424 -10.962 -23.342  0.00  0.00    -0.090 S 
ATOM     32  C   UNL     1      33.339 -12.488 -22.591  0.00  0.00    +0.016 C 
ATOM     33  C   UNL     1      32.171 -12.691 -21.913  0.00  0.00    +0.003 C 
ATOM     34  C   UNL     1      31.309 -11.560 -22.009  0.00  0.00    +0.007 C 
ATOM     35  C   UNL     1      31.868 -10.548 -22.759  0.00  0.00    +0.035 C 
ENDBRANCH  30  32
ENDBRANCH  13  30
TORSDOF 4
ENDMDL
MODEL 2
REMARK VINA RESULT:     -11.1      2.238      3.981
REMARK  Name = 11963557
REMARK  4 active torsions:
REMARK  status: ('A' for Active; 'I' for Inactive)
REMARK    1  A    between atoms: C_11  and  C_19
REMARK    2  A    between atoms: C_13  and  C_30
REMARK    3  A    between atoms: C_16  and  N_22
REMARK    4  A    between atoms: C_30  and  C_32
REMARK                            x       y       z     vdW  Elec       q    Type
REMARK                         _______ _______ _______ _____ _____    ______ ____
ROOT
ATOM      1  O   UNL     1      35.386 -19.034 -23.741  0.00  0.00    -0.270 OA
ATOM      2  O   UNL     1      32.545 -11.508 -21.297  0.00  0.00    -0.274 OA
ATOM      3  N   UNL     1      33.179 -12.814 -23.028  0.00  0.00    -0.233 N 
ATOM      4  N   UNL     1      34.577 -17.229 -22.478  0.00  0.00    -0.264 N 
ATOM      5  N   UNL     1      34.275 -15.293 -25.387  0.00  0.00    -0.273 N 
ATOM      6  N   UNL     1      34.601 -16.487 -24.785  0.00  0.00    -0.157 NA
ATOM      7  C   UNL     1      33.896 -14.928 -23.161  0.00  0.00    +0.067 A 
ATOM      8  C   UNL     1      33.878 -14.423 -24.438  0.00  0.00    +0.093 A 
ATOM      9  C   UNL     1      34.369 -16.256 -23.447  0.00  0.00    +0.157 A 
ATOM     10  C   UNL     1      33.480 -13.985 -22.274  0.00  0.00    +0.076 C 
ATOM     11  C   UNL     1      35.060 -18.533 -22.652  0.00  0.00    +0.251 C 
ATOM     12  C   UNL     1      33.449 -13.155 -24.368  0.00  0.00    +0.091 C 
ATOM     13  C   UNL     1      32.718 -11.605 -22.502  0.00  0.00    +0.238 C 
ATOM     14  H   UNL     1      34.359 -16.970 -21.554  0.00  0.00    +0.157 HD
ATOM     15  H   UNL     1      34.325 -15.106 -26.352  0.00  0.00    +0.189 HD
ENDROOT
BRANCH  11  19
ATOM     16  C   UNL     1      35.475 -20.854 -19.090  0.00  0.00    +0.048 C 
ATOM     17  C   UNL     1      36.577 -20.174 -19.646  0.00  0.00    +0.015 C 
ATOM     18  C   UNL     1      34.231 -20.746 -19.745  0.00  0.00    +0.015 C 
ATOM     19  C   UNL     1      35.201 -19.323 -21.441  0.00  0.00    +0.054 C 
ATOM     20  C   UNL     1      36.441 -19.416 -20.809  0.00  0.00    +0.006 C 
ATOM     21  C   UNL     1      34.097 -19.988 -20.909  0.00  0.00    +0.006 C 
BRANCH  16  22
ATOM     22  N   UNL     1      35.610 -21.614 -17.924  0.00  0.00    -0.312 N 
ATOM     23  N   UNL     1      35.927 -23.372 -15.695  0.00  0.00    +0.388 N 
ATOM     24  C   UNL     1      34.607 -22.653 -17.657  0.00  0.00    +0.068 C 
ATOM     25  C   UNL     1      36.944 -21.863 -17.369  0.00  0.00    +0.068 C 
ATOM     26  C   UNL     1      34.586 -23.008 -16.168  0.00  0.00    -0.056 C 
ATOM     27  C   UNL     1      36.848 -22.245 -15.889  0.00  0.00    -0.056 C 
ATOM     28  C   UNL     1      35.885 -23.763 -14.285  0.00  0.00    -0.101 C 
ATOM     29  H   UNL     1      36.263 -24.169 -16.235  0.00  0.00    -0.080 HD
ENDBRANCH  16  22
ENDBRANCH  11  19
BRANCH  13  30
ATOM     30  C   UNL     1      32.475 -10.517 -23.502  0.00  0.00    +0.119 C 
BRANCH  30  32
ATOM     31  S   UNL     1      32.693  -8.139 -22.117  0.00  0.00    -0.090 S 
ATOM     32  C   UNL     1      33.332  -9.342 -23.140  0.00  0.00    +0.016 C 
ATOM     33  C   UNL     1      34.614  -9.087 -23.535  0.00  0.00    +0.003 C 
ATOM     34  C   UNL     1      35.097  -7.865 -22.983  0.00  0.00    +0.007 C 
ATOM     35  C   UNL     1      34.153  -7.248 -22.192  0.00  0.00    +0.035 C 
ENDBRANCH  30  32
ENDBRANCH  13  30
TORSDOF 4
ENDMDL
MODEL 3
REMARK VINA RESULT:     -10.5      4.211     11.446
REMARK  Name = 11963557
REMARK  4 active torsions:
REMARK  status: ('A' for Active; 'I' for Inactive)
REMARK    1  A    between atoms: C_11  and  C_19
REMARK    2  A    between atoms: C_13  and  C_30
REMARK    3  A    between atoms: C_16  and  N_22
REMARK    4  A    between atoms: C_30  and  C_32
REMARK                            x       y       z     vdW  Elec       q    Type
REMARK                         _______ _______ _______ _____ _____    ______ ____
ROOT
ATOM      1  O   UNL     1      36.770 -18.455 -21.926  0.00  0.00    -0.270 OA
ATOM      2  O   UNL     1      31.048 -22.086 -16.951  0.00  0.00    -0.274 OA
ATOM      3  N   UNL     1      33.047 -22.285 -17.984  0.00  0.00    -0.233 N 
ATOM      4  N   UNL     1      34.888 -18.885 -20.593  0.00  0.00    -0.264 N 
ATOM      5  N   UNL     1      36.130 -22.072 -19.818  0.00  0.00    -0.273 N 
ATOM      6  N   UNL     1      36.279 -20.864 -20.461  0.00  0.00    -0.157 NA
ATOM      7  C   UNL     1      34.233 -20.909 -19.289  0.00  0.00    +0.067 A 
ATOM      8  C   UNL     1      34.955 -22.070 -19.159  0.00  0.00    +0.093 A 
ATOM      9  C   UNL     1      35.133 -20.174 -20.136  0.00  0.00    +0.157 A 
ATOM     10  C   UNL     1      33.068 -20.996 -18.594  0.00  0.00    +0.076 C 
ATOM     11  C   UNL     1      35.684 -18.102 -21.439  0.00  0.00    +0.251 C 
ATOM     12  C   UNL     1      34.251 -22.901 -18.377  0.00  0.00    +0.091 C 
ATOM     13  C   UNL     1      32.024 -22.786 -17.177  0.00  0.00    +0.238 C 
ATOM     14  H   UNL     1      34.050 -18.471 -20.284  0.00  0.00    +0.157 HD
ATOM     15  H   UNL     1      36.776 -22.815 -19.837  0.00  0.00    +0.189 HD
ENDROOT
BRANCH  11  19
ATOM     16  C   UNL     1      34.125 -14.247 -22.418  0.00  0.00    +0.048 C 
ATOM     17  C   UNL     1      34.448 -15.177 -23.426  0.00  0.00    +0.015 C 
ATOM     18  C   UNL     1      34.332 -14.627 -21.076  0.00  0.00    +0.015 C 
ATOM     19  C   UNL     1      35.154 -16.790 -21.772  0.00  0.00    +0.054 C 
ATOM     20  C   UNL     1      34.956 -16.436 -23.106  0.00  0.00    +0.006 C 
ATOM     21  C   UNL     1      34.842 -15.886 -20.757  0.00  0.00    +0.006 C 
BRANCH  16  22
ATOM     22  N   UNL     1      33.614 -12.985 -22.737  0.00  0.00    -0.312 N 
ATOM     23  N   UNL     1      32.481 -10.513 -23.612  0.00  0.00    +0.388 N 
ATOM     24  C   UNL     1      34.182 -12.284 -23.896  0.00  0.00    +0.068 C 
ATOM     25  C   UNL     1      32.217 -12.665 -22.425  0.00  0.00    +0.068 C 
ATOM     26  C   UNL     1      33.913 -10.780 -23.798  0.00  0.00    -0.056 C 
ATOM     27  C   UNL     1      32.011 -11.149 -22.376  0.00  0.00    -0.056 C 
ATOM     28  C   UNL     1      32.229  -9.072 -23.575  0.00  0.00    -0.101 C 
ATOM     29  H   UNL     1      31.967 -10.904 -24.401  0.00  0.00    -0.080 HD
ENDBRANCH  16  22
ENDBRANCH  11  19
BRANCH  13  30
ATOM     30  C   UNL     1      32.234 -24.173 -16.654  0.00  0.00    +0.119 C 
BRANCH  30  32
ATOM     31  S   UNL     1      32.155 -23.695 -13.937  0.00  0.00    -0.090 S 
ATOM     32  C   UNL     1      31.474 -24.314 -15.369  0.00  0.00    +0.016 C 
ATOM     33  C   UNL     1      30.255 -24.899 -15.178  0.00  0.00    +0.003 C 
ATOM     34  C   UNL     1      29.858 -24.839 -13.810  0.00  0.00    +0.007 C 
ATOM     35  C   UNL     1      30.800 -24.210 -13.026  0.00  0.00    +0.035 C 
ENDBRANCH  30  32
ENDBRANCH  13  30
TORSDOF 4
ENDMDL
MODEL 4
REMARK VINA RESULT:     -10.3      4.202     12.083
REMARK  Name = 11963557
REMARK  4 active torsions:
REMARK  status: ('A' for Active; 'I' for Inactive)
REMARK    1  A    between atoms: C_11  and  C_19
REMARK    2  A    between atoms: C_13  and  C_30
REMARK    3  A    between atoms: C_16  and  N_22
REMARK    4  A    between atoms: C_30  and  C_32
REMARK                            x       y       z     vdW  Elec       q    Type
REMARK                         _______ _______ _______ _____ _____    ______ ____
ROOT
ATOM      1  O   UNL     1      33.013 -14.576 -25.406  0.00  0.00    -0.270 OA
ATOM      2  O   UNL     1      36.828 -18.759 -19.189  0.00  0.00    -0.274 OA
ATOM      3  N   UNL     1      35.913 -18.867 -21.252  0.00  0.00    -0.233 N 
ATOM      4  N   UNL     1      34.113 -15.146 -23.412  0.00  0.00    -0.264 N 
ATOM      5  N   UNL     1      34.364 -18.480 -24.472  0.00  0.00    -0.273 N 
ATOM      6  N   UNL     1      33.968 -17.184 -24.714  0.00  0.00    -0.157 NA
ATOM      7  C   UNL     1      34.970 -17.338 -22.585  0.00  0.00    +0.067 A 
ATOM      8  C   UNL     1      34.930 -18.539 -23.251  0.00  0.00    +0.093 A 
ATOM      9  C   UNL     1      34.337 -16.507 -23.573  0.00  0.00    +0.157 A 
ATOM     10  C   UNL     1      35.557 -17.492 -21.368  0.00  0.00    +0.076 C 
ATOM     11  C   UNL     1      33.483 -14.263 -24.299  0.00  0.00    +0.251 C 
ATOM     12  C   UNL     1      35.494 -19.462 -22.459  0.00  0.00    +0.091 C 
ATOM     13  C   UNL     1      36.541 -19.454 -20.153  0.00  0.00    +0.238 C 
ATOM     14  H   UNL     1      34.436 -14.753 -22.569  0.00  0.00    +0.157 HD
ATOM     15  H   UNL     1      34.251 -19.238 -25.088  0.00  0.00    +0.189 HD
ENDROOT
BRANCH  11  19
ATOM     16  C   UNL     1      33.136 -10.219 -22.967  0.00  0.00    +0.048 C 
ATOM     17  C   UNL     1      34.121 -10.593 -23.904  0.00  0.00    +0.015 C 
ATOM     18  C   UNL     1      32.269 -11.219 -22.484  0.00  0.00    +0.015 C 
ATOM     19  C   UNL     1      33.365 -12.887 -23.846  0.00  0.00    +0.054 C 
ATOM     20  C   UNL     1      34.234 -11.913 -24.338  0.00  0.00    +0.006 C 
ATOM     21  C   UNL     1      32.383 -12.540 -22.918  0.00  0.00    +0.006 C 
BRANCH  16  22
ATOM     22  N   UNL     1      33.021  -8.894 -22.532  0.00  0.00    -0.312 N 
ATOM     23  N   UNL     1      32.927  -6.260 -21.432  0.00  0.00    +0.388 N 
ATOM     24  C   UNL     1      32.259  -8.636 -21.303  0.00  0.00    +0.068 C 
ATOM     25  C   UNL     1      34.091  -7.936 -22.827  0.00  0.00    +0.068 C 
ATOM     26  C   UNL     1      31.795  -7.178 -21.256  0.00  0.00    -0.056 C 
ATOM     27  C   UNL     1      33.569  -6.501 -22.730  0.00  0.00    -0.056 C 
ATOM     28  C   UNL     1      32.481  -4.870 -21.331  0.00  0.00    -0.101 C 
ATOM     29  H   UNL     1      33.607  -6.429 -20.692  0.00  0.00    -0.080 HD
ENDBRANCH  16  22
ENDBRANCH  11  19
BRANCH  13  30
ATOM     30  C   UNL     1      36.810 -20.923 -20.270  0.00  0.00    +0.119 C 
BRANCH  30  32
ATOM     31  S   UNL     1      36.520 -21.812 -17.674  0.00  0.00    -0.090 S 
ATOM     32  C   UNL     1      35.955 -21.642 -19.271  0.00  0.00    +0.016 C 
ATOM     33  C   UNL     1      34.728 -22.207 -19.472  0.00  0.00    +0.003 C 
ATOM     34  C   UNL     1      34.227 -22.803 -18.278  0.00  0.00    +0.007 C 
ATOM     35  C   UNL     1      35.101 -22.660 -17.223  0.00  0.00    +0.035 C 
ENDBRANCH  30  32
ENDBRANCH  13  30
TORSDOF 4
ENDMDL
MODEL 5
REMARK VINA RESULT:     -10.1      2.023      3.370
REMARK  Name = 11963557
REMARK  4 active torsions:
REMARK  status: ('A' for Active; 'I' for Inactive)
REMARK    1  A    between atoms: C_11  and  C_19
REMARK    2  A    between atoms: C_13  and  C_30
REMARK    3  A    between atoms: C_16  and  N_22
REMARK    4  A    between atoms: C_30  and  C_32
REMARK                            x       y       z     vdW  Elec       q    Type
REMARK                         _______ _______ _______ _____ _____    ______ ____
ROOT
ATOM      1  O   UNL     1      36.141 -19.032 -22.809  0.00  0.00    -0.270 OA
ATOM      2  O   UNL     1      32.048 -12.159 -20.218  0.00  0.00    -0.274 OA
ATOM      3  N   UNL     1      33.107 -13.194 -21.925  0.00  0.00    -0.233 N 
ATOM      4  N   UNL     1      34.926 -17.471 -21.545  0.00  0.00    -0.264 N 
ATOM      5  N   UNL     1      34.860 -15.271 -24.276  0.00  0.00    -0.273 N 
ATOM      6  N   UNL     1      35.228 -16.483 -23.737  0.00  0.00    -0.157 NA
ATOM      7  C   UNL     1      34.088 -15.194 -22.124  0.00  0.00    +0.067 A 
ATOM      8  C   UNL     1      34.213 -14.556 -23.335  0.00  0.00    +0.093 A 
ATOM      9  C   UNL     1      34.759 -16.425 -22.444  0.00  0.00    +0.157 A 
ATOM     10  C   UNL     1      33.424 -14.403 -21.240  0.00  0.00    +0.076 C 
ATOM     11  C   UNL     1      35.586 -18.690 -21.751  0.00  0.00    +0.251 C 
ATOM     12  C   UNL     1      33.627 -13.356 -23.225  0.00  0.00    +0.091 C 
ATOM     13  C   UNL     1      32.424 -12.105 -21.380  0.00  0.00    +0.238 C 
ATOM     14  H   UNL     1      34.533 -17.339 -20.653  0.00  0.00    +0.157 HD
ATOM     15  H   UNL     1      35.041 -14.975 -25.197  0.00  0.00    +0.189 HD
ENDROOT
BRANCH  11  19
ATOM     16  C   UNL     1      35.705 -21.333 -18.397  0.00  0.00    +0.048 C 
ATOM     17  C   UNL     1      34.522 -21.160 -19.144  0.00  0.00    +0.015 C 
ATOM     18  C   UNL     1      36.848 -20.607 -18.790  0.00  0.00    +0.015 C 
ATOM     19  C   UNL     1      35.626 -19.588 -20.610  0.00  0.00    +0.054 C 
ATOM     20  C   UNL     1      34.484 -20.297 -20.239  0.00  0.00    +0.006 C 
ATOM     21  C   UNL     1      36.808 -19.744 -19.886  0.00  0.00    +0.006 C 
BRANCH  16  22
ATOM     22  N   UNL     1      35.745 -22.198 -17.299  0.00  0.00    -0.312 N 
ATOM     23  N   UNL     1      35.774 -23.759 -14.907  0.00  0.00    +0.388 N 
ATOM     24  C   UNL     1      36.811 -22.007 -16.308  0.00  0.00    +0.068 C 
ATOM     25  C   UNL     1      34.500 -22.781 -16.787  0.00  0.00    +0.068 C 
ATOM     26  C   UNL     1      37.031 -23.289 -15.502  0.00  0.00    -0.056 C 
ATOM     27  C   UNL     1      34.795 -24.038 -15.965  0.00  0.00    -0.056 C 
ATOM     28  C   UNL     1      36.005 -24.954 -14.095  0.00  0.00    -0.101 C 
ATOM     29  H   UNL     1      35.403 -23.029 -14.299  0.00  0.00    -0.080 HD
ENDBRANCH  16  22
ENDBRANCH  11  19
BRANCH  13  30
ATOM     30  C   UNL     1      32.212 -10.946 -22.304  0.00  0.00    +0.119 C 
BRANCH  30  32
ATOM     31  S   UNL     1      32.422  -8.194 -22.249  0.00  0.00    -0.090 S 
ATOM     32  C   UNL     1      32.154  -9.692 -21.484  0.00  0.00    +0.016 C 
ATOM     33  C   UNL     1      31.907  -9.577 -20.146  0.00  0.00    +0.003 C 
ATOM     34  C   UNL     1      31.935  -8.216 -19.726  0.00  0.00    +0.007 C 
ATOM     35  C   UNL     1      32.204  -7.358 -20.770  0.00  0.00    +0.035 C 
ENDBRANCH  30  32
ENDBRANCH  13  30
TORSDOF 4
ENDMDL
MODEL 6
REMARK VINA RESULT:     -10.0      3.830     11.423
REMARK  Name = 11963557
REMARK  4 active torsions:
REMARK  status: ('A' for Active; 'I' for Inactive)
REMARK    1  A    between atoms: C_11  and  C_19
REMARK    2  A    between atoms: C_13  and  C_30
REMARK    3  A    between atoms: C_16  and  N_22
REMARK    4  A    between atoms: C_30  and  C_32
REMARK                            x       y       z     vdW  Elec       q    Type
REMARK                         _______ _______ _______ _____ _____    ______ ____
ROOT
ATOM      1  O   UNL     1      36.810 -18.262 -21.981  0.00  0.00    -0.270 OA
ATOM      2  O   UNL     1      31.242 -22.124 -17.004  0.00  0.00    -0.274 OA
ATOM      3  N   UNL     1      33.236 -22.251 -18.058  0.00  0.00    -0.233 N 
ATOM      4  N   UNL     1      34.953 -18.765 -20.637  0.00  0.00    -0.264 N 
ATOM      5  N   UNL     1      36.295 -21.923 -19.916  0.00  0.00    -0.273 N 
ATOM      6  N   UNL     1      36.403 -20.704 -20.544  0.00  0.00    -0.157 NA
ATOM      7  C   UNL     1      34.370 -20.823 -19.355  0.00  0.00    +0.067 A 
ATOM      8  C   UNL     1      35.127 -21.965 -19.246  0.00  0.00    +0.093 A 
ATOM      9  C   UNL     1      35.240 -20.051 -20.200  0.00  0.00    +0.157 A 
ATOM     10  C   UNL     1      33.215 -20.954 -18.650  0.00  0.00    +0.076 C 
ATOM     11  C   UNL     1      35.719 -17.947 -21.479  0.00  0.00    +0.251 C 
ATOM     12  C   UNL     1      34.454 -22.826 -18.470  0.00  0.00    +0.091 C 
ATOM     13  C   UNL     1      32.236 -22.792 -17.249  0.00  0.00    +0.238 C 
ATOM     14  H   UNL     1      34.107 -18.379 -20.315  0.00  0.00    +0.157 HD
ATOM     15  H   UNL     1      36.962 -22.647 -19.950  0.00  0.00    +0.189 HD
ENDROOT
BRANCH  11  19
ATOM     16  C   UNL     1      34.042 -14.125 -22.392  0.00  0.00    +0.048 C 
ATOM     17  C   UNL     1      34.285 -14.512 -21.058  0.00  0.00    +0.015 C 
ATOM     18  C   UNL     1      34.368 -15.038 -23.415  0.00  0.00    +0.015 C 
ATOM     19  C   UNL     1      35.148 -16.647 -21.790  0.00  0.00    +0.054 C 
ATOM     20  C   UNL     1      34.832 -15.760 -20.761  0.00  0.00    +0.006 C 
ATOM     21  C   UNL     1      34.915 -16.286 -23.117  0.00  0.00    +0.006 C 
BRANCH  16  22
ATOM     22  N   UNL     1      33.493 -12.874 -22.691  0.00  0.00    -0.312 N 
ATOM     23  N   UNL     1      32.295 -10.420 -23.530  0.00  0.00    +0.388 N 
ATOM     24  C   UNL     1      34.069 -12.118 -23.811  0.00  0.00    +0.068 C 
ATOM     25  C   UNL     1      32.077 -12.616 -22.413  0.00  0.00    +0.068 C 
ATOM     26  C   UNL     1      33.741 -10.630 -23.678  0.00  0.00    -0.056 C 
ATOM     27  C   UNL     1      31.812 -11.110 -22.327  0.00  0.00    -0.056 C 
ATOM     28  C   UNL     1      31.988  -8.991 -23.458  0.00  0.00    -0.101 C 
ATOM     29  H   UNL     1      31.820 -10.807 -24.345  0.00  0.00    -0.080 HD
ENDBRANCH  16  22
ENDBRANCH  11  19
BRANCH  13  30
ATOM     30  C   UNL     1      32.491 -24.179 -16.746  0.00  0.00    +0.119 C 
BRANCH  30  32
ATOM     31  S   UNL     1      32.038 -24.161 -14.023  0.00  0.00    -0.090 S 
ATOM     32  C   UNL     1      33.078 -24.083 -15.370  0.00  0.00    +0.016 C 
ATOM     33  C   UNL     1      34.392 -23.932 -15.029  0.00  0.00    +0.003 C 
ATOM     34  C   UNL     1      34.560 -23.879 -13.614  0.00  0.00    +0.007 C 
ATOM     35  C   UNL     1      33.360 -23.993 -12.947  0.00  0.00    +0.035 C 
ENDBRANCH  30  32
ENDBRANCH  13  30
TORSDOF 4
ENDMDL
MODEL 7
REMARK VINA RESULT:      -9.5      6.699     11.647
REMARK  Name = 11963557
REMARK  4 active torsions:
REMARK  status: ('A' for Active; 'I' for Inactive)
REMARK    1  A    between atoms: C_11  and  C_19
REMARK    2  A    between atoms: C_13  and  C_30
REMARK    3  A    between atoms: C_16  and  N_22
REMARK    4  A    between atoms: C_30  and  C_32
REMARK                            x       y       z     vdW  Elec       q    Type
REMARK                         _______ _______ _______ _____ _____    ______ ____
ROOT
ATOM      1  O   UNL     1      30.750  -9.978 -21.476  0.00  0.00    -0.270 OA
ATOM      2  O   UNL     1      35.240  -5.024 -26.574  0.00  0.00    -0.274 OA
ATOM      3  N   UNL     1      33.464  -5.189 -25.188  0.00  0.00    -0.233 N 
ATOM      4  N   UNL     1      32.383  -9.124 -22.931  0.00  0.00    -0.264 N 
ATOM      5  N   UNL     1      30.805  -5.992 -22.907  0.00  0.00    -0.273 N 
ATOM      6  N   UNL     1      30.861  -7.296 -22.470  0.00  0.00    -0.157 NA
ATOM      7  C   UNL     1      32.641  -6.866 -23.957  0.00  0.00    +0.067 A 
ATOM      8  C   UNL     1      31.830  -5.775 -23.755  0.00  0.00    +0.093 A 
ATOM      9  C   UNL     1      31.968  -7.811 -23.107  0.00  0.00    +0.157 A 
ATOM     10  C   UNL     1      33.644  -6.555 -24.820  0.00  0.00    +0.076 C 
ATOM     11  C   UNL     1      31.782 -10.123 -22.152  0.00  0.00    +0.251 C 
ATOM     12  C   UNL     1      32.317  -4.765 -24.489  0.00  0.00    +0.091 C 
ATOM     13  C   UNL     1      34.279  -4.469 -26.063  0.00  0.00    +0.238 C 
ATOM     14  H   UNL     1      33.199  -9.387 -23.413  0.00  0.00    +0.157 HD
ATOM     15  H   UNL     1      30.127  -5.328 -22.646  0.00  0.00    +0.189 HD
ENDROOT
BRANCH  11  19
ATOM     16  C   UNL     1      33.685 -13.947 -22.239  0.00  0.00    +0.048 C 
ATOM     17  C   UNL     1      32.774 -13.612 -21.216  0.00  0.00    +0.015 C 
ATOM     18  C   UNL     1      33.949 -12.982 -23.232  0.00  0.00    +0.015 C 
ATOM     19  C   UNL     1      32.430 -11.424 -22.181  0.00  0.00    +0.054 C 
ATOM     20  C   UNL     1      32.153 -12.363 -21.188  0.00  0.00    +0.006 C 
ATOM     21  C   UNL     1      33.328 -11.733 -23.203  0.00  0.00    +0.006 C 
BRANCH  16  22
ATOM     22  N   UNL     1      34.307 -15.199 -22.268  0.00  0.00    -0.312 N 
ATOM     23  N   UNL     1      35.802 -17.631 -22.382  0.00  0.00    +0.388 N 
ATOM     24  C   UNL     1      34.856 -15.667 -23.547  0.00  0.00    +0.068 C 
ATOM     25  C   UNL     1      34.979 -15.705 -21.067  0.00  0.00    +0.068 C 
ATOM     26  C   UNL     1      35.013 -17.189 -23.539  0.00  0.00    -0.056 C 
ATOM     27  C   UNL     1      35.134 -17.227 -21.139  0.00  0.00    -0.056 C 
ATOM     28  C   UNL     1      35.992 -19.081 -22.413  0.00  0.00    -0.101 C 
ATOM     29  H   UNL     1      36.720 -17.189 -22.421  0.00  0.00    -0.080 HD
ENDBRANCH  16  22
ENDBRANCH  11  19
BRANCH  13  30
ATOM     30  C   UNL     1      33.881  -3.043 -26.291  0.00  0.00    +0.119 C 
BRANCH  30  32
ATOM     31  S   UNL     1      33.940  -2.564 -29.009  0.00  0.00    -0.090 S 
ATOM     32  C   UNL     1      33.112  -2.967 -27.576  0.00  0.00    +0.016 C 
ATOM     33  C   UNL     1      31.778  -3.185 -27.767  0.00  0.00    +0.003 C 
ATOM     34  C   UNL     1      31.414  -3.018 -29.135  0.00  0.00    +0.007 C 
ATOM     35  C   UNL     1      32.494  -2.680 -29.920  0.00  0.00    +0.035 C 
ENDBRANCH  30  32
ENDBRANCH  13  30
TORSDOF 4
ENDMDL
