MODEL 1
REMARK VINA RESULT:     -13.4      0.000      0.000
REMARK  Name = 71351
REMARK  4 active torsions:
REMARK  status: ('A' for Active; 'I' for Inactive)
REMARK    1  A    between atoms: N_1  and  C_18
REMARK    2  A    between atoms: C_2  and  C_11
REMARK    3  A    between atoms: C_18  and  C_19
REMARK    4  A    between atoms: C_19  and  C_23
REMARK                            x       y       z     vdW  Elec       q    Type
REMARK                         _______ _______ _______ _____ _____    ______ ____
ROOT
ATOM      1  N   UNL     1      35.580 -19.456 -20.398  0.00  0.00    +0.387 N 
ATOM      2  C   UNL     1      35.310 -17.917 -22.880  0.00  0.00    +0.039 C 
ATOM      3  C   UNL     1      35.703 -17.266 -21.543  0.00  0.00    -0.017 C 
ATOM      4  C   UNL     1      34.516 -19.207 -22.619  0.00  0.00    -0.017 C 
ATOM      5  C   UNL     1      36.410 -18.266 -20.626  0.00  0.00    -0.077 C 
ATOM      6  C   UNL     1      35.268 -20.136 -21.662  0.00  0.00    -0.077 C 
ATOM      7  H   UNL     1      34.701 -19.152 -19.979  0.00  0.00    -0.080 HD
ENDROOT
BRANCH   2  11
ATOM      8  F   UNL     1      33.125 -11.702 -24.232  0.00  0.00    -0.204 F 
ATOM      9  O   UNL     1      33.488 -16.314 -25.544  0.00  0.00    -0.354 OA
ATOM     10  N   UNL     1      34.074 -17.422 -24.943  0.00  0.00    -0.081 NA
ATOM     11  C   UNL     1      34.585 -16.963 -23.803  0.00  0.00    +0.100 A 
ATOM     12  C   UNL     1      34.366 -15.590 -23.615  0.00  0.00    +0.054 A 
ATOM     13  C   UNL     1      33.665 -15.223 -24.750  0.00  0.00    +0.179 A 
ATOM     14  C   UNL     1      34.661 -14.615 -22.651  0.00  0.00    +0.007 C 
ATOM     15  C   UNL     1      33.220 -13.931 -25.014  0.00  0.00    +0.070 C 
ATOM     16  C   UNL     1      34.229 -13.302 -22.884  0.00  0.00    +0.030 C 
ATOM     17  C   UNL     1      33.522 -12.969 -24.044  0.00  0.00    +0.143 C 
ENDBRANCH   2  11
BRANCH   1  18
ATOM     18  C   UNL     1      36.246 -20.375 -19.473  0.00  0.00    -0.076 C 
BRANCH  18  19
ATOM     19  C   UNL     1      35.687 -21.780 -19.647  0.00  0.00    -0.007 C 
BRANCH  19  23
ATOM     20  O   UNL     1      36.338 -22.784 -17.145  0.00  0.00    -0.274 OA
ATOM     21  N   UNL     1      34.132 -22.933 -16.389  0.00  0.00    -0.211 N 
ATOM     22  N   UNL     1      32.373 -22.204 -17.809  0.00  0.00    -0.395 NA
ATOM     23  C   UNL     1      34.634 -22.067 -18.617  0.00  0.00    +0.123 C 
ATOM     24  C   UNL     1      33.307 -21.890 -18.764  0.00  0.00    +0.097 C 
ATOM     25  C   UNL     1      35.130 -22.628 -17.320  0.00  0.00    +0.241 C 
ATOM     26  C   UNL     1      32.782 -22.703 -16.682  0.00  0.00    +0.188 C 
ATOM     27  C   UNL     1      32.695 -21.297 -20.007  0.00  0.00    +0.062 C 
ATOM     28  C   UNL     1      31.777 -23.059 -15.618  0.00  0.00    +0.023 C 
ATOM     29  C   UNL     1      34.508 -23.467 -15.161  0.00  0.00    +0.074 C 
ATOM     30  C   UNL     1      32.217 -23.570 -14.459  0.00  0.00    +0.001 C 
ATOM     31  C   UNL     1      33.615 -23.781 -14.219  0.00  0.00    +0.016 C 
ATOM     32  C   UNL     1      30.325 -22.824 -15.905  0.00  0.00    +0.035 C 
ENDBRANCH  19  23
ENDBRANCH  18  19
ENDBRANCH   1  18
TORSDOF 4
ENDMDL
MODEL 2
REMARK VINA RESULT:     -13.3      1.165      2.082
REMARK  Name = 71351
REMARK  4 active torsions:
REMARK  status: ('A' for Active; 'I' for Inactive)
REMARK    1  A    between atoms: N_1  and  C_18
REMARK    2  A    between atoms: C_2  and  C_11
REMARK    3  A    between atoms: C_18  and  C_19
REMARK    4  A    between atoms: C_19  and  C_23
REMARK                            x       y       z     vdW  Elec       q    Type
REMARK                         _______ _______ _______ _____ _____    ______ ____
ROOT
ATOM      1  N   UNL     1      35.854 -19.688 -19.937  0.00  0.00    +0.387 N 
ATOM      2  C   UNL     1      35.360 -18.504 -22.575  0.00  0.00    +0.039 C 
ATOM      3  C   UNL     1      36.380 -17.918 -21.584  0.00  0.00    -0.017 C 
ATOM      4  C   UNL     1      34.286 -19.295 -21.811  0.00  0.00    -0.017 C 
ATOM      5  C   UNL     1      36.935 -18.999 -20.654  0.00  0.00    -0.077 C 
ATOM      6  C   UNL     1      34.918 -20.326 -20.872  0.00  0.00    -0.077 C 
ATOM      7  H   UNL     1      35.337 -18.991 -19.401  0.00  0.00    -0.080 HD
ENDROOT
BRANCH   2  11
ATOM      8  F   UNL     1      33.534 -12.126 -23.675  0.00  0.00    -0.204 F 
ATOM      9  O   UNL     1      33.893 -16.642 -25.289  0.00  0.00    -0.354 OA
ATOM     10  N   UNL     1      34.374 -17.813 -24.714  0.00  0.00    -0.081 NA
ATOM     11  C   UNL     1      34.772 -17.459 -23.494  0.00  0.00    +0.100 A 
ATOM     12  C   UNL     1      34.577 -16.095 -23.227  0.00  0.00    +0.054 A 
ATOM     13  C   UNL     1      34.016 -15.619 -24.399  0.00  0.00    +0.179 A 
ATOM     14  C   UNL     1      34.795 -15.205 -22.165  0.00  0.00    +0.007 C 
ATOM     15  C   UNL     1      33.644 -14.295 -24.610  0.00  0.00    +0.070 C 
ATOM     16  C   UNL     1      34.433 -13.862 -22.343  0.00  0.00    +0.030 C 
ATOM     17  C   UNL     1      33.868 -13.418 -23.543  0.00  0.00    +0.143 C 
ENDBRANCH   2  11
BRANCH   1  18
ATOM     18  C   UNL     1      36.405 -20.677 -19.010  0.00  0.00    -0.076 C 
BRANCH  18  19
ATOM     19  C   UNL     1      35.645 -21.989 -19.142  0.00  0.00    -0.007 C 
BRANCH  19  23
ATOM     20  O   UNL     1      32.928 -22.492 -18.888  0.00  0.00    -0.274 OA
ATOM     21  N   UNL     1      33.002 -22.935 -16.594  0.00  0.00    -0.211 N 
ATOM     22  N   UNL     1      35.095 -22.876 -15.474  0.00  0.00    -0.395 NA
ATOM     23  C   UNL     1      35.039 -22.390 -17.829  0.00  0.00    +0.123 C 
ATOM     24  C   UNL     1      35.695 -22.546 -16.663  0.00  0.00    +0.097 C 
ATOM     25  C   UNL     1      33.556 -22.607 -17.835  0.00  0.00    +0.241 C 
ATOM     26  C   UNL     1      33.809 -23.056 -15.457  0.00  0.00    +0.188 C 
ATOM     27  C   UNL     1      37.189 -22.395 -16.540  0.00  0.00    +0.062 C 
ATOM     28  C   UNL     1      33.126 -23.416 -14.163  0.00  0.00    +0.023 C 
ATOM     29  C   UNL     1      31.629 -23.143 -16.514  0.00  0.00    +0.074 C 
ATOM     30  C   UNL     1      31.797 -23.601 -14.165  0.00  0.00    +0.001 C 
ATOM     31  C   UNL     1      31.025 -23.463 -15.366  0.00  0.00    +0.016 C 
ATOM     32  C   UNL     1      33.965 -23.551 -12.930  0.00  0.00    +0.035 C 
ENDBRANCH  19  23
ENDBRANCH  18  19
ENDBRANCH   1  18
TORSDOF 4
ENDMDL
MODEL 3
REMARK VINA RESULT:     -13.2      4.395     10.073
REMARK  Name = 71351
REMARK  4 active torsions:
REMARK  status: ('A' for Active; 'I' for Inactive)
REMARK    1  A    between atoms: N_1  and  C_18
REMARK    2  A    between atoms: C_2  and  C_11
REMARK    3  A    between atoms: C_18  and  C_19
REMARK    4  A    between atoms: C_19  and  C_23
REMARK                            x       y       z     vdW  Elec       q    Type
REMARK                         _______ _______ _______ _____ _____    ______ ____
ROOT
ATOM      1  N   UNL     1      34.106 -15.173 -22.797  0.00  0.00    +0.387 N 
ATOM      2  C   UNL     1      35.817 -17.230 -21.595  0.00  0.00    +0.039 C 
ATOM      3  C   UNL     1      35.138 -17.417 -22.962  0.00  0.00    -0.017 C 
ATOM      4  C   UNL     1      35.022 -16.222 -20.750  0.00  0.00    -0.017 C 
ATOM      5  C   UNL     1      34.897 -16.071 -23.649  0.00  0.00    -0.077 C 
ATOM      6  C   UNL     1      34.786 -14.919 -21.519  0.00  0.00    -0.077 C 
ATOM      7  H   UNL     1      33.218 -15.632 -22.595  0.00  0.00    -0.080 HD
ENDROOT
BRANCH   2  11
ATOM      8  F   UNL     1      33.341 -22.859 -18.872  0.00  0.00    -0.204 F 
ATOM      9  O   UNL     1      37.157 -20.124 -19.916  0.00  0.00    -0.354 OA
ATOM     10  N   UNL     1      37.290 -18.896 -20.554  0.00  0.00    -0.081 NA
ATOM     11  C   UNL     1      36.049 -18.539 -20.875  0.00  0.00    +0.100 A 
ATOM     12  C   UNL     1      35.086 -19.480 -20.478  0.00  0.00    +0.054 A 
ATOM     13  C   UNL     1      35.841 -20.470 -19.873  0.00  0.00    +0.179 A 
ATOM     14  C   UNL     1      33.693 -19.630 -20.546  0.00  0.00    +0.007 C 
ATOM     15  C   UNL     1      35.311 -21.629 -19.314  0.00  0.00    +0.070 C 
ATOM     16  C   UNL     1      33.125 -20.787 -19.993  0.00  0.00    +0.030 C 
ATOM     17  C   UNL     1      33.921 -21.767 -19.390  0.00  0.00    +0.143 C 
ENDBRANCH   2  11
BRANCH   1  18
ATOM     18  C   UNL     1      33.836 -13.914 -23.492  0.00  0.00    -0.076 C 
BRANCH  18  19
ATOM     19  C   UNL     1      32.398 -13.483 -23.241  0.00  0.00    -0.007 C 
BRANCH  19  23
ATOM     20  O   UNL     1      31.882 -13.439 -20.516  0.00  0.00    -0.274 OA
ATOM     21  N   UNL     1      31.955 -11.111 -20.318  0.00  0.00    -0.211 N 
ATOM     22  N   UNL     1      32.448  -9.804 -22.239  0.00  0.00    -0.395 NA
ATOM     23  C   UNL     1      32.351 -12.196 -22.471  0.00  0.00    +0.123 C 
ATOM     24  C   UNL     1      32.539 -10.960 -22.973  0.00  0.00    +0.097 C 
ATOM     25  C   UNL     1      32.039 -12.323 -21.011  0.00  0.00    +0.241 C 
ATOM     26  C   UNL     1      32.166  -9.893 -20.974  0.00  0.00    +0.188 C 
ATOM     27  C   UNL     1      32.896 -10.710 -24.415  0.00  0.00    +0.062 C 
ATOM     28  C   UNL     1      32.059  -8.638 -20.147  0.00  0.00    +0.023 C 
ATOM     29  C   UNL     1      31.660 -11.142 -18.960  0.00  0.00    +0.074 C 
ATOM     30  C   UNL     1      31.770  -8.748 -18.843  0.00  0.00    +0.001 C 
ATOM     31  C   UNL     1      31.565 -10.028 -18.228  0.00  0.00    +0.016 C 
ATOM     32  C   UNL     1      32.279  -7.320 -20.824  0.00  0.00    +0.035 C 
ENDBRANCH  19  23
ENDBRANCH  18  19
ENDBRANCH   1  18
TORSDOF 4
ENDMDL
MODEL 4
REMARK VINA RESULT:     -13.1      4.311     10.343
REMARK  Name = 71351
REMARK  4 active torsions:
REMARK  status: ('A' for Active; 'I' for Inactive)
REMARK    1  A    between atoms: N_1  and  C_18
REMARK    2  A    between atoms: C_2  and  C_11
REMARK    3  A    between atoms: C_18  and  C_19
REMARK    4  A    between atoms: C_19  and  C_23
REMARK                            x       y       z     vdW  Elec       q    Type
REMARK                         _______ _______ _______ _____ _____    ______ ____
ROOT
ATOM      1  N   UNL     1      34.245 -15.204 -22.777  0.00  0.00    +0.387 N 
ATOM      2  C   UNL     1      35.877 -17.310 -21.549  0.00  0.00    +0.039 C 
ATOM      3  C   UNL     1      35.212 -17.478 -22.926  0.00  0.00    -0.017 C 
ATOM      4  C   UNL     1      35.101 -16.277 -20.717  0.00  0.00    -0.017 C 
ATOM      5  C   UNL     1      35.020 -16.126 -23.618  0.00  0.00    -0.077 C 
ATOM      6  C   UNL     1      34.914 -14.969 -21.491  0.00  0.00    -0.077 C 
ATOM      7  H   UNL     1      33.341 -15.636 -22.587  0.00  0.00    -0.080 HD
ENDROOT
BRANCH   2  11
ATOM      8  F   UNL     1      33.195 -22.856 -18.853  0.00  0.00    -0.204 F 
ATOM      9  O   UNL     1      37.106 -20.241 -19.850  0.00  0.00    -0.354 OA
ATOM     10  N   UNL     1      37.285 -19.019 -20.487  0.00  0.00    -0.081 NA
ATOM     11  C   UNL     1      36.059 -18.624 -20.825  0.00  0.00    +0.100 A 
ATOM     12  C   UNL     1      35.063 -19.535 -20.439  0.00  0.00    +0.054 A 
ATOM     13  C   UNL     1      35.780 -20.546 -19.824  0.00  0.00    +0.179 A 
ATOM     14  C   UNL     1      33.667 -19.643 -20.525  0.00  0.00    +0.007 C 
ATOM     15  C   UNL     1      35.208 -21.688 -19.270  0.00  0.00    +0.070 C 
ATOM     16  C   UNL     1      33.057 -20.780 -19.979  0.00  0.00    +0.030 C 
ATOM     17  C   UNL     1      33.815 -21.783 -19.364  0.00  0.00    +0.143 C 
ENDBRANCH   2  11
BRANCH   1  18
ATOM     18  C   UNL     1      34.022 -13.939 -23.477  0.00  0.00    -0.076 C 
BRANCH  18  19
ATOM     19  C   UNL     1      32.552 -13.555 -23.397  0.00  0.00    -0.007 C 
BRANCH  19  23
ATOM     20  O   UNL     1      32.723 -10.926 -24.266  0.00  0.00    -0.274 OA
ATOM     21  N   UNL     1      32.351  -9.976 -22.163  0.00  0.00    -0.211 N 
ATOM     22  N   UNL     1      31.944 -11.402 -20.308  0.00  0.00    -0.395 NA
ATOM     23  C   UNL     1      32.351 -12.402 -22.458  0.00  0.00    +0.123 C 
ATOM     24  C   UNL     1      32.081 -12.485 -21.140  0.00  0.00    +0.097 C 
ATOM     25  C   UNL     1      32.496 -11.038 -23.061  0.00  0.00    +0.241 C 
ATOM     26  C   UNL     1      32.078 -10.212 -20.811  0.00  0.00    +0.188 C 
ATOM     27  C   UNL     1      31.874 -13.797 -20.430  0.00  0.00    +0.062 C 
ATOM     28  C   UNL     1      31.935  -9.008 -19.917  0.00  0.00    +0.023 C 
ATOM     29  C   UNL     1      32.480  -8.678 -22.643  0.00  0.00    +0.074 C 
ATOM     30  C   UNL     1      32.073  -7.787 -20.453  0.00  0.00    +0.001 C 
ATOM     31  C   UNL     1      32.352  -7.611 -21.849  0.00  0.00    +0.016 C 
ATOM     32  C   UNL     1      31.644  -9.231 -18.465  0.00  0.00    +0.035 C 
ENDBRANCH  19  23
ENDBRANCH  18  19
ENDBRANCH   1  18
TORSDOF 4
ENDMDL
MODEL 5
REMARK VINA RESULT:     -12.7      3.486     10.228
REMARK  Name = 71351
REMARK  4 active torsions:
REMARK  status: ('A' for Active; 'I' for Inactive)
REMARK    1  A    between atoms: N_1  and  C_18
REMARK    2  A    between atoms: C_2  and  C_11
REMARK    3  A    between atoms: C_18  and  C_19
REMARK    4  A    between atoms: C_19  and  C_23
REMARK                            x       y       z     vdW  Elec       q    Type
REMARK                         _______ _______ _______ _____ _____    ______ ____
ROOT
ATOM      1  N   UNL     1      34.491 -20.454 -19.995  0.00  0.00    +0.387 N 
ATOM      2  C   UNL     1      34.217 -22.610 -18.025  0.00  0.00    +0.039 C 
ATOM      3  C   UNL     1      33.065 -21.649 -18.363  0.00  0.00    -0.017 C 
ATOM      4  C   UNL     1      35.565 -21.936 -18.329  0.00  0.00    -0.017 C 
ATOM      5  C   UNL     1      33.192 -21.109 -19.790  0.00  0.00    -0.077 C 
ATOM      6  C   UNL     1      35.600 -21.387 -19.758  0.00  0.00    -0.077 C 
ATOM      7  H   UNL     1      34.569 -19.693 -19.320  0.00  0.00    -0.080 HD
ENDROOT
BRANCH   2  11
ATOM      8  F   UNL     1      30.525 -24.182 -12.628  0.00  0.00    -0.204 F 
ATOM      9  O   UNL     1      34.839 -23.964 -14.744  0.00  0.00    -0.354 OA
ATOM     10  N   UNL     1      35.251 -23.537 -16.001  0.00  0.00    -0.081 NA
ATOM     11  C   UNL     1      34.137 -23.144 -16.613  0.00  0.00    +0.100 A 
ATOM     12  C   UNL     1      32.991 -23.292 -15.817  0.00  0.00    +0.054 A 
ATOM     13  C   UNL     1      33.490 -23.817 -14.638  0.00  0.00    +0.179 A 
ATOM     14  C   UNL     1      31.613 -23.055 -15.929  0.00  0.00    +0.007 C 
ATOM     15  C   UNL     1      32.711 -24.137 -13.530  0.00  0.00    +0.070 C 
ATOM     16  C   UNL     1      30.797 -23.366 -14.832  0.00  0.00    +0.030 C 
ATOM     17  C   UNL     1      31.338 -23.898 -13.656  0.00  0.00    +0.143 C 
ENDBRANCH   2  11
BRANCH   1  18
ATOM     18  C   UNL     1      34.573 -19.893 -21.345  0.00  0.00    -0.076 C 
BRANCH  18  19
ATOM     19  C   UNL     1      35.596 -18.768 -21.376  0.00  0.00    -0.007 C 
BRANCH  19  23
ATOM     20  O   UNL     1      35.313 -16.221 -20.312  0.00  0.00    -0.274 OA
ATOM     21  N   UNL     1      34.473 -15.259 -22.269  0.00  0.00    -0.211 N 
ATOM     22  N   UNL     1      34.261 -16.602 -24.217  0.00  0.00    -0.395 NA
ATOM     23  C   UNL     1      35.103 -17.619 -22.206  0.00  0.00    +0.123 C 
ATOM     24  C   UNL     1      34.746 -17.670 -23.504  0.00  0.00    +0.097 C 
ATOM     25  C   UNL     1      34.978 -16.307 -21.494  0.00  0.00    +0.241 C 
ATOM     26  C   UNL     1      34.134 -15.460 -23.613  0.00  0.00    +0.188 C 
ATOM     27  C   UNL     1      34.865 -18.921 -24.335  0.00  0.00    +0.062 C 
ATOM     28  C   UNL     1      33.601 -14.273 -24.373  0.00  0.00    +0.023 C 
ATOM     29  C   UNL     1      34.318 -14.010 -21.679  0.00  0.00    +0.074 C 
ATOM     30  C   UNL     1      33.480 -13.100 -23.735  0.00  0.00    +0.001 C 
ATOM     31  C   UNL     1      33.845 -12.959 -22.355  0.00  0.00    +0.016 C 
ATOM     32  C   UNL     1      33.229 -14.459 -25.812  0.00  0.00    +0.035 C 
ENDBRANCH  19  23
ENDBRANCH  18  19
ENDBRANCH   1  18
TORSDOF 4
ENDMDL
MODEL 6
REMARK VINA RESULT:     -12.3      1.359      1.852
REMARK  Name = 71351
REMARK  4 active torsions:
REMARK  status: ('A' for Active; 'I' for Inactive)
REMARK    1  A    between atoms: N_1  and  C_18
REMARK    2  A    between atoms: C_2  and  C_11
REMARK    3  A    between atoms: C_18  and  C_19
REMARK    4  A    between atoms: C_19  and  C_23
REMARK                            x       y       z     vdW  Elec       q    Type
REMARK                         _______ _______ _______ _____ _____    ______ ____
ROOT
ATOM      1  N   UNL     1      36.176 -19.708 -19.675  0.00  0.00    +0.387 N 
ATOM      2  C   UNL     1      35.438 -18.808 -22.367  0.00  0.00    +0.039 C 
ATOM      3  C   UNL     1      36.663 -18.256 -21.619  0.00  0.00    -0.017 C 
ATOM      4  C   UNL     1      34.402 -19.330 -21.359  0.00  0.00    -0.017 C 
ATOM      5  C   UNL     1      37.213 -19.280 -20.623  0.00  0.00    -0.077 C 
ATOM      6  C   UNL     1      35.036 -20.315 -20.373  0.00  0.00    -0.077 C 
ATOM      7  H   UNL     1      35.839 -18.880 -19.182  0.00  0.00    -0.080 HD
ENDROOT
BRANCH   2  11
ATOM      8  F   UNL     1      33.630 -12.494 -23.813  0.00  0.00    -0.204 F 
ATOM      9  O   UNL     1      33.975 -17.092 -25.179  0.00  0.00    -0.354 OA
ATOM     10  N   UNL     1      34.453 -18.231 -24.541  0.00  0.00    -0.081 NA
ATOM     11  C   UNL     1      34.852 -17.812 -23.343  0.00  0.00    +0.100 A 
ATOM     12  C   UNL     1      34.662 -16.435 -23.150  0.00  0.00    +0.054 A 
ATOM     13  C   UNL     1      34.102 -16.023 -24.346  0.00  0.00    +0.179 A 
ATOM     14  C   UNL     1      34.883 -15.489 -22.138  0.00  0.00    +0.007 C 
ATOM     15  C   UNL     1      33.733 -14.711 -24.628  0.00  0.00    +0.070 C 
ATOM     16  C   UNL     1      34.524 -14.157 -22.388  0.00  0.00    +0.030 C 
ATOM     17  C   UNL     1      33.960 -13.777 -23.611  0.00  0.00    +0.143 C 
ENDBRANCH   2  11
BRANCH   1  18
ATOM     18  C   UNL     1      36.733 -20.642 -18.695  0.00  0.00    -0.076 C 
BRANCH  18  19
ATOM     19  C   UNL     1      36.017 -21.981 -18.792  0.00  0.00    -0.007 C 
BRANCH  19  23
ATOM     20  O   UNL     1      37.676 -22.286 -16.590  0.00  0.00    -0.274 OA
ATOM     21  N   UNL     1      35.983 -22.977 -15.135  0.00  0.00    -0.211 N 
ATOM     22  N   UNL     1      33.749 -23.085 -15.932  0.00  0.00    -0.395 NA
ATOM     23  C   UNL     1      35.479 -22.397 -17.454  0.00  0.00    +0.123 C 
ATOM     24  C   UNL     1      34.192 -22.668 -17.161  0.00  0.00    +0.097 C 
ATOM     25  C   UNL     1      36.494 -22.545 -16.362  0.00  0.00    +0.241 C 
ATOM     26  C   UNL     1      34.616 -23.230 -14.976  0.00  0.00    +0.188 C 
ATOM     27  C   UNL     1      33.078 -22.518 -18.164  0.00  0.00    +0.062 C 
ATOM     28  C   UNL     1      34.154 -23.689 -13.617  0.00  0.00    +0.023 C 
ATOM     29  C   UNL     1      36.863 -23.148 -14.071  0.00  0.00    +0.074 C 
ATOM     30  C   UNL     1      35.062 -23.831 -12.641  0.00  0.00    +0.001 C 
ATOM     31  C   UNL     1      36.451 -23.555 -12.868  0.00  0.00    +0.016 C 
ATOM     32  C   UNL     1      32.696 -23.969 -13.419  0.00  0.00    +0.035 C 
ENDBRANCH  19  23
ENDBRANCH  18  19
ENDBRANCH   1  18
TORSDOF 4
ENDMDL
MODEL 7
REMARK VINA RESULT:     -12.1      3.669     10.269
REMARK  Name = 71351
REMARK  4 active torsions:
REMARK  status: ('A' for Active; 'I' for Inactive)
REMARK    1  A    between atoms: N_1  and  C_18
REMARK    2  A    between atoms: C_2  and  C_11
REMARK    3  A    between atoms: C_18  and  C_19
REMARK    4  A    between atoms: C_19  and  C_23
REMARK                            x       y       z     vdW  Elec       q    Type
REMARK                         _______ _______ _______ _____ _____    ______ ____
ROOT
ATOM      1  N   UNL     1      34.494 -20.348 -20.037  0.00  0.00    +0.387 N 
ATOM      2  C   UNL     1      34.367 -22.502 -18.049  0.00  0.00    +0.039 C 
ATOM      3  C   UNL     1      33.132 -21.683 -18.459  0.00  0.00    -0.017 C 
ATOM      4  C   UNL     1      35.643 -21.680 -18.296  0.00  0.00    -0.017 C 
ATOM      5  C   UNL     1      33.270 -21.146 -19.886  0.00  0.00    -0.077 C 
ATOM      6  C   UNL     1      35.689 -21.145 -19.729  0.00  0.00    -0.077 C 
ATOM      7  H   UNL     1      34.451 -19.576 -19.371  0.00  0.00    -0.080 HD
ENDROOT
BRANCH   2  11
ATOM      8  F   UNL     1      37.350 -23.891 -12.184  0.00  0.00    -0.204 F 
ATOM      9  O   UNL     1      33.361 -23.867 -14.870  0.00  0.00    -0.354 OA
ATOM     10  N   UNL     1      33.106 -23.462 -16.175  0.00  0.00    -0.081 NA
ATOM     11  C   UNL     1      34.276 -23.027 -16.635  0.00  0.00    +0.100 A 
ATOM     12  C   UNL     1      35.308 -23.122 -15.689  0.00  0.00    +0.054 A 
ATOM     13  C   UNL     1      34.675 -23.663 -14.583  0.00  0.00    +0.179 A 
ATOM     14  C   UNL     1      36.678 -22.830 -15.615  0.00  0.00    +0.007 C 
ATOM     15  C   UNL     1      35.309 -23.944 -13.376  0.00  0.00    +0.070 C 
ATOM     16  C   UNL     1      37.349 -23.100 -14.414  0.00  0.00    +0.030 C 
ATOM     17  C   UNL     1      36.674 -23.646 -13.316  0.00  0.00    +0.143 C 
ENDBRANCH   2  11
BRANCH   1  18
ATOM     18  C   UNL     1      34.581 -19.795 -21.389  0.00  0.00    -0.076 C 
BRANCH  18  19
ATOM     19  C   UNL     1      35.594 -18.659 -21.420  0.00  0.00    -0.007 C 
BRANCH  19  23
ATOM     20  O   UNL     1      35.297 -16.114 -20.357  0.00  0.00    -0.274 OA
ATOM     21  N   UNL     1      34.442 -15.160 -22.312  0.00  0.00    -0.211 N 
ATOM     22  N   UNL     1      34.231 -16.506 -24.257  0.00  0.00    -0.395 NA
ATOM     23  C   UNL     1      35.088 -17.515 -22.249  0.00  0.00    +0.123 C 
ATOM     24  C   UNL     1      34.727 -17.570 -23.546  0.00  0.00    +0.097 C 
ATOM     25  C   UNL     1      34.957 -16.204 -21.537  0.00  0.00    +0.241 C 
ATOM     26  C   UNL     1      34.098 -15.364 -23.653  0.00  0.00    +0.188 C 
ATOM     27  C   UNL     1      34.851 -18.820 -24.376  0.00  0.00    +0.062 C 
ATOM     28  C   UNL     1      33.554 -14.182 -24.412  0.00  0.00    +0.023 C 
ATOM     29  C   UNL     1      34.280 -13.911 -21.722  0.00  0.00    +0.074 C 
ATOM     30  C   UNL     1      33.427 -13.009 -23.774  0.00  0.00    +0.001 C 
ATOM     31  C   UNL     1      33.797 -12.864 -22.396  0.00  0.00    +0.016 C 
ATOM     32  C   UNL     1      33.177 -14.371 -25.849  0.00  0.00    +0.035 C 
ENDBRANCH  19  23
ENDBRANCH  18  19
ENDBRANCH   1  18
TORSDOF 4
ENDMDL
MODEL 8
REMARK VINA RESULT:     -12.0      3.594      9.416
REMARK  Name = 71351
REMARK  4 active torsions:
REMARK  status: ('A' for Active; 'I' for Inactive)
REMARK    1  A    between atoms: N_1  and  C_18
REMARK    2  A    between atoms: C_2  and  C_11
REMARK    3  A    between atoms: C_18  and  C_19
REMARK    4  A    between atoms: C_19  and  C_23
REMARK                            x       y       z     vdW  Elec       q    Type
REMARK                         _______ _______ _______ _____ _____    ______ ____
ROOT
ATOM      1  N   UNL     1      34.852 -18.272 -22.298  0.00  0.00    +0.387 N 
ATOM      2  C   UNL     1      35.664 -20.387 -20.434  0.00  0.00    +0.039 C 
ATOM      3  C   UNL     1      34.192 -19.996 -20.648  0.00  0.00    -0.017 C 
ATOM      4  C   UNL     1      36.576 -19.199 -20.783  0.00  0.00    -0.017 C 
ATOM      5  C   UNL     1      33.969 -19.420 -22.049  0.00  0.00    -0.077 C 
ATOM      6  C   UNL     1      36.265 -18.654 -22.179  0.00  0.00    -0.077 C 
ATOM      7  H   UNL     1      34.656 -17.565 -21.589  0.00  0.00    -0.080 HD
ENDROOT
BRANCH   2  11
ATOM      8  F   UNL     1      33.730 -24.234 -15.268  0.00  0.00    -0.204 F 
ATOM      9  O   UNL     1      36.975 -21.250 -17.190  0.00  0.00    -0.354 OA
ATOM     10  N   UNL     1      37.038 -20.585 -18.409  0.00  0.00    -0.081 NA
ATOM     11  C   UNL     1      35.926 -20.937 -19.050  0.00  0.00    +0.100 A 
ATOM     12  C   UNL     1      35.119 -21.814 -18.310  0.00  0.00    +0.054 A 
ATOM     13  C   UNL     1      35.829 -21.983 -17.134  0.00  0.00    +0.179 A 
ATOM     14  C   UNL     1      33.896 -22.482 -18.469  0.00  0.00    +0.007 C 
ATOM     15  C   UNL     1      35.414 -22.783 -16.075  0.00  0.00    +0.070 C 
ATOM     16  C   UNL     1      33.446 -23.298 -17.422  0.00  0.00    +0.030 C 
ATOM     17  C   UNL     1      34.193 -23.444 -16.248  0.00  0.00    +0.143 C 
ENDBRANCH   2  11
BRANCH   1  18
ATOM     18  C   UNL     1      34.585 -17.699 -23.617  0.00  0.00    -0.076 C 
BRANCH  18  19
ATOM     19  C   UNL     1      35.264 -16.342 -23.738  0.00  0.00    -0.007 C 
BRANCH  19  23
ATOM     20  O   UNL     1      35.101 -15.705 -21.043  0.00  0.00    -0.274 OA
ATOM     21  N   UNL     1      33.483 -14.040 -21.310  0.00  0.00    -0.211 N 
ATOM     22  N   UNL     1      32.717 -13.513 -23.495  0.00  0.00    -0.395 NA
ATOM     23  C   UNL     1      34.364 -15.249 -23.242  0.00  0.00    +0.123 C 
ATOM     24  C   UNL     1      33.556 -14.477 -23.995  0.00  0.00    +0.097 C 
ATOM     25  C   UNL     1      34.361 -15.031 -21.760  0.00  0.00    +0.241 C 
ATOM     26  C   UNL     1      32.692 -13.318 -22.212  0.00  0.00    +0.188 C 
ATOM     27  C   UNL     1      33.502 -14.576 -25.498  0.00  0.00    +0.062 C 
ATOM     28  C   UNL     1      31.778 -12.267 -21.638  0.00  0.00    +0.023 C 
ATOM     29  C   UNL     1      33.414 -13.782 -19.945  0.00  0.00    +0.074 C 
ATOM     30  C   UNL     1      31.767 -12.077 -20.310  0.00  0.00    +0.001 C 
ATOM     31  C   UNL     1      32.603 -12.850 -19.438  0.00  0.00    +0.016 C 
ATOM     32  C   UNL     1      30.920 -11.481 -22.580  0.00  0.00    +0.035 C 
ENDBRANCH  19  23
ENDBRANCH  18  19
ENDBRANCH   1  18
TORSDOF 4
ENDMDL
MODEL 9
REMARK VINA RESULT:     -12.0      2.509      3.743
REMARK  Name = 71351
REMARK  4 active torsions:
REMARK  status: ('A' for Active; 'I' for Inactive)
REMARK    1  A    between atoms: N_1  and  C_18
REMARK    2  A    between atoms: C_2  and  C_11
REMARK    3  A    between atoms: C_18  and  C_19
REMARK    4  A    between atoms: C_19  and  C_23
REMARK                            x       y       z     vdW  Elec       q    Type
REMARK                         _______ _______ _______ _____ _____    ______ ____
ROOT
ATOM      1  N   UNL     1      34.792 -17.705 -22.013  0.00  0.00    +0.387 N 
ATOM      2  C   UNL     1      34.717 -14.827 -22.579  0.00  0.00    +0.039 C 
ATOM      3  C   UNL     1      34.545 -15.394 -21.160  0.00  0.00    -0.017 C 
ATOM      4  C   UNL     1      34.304 -15.883 -23.617  0.00  0.00    -0.017 C 
ATOM      5  C   UNL     1      35.260 -16.739 -21.010  0.00  0.00    -0.077 C 
ATOM      6  C   UNL     1      35.029 -17.210 -23.376  0.00  0.00    -0.077 C 
ATOM      7  H   UNL     1      33.786 -17.822 -21.892  0.00  0.00    -0.080 HD
ENDROOT
BRANCH   2  11
ATOM      8  F   UNL     1      30.682 -10.020 -20.162  0.00  0.00    -0.204 F 
ATOM      9  O   UNL     1      33.367 -11.708 -23.778  0.00  0.00    -0.354 OA
ATOM     10  N   UNL     1      34.135 -12.857 -23.924  0.00  0.00    -0.081 NA
ATOM     11  C   UNL     1      34.002 -13.509 -22.771  0.00  0.00    +0.100 A 
ATOM     12  C   UNL     1      33.175 -12.842 -21.855  0.00  0.00    +0.054 A 
ATOM     13  C   UNL     1      32.796 -11.701 -22.542  0.00  0.00    +0.179 A 
ATOM     14  C   UNL     1      32.698 -13.042 -20.551  0.00  0.00    +0.007 C 
ATOM     15  C   UNL     1      31.960 -10.716 -22.026  0.00  0.00    +0.070 C 
ATOM     16  C   UNL     1      31.853 -12.069 -19.999  0.00  0.00    +0.030 C 
ATOM     17  C   UNL     1      31.492 -10.928 -20.725  0.00  0.00    +0.143 C 
ENDBRANCH   2  11
BRANCH   1  18
ATOM     18  C   UNL     1      35.442 -19.001 -21.819  0.00  0.00    -0.076 C 
BRANCH  18  19
ATOM     19  C   UNL     1      34.428 -20.019 -21.319  0.00  0.00    -0.007 C 
BRANCH  19  23
ATOM     20  O   UNL     1      32.769 -21.655 -19.813  0.00  0.00    -0.274 OA
ATOM     21  N   UNL     1      34.341 -22.074 -18.135  0.00  0.00    -0.211 N 
ATOM     22  N   UNL     1      36.515 -21.140 -18.331  0.00  0.00    -0.395 NA
ATOM     23  C   UNL     1      34.905 -20.673 -20.055  0.00  0.00    +0.123 C 
ATOM     24  C   UNL     1      36.132 -20.555 -19.512  0.00  0.00    +0.097 C 
ATOM     25  C   UNL     1      33.894 -21.510 -19.334  0.00  0.00    +0.241 C 
ATOM     26  C   UNL     1      35.648 -21.859 -17.685  0.00  0.00    +0.188 C 
ATOM     27  C   UNL     1      37.243 -19.774 -20.164  0.00  0.00    +0.062 C 
ATOM     28  C   UNL     1      36.044 -22.509 -16.385  0.00  0.00    +0.023 C 
ATOM     29  C   UNL     1      33.459 -22.859 -17.400  0.00  0.00    +0.074 C 
ATOM     30  C   UNL     1      35.138 -23.251 -15.732  0.00  0.00    +0.001 C 
ATOM     31  C   UNL     1      33.812 -23.434 -16.248  0.00  0.00    +0.016 C 
ATOM     32  C   UNL     1      37.438 -22.295 -15.878  0.00  0.00    +0.035 C 
ENDBRANCH  19  23
ENDBRANCH  18  19
ENDBRANCH   1  18
TORSDOF 4
ENDMDL
