MODEL 1
REMARK VINA RESULT:     -10.2      0.000      0.000
REMARK  Name = 9874913
REMARK  8 active torsions:
REMARK  status: ('A' for Active; 'I' for Inactive)
REMARK    1  A    between atoms: N_1  and  C_13
REMARK    2  A    between atoms: C_8  and  C_28
REMARK    3  A    between atoms: C_16  and  O_20
REMARK    4  A    between atoms: O_20  and  C_22
REMARK    5  A    between atoms: C_29  and  C_30
REMARK    6  A    between atoms: C_30  and  N_32
REMARK    7  A    between atoms: C_33  and  C_35
REMARK    8  A    between atoms: C_35  and  O_36
REMARK                            x       y       z     vdW  Elec       q    Type
REMARK                         _______ _______ _______ _____ _____    ______ ____
ROOT
ATOM      1  N   UNL     1      31.929  -9.374 -22.797  0.00  0.00    -0.301 N 
ATOM      2  N   UNL     1      31.441  -9.000 -20.526  0.00  0.00    -0.233 NA
ATOM      3  N   UNL     1      31.658 -10.776 -18.913  0.00  0.00    -0.248 NA
ATOM      4  C   UNL     1      32.167 -11.198 -21.218  0.00  0.00    +0.116 C 
ATOM      5  C   UNL     1      31.842  -9.869 -21.472  0.00  0.00    +0.115 C 
ATOM      6  C   UNL     1      32.056 -11.618 -19.882  0.00  0.00    +0.067 C 
ATOM      7  C   UNL     1      32.584 -12.089 -22.223  0.00  0.00    -0.013 C 
ATOM      8  C   UNL     1      32.894 -13.406 -21.902  0.00  0.00    -0.004 C 
ATOM      9  C   UNL     1      32.373 -12.942 -19.589  0.00  0.00    +0.015 C 
ATOM     10  C   UNL     1      32.788 -13.833 -20.583  0.00  0.00    +0.001 C 
ATOM     11  C   UNL     1      31.372  -9.513 -19.288  0.00  0.00    +0.251 C 
ATOM     12  H   UNL     1      31.759 -10.054 -23.488  0.00  0.00    +0.153 HD
ENDROOT
BRANCH   1  13
ATOM     13  C   UNL     1      32.209  -8.099 -23.315  0.00  0.00    +0.049 C 
ATOM     14  C   UNL     1      33.805  -6.456 -24.083  0.00  0.00    +0.014 C 
ATOM     15  C   UNL     1      33.528  -7.723 -23.570  0.00  0.00    +0.013 C 
ATOM     16  C   UNL     1      32.764  -5.564 -24.340  0.00  0.00    +0.141 C 
ATOM     17  C   UNL     1      31.167  -7.207 -23.572  0.00  0.00    +0.018 C 
ATOM     18  C   UNL     1      31.446  -5.940 -24.084  0.00  0.00    +0.038 C 
ATOM     19  C   UNL     1      35.223  -6.072 -24.352  0.00  0.00    +0.034 C 
BRANCH  16  20
ATOM     20  O   UNL     1      33.019  -4.323 -24.841  0.00  0.00    -0.452 OA
BRANCH  20  22
ATOM     21  N   UNL     1      31.012  -2.696 -27.450  0.00  0.00    -0.245 NA
ATOM     22  C   UNL     1      32.512  -4.020 -26.093  0.00  0.00    +0.164 C 
ATOM     23  C   UNL     1      32.959  -4.689 -27.227  0.00  0.00    +0.040 C 
ATOM     24  C   UNL     1      31.545  -3.041 -26.256  0.00  0.00    +0.136 C 
ATOM     25  C   UNL     1      32.433  -4.362 -28.472  0.00  0.00    +0.018 C 
ATOM     26  C   UNL     1      31.470  -3.367 -28.529  0.00  0.00    +0.060 C 
ATOM     27  C   UNL     1      30.884  -2.992 -29.849  0.00  0.00    +0.052 C 
ENDBRANCH  20  22
ENDBRANCH  16  20
ENDBRANCH   1  13
BRANCH   8  28
ATOM     28  C   UNL     1      33.326 -14.331 -22.938  0.00  0.00    -0.003 C 
ATOM     29  C   UNL     1      34.537 -14.931 -23.008  0.00  0.00    -0.005 C 
BRANCH  29  30
ATOM     30  C   UNL     1      34.931 -15.888 -24.085  0.00  0.00    +0.116 C 
BRANCH  30  32
ATOM     31  O   UNL     1      33.632 -18.363 -24.851  0.00  0.00    -0.272 OA
ATOM     32  N   UNL     1      35.125 -17.188 -23.507  0.00  0.00    -0.298 N 
ATOM     33  C   UNL     1      34.454 -18.327 -23.940  0.00  0.00    +0.253 C 
ATOM     34  H   UNL     1      35.765 -17.277 -22.764  0.00  0.00    +0.150 HD
BRANCH  33  35
ATOM     35  C   UNL     1      34.855 -19.556 -23.151  0.00  0.00    +0.227 C 
BRANCH  35  36
ATOM     36  O   UNL     1      35.483 -19.189 -21.941  0.00  0.00    -0.342 OA
ATOM     37  C   UNL     1      34.794 -19.705 -20.806  0.00  0.00    +0.175 C 
ENDBRANCH  35  36
ENDBRANCH  33  35
ENDBRANCH  30  32
ENDBRANCH  29  30
ENDBRANCH   8  28
TORSDOF 8
ENDMDL
MODEL 2
REMARK VINA RESULT:     -10.1      3.142      5.927
REMARK  Name = 9874913
REMARK  8 active torsions:
REMARK  status: ('A' for Active; 'I' for Inactive)
REMARK    1  A    between atoms: N_1  and  C_13
REMARK    2  A    between atoms: C_8  and  C_28
REMARK    3  A    between atoms: C_16  and  O_20
REMARK    4  A    between atoms: O_20  and  C_22
REMARK    5  A    between atoms: C_29  and  C_30
REMARK    6  A    between atoms: C_30  and  N_32
REMARK    7  A    between atoms: C_33  and  C_35
REMARK    8  A    between atoms: C_35  and  O_36
REMARK                            x       y       z     vdW  Elec       q    Type
REMARK                         _______ _______ _______ _____ _____    ______ ____
ROOT
ATOM      1  N   UNL     1      34.014 -13.322 -22.559  0.00  0.00    -0.301 N 
ATOM      2  N   UNL     1      33.230 -13.651 -24.753  0.00  0.00    -0.233 NA
ATOM      3  N   UNL     1      33.371 -15.818 -25.797  0.00  0.00    -0.248 NA
ATOM      4  C   UNL     1      34.179 -15.526 -23.559  0.00  0.00    +0.116 C 
ATOM      5  C   UNL     1      33.799 -14.191 -23.659  0.00  0.00    +0.115 C 
ATOM      6  C   UNL     1      33.937 -16.324 -24.688  0.00  0.00    +0.067 C 
ATOM      7  C   UNL     1      34.773 -16.067 -22.404  0.00  0.00    -0.013 C 
ATOM      8  C   UNL     1      35.129 -17.411 -22.369  0.00  0.00    -0.004 C 
ATOM      9  C   UNL     1      34.303 -17.667 -24.625  0.00  0.00    +0.015 C 
ATOM     10  C   UNL     1      34.894 -18.212 -23.481  0.00  0.00    +0.001 C 
ATOM     11  C   UNL     1      33.048 -14.509 -25.770  0.00  0.00    +0.251 C 
ATOM     12  H   UNL     1      34.792 -13.564 -22.007  0.00  0.00    +0.153 HD
ENDROOT
BRANCH   1  13
ATOM     13  C   UNL     1      33.330 -12.183 -22.105  0.00  0.00    +0.049 C 
ATOM     14  C   UNL     1      32.127 -11.020 -20.363  0.00  0.00    +0.014 C 
ATOM     15  C   UNL     1      32.806 -12.152 -20.813  0.00  0.00    +0.013 C 
ATOM     16  C   UNL     1      31.969  -9.920 -21.206  0.00  0.00    +0.141 C 
ATOM     17  C   UNL     1      33.173 -11.082 -22.948  0.00  0.00    +0.018 C 
ATOM     18  C   UNL     1      32.492  -9.952 -22.498  0.00  0.00    +0.038 C 
ATOM     19  C   UNL     1      31.574 -11.004 -18.976  0.00  0.00    +0.034 C 
BRANCH  16  20
ATOM     20  O   UNL     1      31.308  -8.807 -20.781  0.00  0.00    -0.452 OA
BRANCH  20  22
ATOM     21  N   UNL     1      31.041  -6.154 -23.306  0.00  0.00    -0.245 NA
ATOM     22  C   UNL     1      31.550  -7.621 -21.453  0.00  0.00    +0.164 C 
ATOM     23  C   UNL     1      32.500  -6.718 -20.990  0.00  0.00    +0.040 C 
ATOM     24  C   UNL     1      30.854  -7.295 -22.605  0.00  0.00    +0.136 C 
ATOM     25  C   UNL     1      32.722  -5.534 -21.683  0.00  0.00    +0.018 C 
ATOM     26  C   UNL     1      31.973  -5.301 -22.825  0.00  0.00    +0.060 C 
ATOM     27  C   UNL     1      32.185  -4.040 -23.595  0.00  0.00    +0.052 C 
ENDBRANCH  20  22
ENDBRANCH  16  20
ENDBRANCH   1  13
BRANCH   8  28
ATOM     28  C   UNL     1      35.742 -17.976 -21.178  0.00  0.00    -0.003 C 
ATOM     29  C   UNL     1      35.939 -19.292 -20.938  0.00  0.00    -0.005 C 
BRANCH  29  30
ATOM     30  C   UNL     1      36.589 -19.825 -19.703  0.00  0.00    +0.116 C 
BRANCH  30  32
ATOM     31  O   UNL     1      33.751 -20.409 -19.725  0.00  0.00    -0.272 OA
ATOM     32  N   UNL     1      35.951 -21.058 -19.333  0.00  0.00    -0.298 N 
ATOM     33  C   UNL     1      34.574 -21.249 -19.374  0.00  0.00    +0.253 C 
ATOM     34  H   UNL     1      36.518 -21.805 -19.033  0.00  0.00    +0.150 HD
BRANCH  33  35
ATOM     35  C   UNL     1      34.182 -22.643 -18.930  0.00  0.00    +0.227 C 
BRANCH  35  36
ATOM     36  O   UNL     1      32.919 -22.629 -18.301  0.00  0.00    -0.342 OA
ATOM     37  C   UNL     1      32.992 -23.088 -16.954  0.00  0.00    +0.175 C 
ENDBRANCH  35  36
ENDBRANCH  33  35
ENDBRANCH  30  32
ENDBRANCH  29  30
ENDBRANCH   8  28
TORSDOF 8
ENDMDL
MODEL 3
REMARK VINA RESULT:      -9.9      7.379     13.060
REMARK  Name = 9874913
REMARK  8 active torsions:
REMARK  status: ('A' for Active; 'I' for Inactive)
REMARK    1  A    between atoms: N_1  and  C_13
REMARK    2  A    between atoms: C_8  and  C_28
REMARK    3  A    between atoms: C_16  and  O_20
REMARK    4  A    between atoms: O_20  and  C_22
REMARK    5  A    between atoms: C_29  and  C_30
REMARK    6  A    between atoms: C_30  and  N_32
REMARK    7  A    between atoms: C_33  and  C_35
REMARK    8  A    between atoms: C_35  and  O_36
REMARK                            x       y       z     vdW  Elec       q    Type
REMARK                         _______ _______ _______ _____ _____    ______ ____
ROOT
ATOM      1  N   UNL     1      34.642 -21.032 -18.201  0.00  0.00    -0.301 N 
ATOM      2  N   UNL     1      36.775 -21.562 -17.361  0.00  0.00    -0.233 NA
ATOM      3  N   UNL     1      37.039 -23.215 -15.628  0.00  0.00    -0.248 NA
ATOM      4  C   UNL     1      34.848 -22.706 -16.458  0.00  0.00    +0.116 C 
ATOM      5  C   UNL     1      35.450 -21.789 -17.314  0.00  0.00    +0.115 C 
ATOM      6  C   UNL     1      35.711 -23.416 -15.608  0.00  0.00    +0.067 C 
ATOM      7  C   UNL     1      33.459 -22.925 -16.427  0.00  0.00    -0.013 C 
ATOM      8  C   UNL     1      32.921 -23.857 -15.545  0.00  0.00    -0.004 C 
ATOM      9  C   UNL     1      35.145 -24.344 -14.736  0.00  0.00    +0.015 C 
ATOM     10  C   UNL     1      33.766 -24.568 -14.699  0.00  0.00    +0.001 C 
ATOM     11  C   UNL     1      37.500 -22.299 -16.504  0.00  0.00    +0.251 C 
ATOM     12  H   UNL     1      33.736 -20.854 -17.860  0.00  0.00    +0.153 HD
ENDROOT
BRANCH   1  13
ATOM     13  C   UNL     1      34.886 -20.487 -19.472  0.00  0.00    +0.049 C 
ATOM     14  C   UNL     1      36.392 -19.452 -21.051  0.00  0.00    +0.014 C 
ATOM     15  C   UNL     1      36.151 -19.994 -19.790  0.00  0.00    +0.013 C 
ATOM     16  C   UNL     1      35.367 -19.402 -21.997  0.00  0.00    +0.141 C 
ATOM     17  C   UNL     1      33.860 -20.437 -20.417  0.00  0.00    +0.018 C 
ATOM     18  C   UNL     1      34.102 -19.894 -21.678  0.00  0.00    +0.038 C 
ATOM     19  C   UNL     1      37.754 -18.931 -21.375  0.00  0.00    +0.034 C 
BRANCH  16  20
ATOM     20  O   UNL     1      35.586 -18.875 -23.233  0.00  0.00    -0.452 OA
BRANCH  20  22
ATOM     21  N   UNL     1      33.783 -16.206 -24.996  0.00  0.00    -0.245 NA
ATOM     22  C   UNL     1      35.046 -17.630 -23.506  0.00  0.00    +0.164 C 
ATOM     23  C   UNL     1      35.199 -16.574 -22.615  0.00  0.00    +0.040 C 
ATOM     24  C   UNL     1      34.336 -17.396 -24.672  0.00  0.00    +0.136 C 
ATOM     25  C   UNL     1      34.645 -15.334 -22.913  0.00  0.00    +0.018 C 
ATOM     26  C   UNL     1      33.952 -15.203 -24.106  0.00  0.00    +0.060 C 
ATOM     27  C   UNL     1      33.345 -13.886 -24.459  0.00  0.00    +0.052 C 
ENDBRANCH  20  22
ENDBRANCH  16  20
ENDBRANCH   1  13
BRANCH   8  28
ATOM     28  C   UNL     1      31.486 -24.089 -15.509  0.00  0.00    -0.003 C 
ATOM     29  C   UNL     1      30.837 -24.901 -14.644  0.00  0.00    -0.005 C 
BRANCH  29  30
ATOM     30  C   UNL     1      29.356 -25.095 -14.635  0.00  0.00    +0.116 C 
BRANCH  30  32
ATOM     31  O   UNL     1      27.824 -24.332 -16.974  0.00  0.00    -0.272 OA
ATOM     32  N   UNL     1      28.717 -23.833 -14.884  0.00  0.00    -0.298 N 
ATOM     33  C   UNL     1      27.999 -23.553 -16.042  0.00  0.00    +0.253 C 
ATOM     34  H   UNL     1      28.793 -23.130 -14.199  0.00  0.00    +0.150 HD
BRANCH  33  35
ATOM     35  C   UNL     1      27.437 -22.147 -16.034  0.00  0.00    +0.227 C 
BRANCH  35  36
ATOM     36  O   UNL     1      26.092 -22.145 -16.462  0.00  0.00    -0.342 OA
ATOM     37  C   UNL     1      25.908 -21.353 -17.632  0.00  0.00    +0.175 C 
ENDBRANCH  35  36
ENDBRANCH  33  35
ENDBRANCH  30  32
ENDBRANCH  29  30
ENDBRANCH   8  28
TORSDOF 8
ENDMDL
MODEL 4
REMARK VINA RESULT:      -9.9      8.081     14.187
REMARK  Name = 9874913
REMARK  8 active torsions:
REMARK  status: ('A' for Active; 'I' for Inactive)
REMARK    1  A    between atoms: N_1  and  C_13
REMARK    2  A    between atoms: C_8  and  C_28
REMARK    3  A    between atoms: C_16  and  O_20
REMARK    4  A    between atoms: O_20  and  C_22
REMARK    5  A    between atoms: C_29  and  C_30
REMARK    6  A    between atoms: C_30  and  N_32
REMARK    7  A    between atoms: C_33  and  C_35
REMARK    8  A    between atoms: C_35  and  O_36
REMARK                            x       y       z     vdW  Elec       q    Type
REMARK                         _______ _______ _______ _____ _____    ______ ____
ROOT
ATOM      1  N   UNL     1      35.176 -21.909 -16.728  0.00  0.00    -0.301 N 
ATOM      2  N   UNL     1      37.423 -22.394 -16.228  0.00  0.00    -0.233 NA
ATOM      3  N   UNL     1      37.985 -23.943 -14.470  0.00  0.00    -0.248 NA
ATOM      4  C   UNL     1      35.683 -23.478 -14.949  0.00  0.00    +0.116 C 
ATOM      5  C   UNL     1      36.125 -22.614 -15.946  0.00  0.00    +0.115 C 
ATOM      6  C   UNL     1      36.681 -24.140 -14.216  0.00  0.00    +0.067 C 
ATOM      7  C   UNL     1      34.320 -23.692 -14.673  0.00  0.00    -0.013 C 
ATOM      8  C   UNL     1      33.944 -24.570 -13.662  0.00  0.00    -0.004 C 
ATOM      9  C   UNL     1      36.275 -25.014 -13.209  0.00  0.00    +0.015 C 
ATOM     10  C   UNL     1      34.923 -25.231 -12.929  0.00  0.00    +0.001 C 
ATOM     11  C   UNL     1      38.286 -23.081 -15.463  0.00  0.00    +0.251 C 
ATOM     12  H   UNL     1      34.338 -21.709 -16.251  0.00  0.00    +0.153 HD
ENDROOT
BRANCH   1  13
ATOM     13  C   UNL     1      35.199 -21.440 -18.052  0.00  0.00    +0.049 C 
ATOM     14  C   UNL     1      34.029 -20.714 -20.035  0.00  0.00    +0.014 C 
ATOM     15  C   UNL     1      34.004 -21.178 -18.721  0.00  0.00    +0.013 C 
ATOM     16  C   UNL     1      35.248 -20.512 -20.682  0.00  0.00    +0.141 C 
ATOM     17  C   UNL     1      36.420 -21.240 -18.698  0.00  0.00    +0.018 C 
ATOM     18  C   UNL     1      36.443 -20.776 -20.013  0.00  0.00    +0.038 C 
ATOM     19  C   UNL     1      32.739 -20.436 -20.736  0.00  0.00    +0.034 C 
BRANCH  16  20
ATOM     20  O   UNL     1      35.289 -20.059 -21.966  0.00  0.00    -0.452 OA
BRANCH  20  22
ATOM     21  N   UNL     1      34.687 -16.870 -23.683  0.00  0.00    -0.245 NA
ATOM     22  C   UNL     1      35.156 -18.697 -22.170  0.00  0.00    +0.164 C 
ATOM     23  C   UNL     1      35.340 -17.796 -21.128  0.00  0.00    +0.040 C 
ATOM     24  C   UNL     1      34.833 -18.188 -23.418  0.00  0.00    +0.136 C 
ATOM     25  C   UNL     1      35.198 -16.432 -21.361  0.00  0.00    +0.018 C 
ATOM     26  C   UNL     1      34.873 -16.025 -22.645  0.00  0.00    +0.060 C 
ATOM     27  C   UNL     1      34.714 -14.569 -22.933  0.00  0.00    +0.052 C 
ENDBRANCH  20  22
ENDBRANCH  16  20
ENDBRANCH   1  13
BRANCH   8  28
ATOM     28  C   UNL     1      32.537 -24.795 -13.373  0.00  0.00    -0.003 C 
ATOM     29  C   UNL     1      31.496 -24.355 -14.115  0.00  0.00    -0.005 C 
BRANCH  29  30
ATOM     30  C   UNL     1      30.064 -24.626 -13.785  0.00  0.00    +0.116 C 
BRANCH  30  32
ATOM     31  O   UNL     1      29.075 -22.007 -14.536  0.00  0.00    -0.272 OA
ATOM     32  N   UNL     1      29.252 -24.295 -14.922  0.00  0.00    -0.298 N 
ATOM     33  C   UNL     1      28.820 -23.004 -15.207  0.00  0.00    +0.253 C 
ATOM     34  H   UNL     1      28.986 -25.022 -15.532  0.00  0.00    +0.150 HD
BRANCH  33  35
ATOM     35  C   UNL     1      27.980 -22.950 -16.465  0.00  0.00    +0.227 C 
BRANCH  35  36
ATOM     36  O   UNL     1      27.402 -21.673 -16.625  0.00  0.00    -0.342 OA
ATOM     37  C   UNL     1      26.274 -21.706 -17.495  0.00  0.00    +0.175 C 
ENDBRANCH  35  36
ENDBRANCH  33  35
ENDBRANCH  30  32
ENDBRANCH  29  30
ENDBRANCH   8  28
TORSDOF 8
ENDMDL
MODEL 5
REMARK VINA RESULT:      -9.8      2.527      3.233
REMARK  Name = 9874913
REMARK  8 active torsions:
REMARK  status: ('A' for Active; 'I' for Inactive)
REMARK    1  A    between atoms: N_1  and  C_13
REMARK    2  A    between atoms: C_8  and  C_28
REMARK    3  A    between atoms: C_16  and  O_20
REMARK    4  A    between atoms: O_20  and  C_22
REMARK    5  A    between atoms: C_29  and  C_30
REMARK    6  A    between atoms: C_30  and  N_32
REMARK    7  A    between atoms: C_33  and  C_35
REMARK    8  A    between atoms: C_35  and  O_36
REMARK                            x       y       z     vdW  Elec       q    Type
REMARK                         _______ _______ _______ _____ _____    ______ ____
ROOT
ATOM      1  N   UNL     1      32.609  -8.541 -23.269  0.00  0.00    -0.301 N 
ATOM      2  N   UNL     1      32.100  -7.631 -21.160  0.00  0.00    -0.233 NA
ATOM      3  N   UNL     1      31.713  -9.065 -19.263  0.00  0.00    -0.248 NA
ATOM      4  C   UNL     1      32.231 -10.033 -21.395  0.00  0.00    +0.116 C 
ATOM      5  C   UNL     1      32.304  -8.738 -21.899  0.00  0.00    +0.115 C 
ATOM      6  C   UNL     1      31.923 -10.149 -20.029  0.00  0.00    +0.067 C 
ATOM      7  C   UNL     1      32.449 -11.174 -22.187  0.00  0.00    -0.013 C 
ATOM      8  C   UNL     1      32.360 -12.441 -21.620  0.00  0.00    -0.004 C 
ATOM      9  C   UNL     1      31.842 -11.430 -19.489  0.00  0.00    +0.015 C 
ATOM     10  C   UNL     1      32.057 -12.569 -20.269  0.00  0.00    +0.001 C 
ATOM     11  C   UNL     1      31.813  -7.865 -19.870  0.00  0.00    +0.251 C 
ATOM     12  H   UNL     1      32.302  -9.271 -23.854  0.00  0.00    +0.153 HD
ENDROOT
BRANCH   1  13
ATOM     13  C   UNL     1      33.264  -7.505 -23.955  0.00  0.00    +0.049 C 
ATOM     14  C   UNL     1      33.201  -5.658 -25.510  0.00  0.00    +0.014 C 
ATOM     15  C   UNL     1      32.550  -6.686 -24.829  0.00  0.00    +0.013 C 
ATOM     16  C   UNL     1      34.567  -5.449 -25.318  0.00  0.00    +0.141 C 
ATOM     17  C   UNL     1      34.630  -7.297 -23.762  0.00  0.00    +0.018 C 
ATOM     18  C   UNL     1      35.281  -6.269 -24.445  0.00  0.00    +0.038 C 
ATOM     19  C   UNL     1      32.420  -4.789 -26.441  0.00  0.00    +0.034 C 
BRANCH  16  20
ATOM     20  O   UNL     1      35.218  -4.450 -25.976  0.00  0.00    -0.452 OA
BRANCH  20  22
ATOM     21  N   UNL     1      38.401  -4.541 -27.804  0.00  0.00    -0.245 NA
ATOM     22  C   UNL     1      36.170  -4.812 -26.913  0.00  0.00    +0.164 C 
ATOM     23  C   UNL     1      35.893  -5.772 -27.879  0.00  0.00    +0.040 C 
ATOM     24  C   UNL     1      37.428  -4.231 -26.918  0.00  0.00    +0.136 C 
ATOM     25  C   UNL     1      36.869  -6.118 -28.808  0.00  0.00    +0.018 C 
ATOM     26  C   UNL     1      38.096  -5.479 -28.728  0.00  0.00    +0.060 C 
ATOM     27  C   UNL     1      39.166  -5.824 -29.709  0.00  0.00    +0.052 C 
ENDBRANCH  20  22
ENDBRANCH  16  20
ENDBRANCH   1  13
BRANCH   8  28
ATOM     28  C   UNL     1      32.585 -13.626 -22.434  0.00  0.00    -0.003 C 
ATOM     29  C   UNL     1      33.359 -13.689 -23.542  0.00  0.00    -0.005 C 
BRANCH  29  30
ATOM     30  C   UNL     1      33.572 -14.936 -24.338  0.00  0.00    +0.116 C 
BRANCH  30  32
ATOM     31  O   UNL     1      34.123 -17.715 -24.944  0.00  0.00    -0.272 OA
ATOM     32  N   UNL     1      34.358 -15.855 -23.565  0.00  0.00    -0.298 N 
ATOM     33  C   UNL     1      34.571 -17.180 -23.934  0.00  0.00    +0.253 C 
ATOM     34  H   UNL     1      34.768 -15.531 -22.730  0.00  0.00    +0.150 HD
BRANCH  33  35
ATOM     35  C   UNL     1      35.437 -17.915 -22.933  0.00  0.00    +0.227 C 
BRANCH  35  36
ATOM     36  O   UNL     1      35.029 -19.261 -22.815  0.00  0.00    -0.342 OA
ATOM     37  C   UNL     1      34.750 -19.615 -21.463  0.00  0.00    +0.175 C 
ENDBRANCH  35  36
ENDBRANCH  33  35
ENDBRANCH  30  32
ENDBRANCH  29  30
ENDBRANCH   8  28
TORSDOF 8
ENDMDL
MODEL 6
REMARK VINA RESULT:      -9.6      3.467      6.582
REMARK  Name = 9874913
REMARK  8 active torsions:
REMARK  status: ('A' for Active; 'I' for Inactive)
REMARK    1  A    between atoms: N_1  and  C_13
REMARK    2  A    between atoms: C_8  and  C_28
REMARK    3  A    between atoms: C_16  and  O_20
REMARK    4  A    between atoms: O_20  and  C_22
REMARK    5  A    between atoms: C_29  and  C_30
REMARK    6  A    between atoms: C_30  and  N_32
REMARK    7  A    between atoms: C_33  and  C_35
REMARK    8  A    between atoms: C_35  and  O_36
REMARK                            x       y       z     vdW  Elec       q    Type
REMARK                         _______ _______ _______ _____ _____    ______ ____
ROOT
ATOM      1  N   UNL     1      34.240 -13.921 -22.563  0.00  0.00    -0.301 N 
ATOM      2  N   UNL     1      33.370 -14.508 -24.668  0.00  0.00    -0.233 NA
ATOM      3  N   UNL     1      33.536 -16.770 -25.480  0.00  0.00    -0.248 NA
ATOM      4  C   UNL     1      34.434 -16.214 -23.328  0.00  0.00    +0.116 C 
ATOM      5  C   UNL     1      34.005 -14.909 -23.552  0.00  0.00    +0.115 C 
ATOM      6  C   UNL     1      34.168 -17.137 -24.352  0.00  0.00    +0.067 C 
ATOM      7  C   UNL     1      35.097 -16.610 -22.152  0.00  0.00    -0.013 C 
ATOM      8  C   UNL     1      35.499 -17.931 -21.991  0.00  0.00    -0.004 C 
ATOM      9  C   UNL     1      34.581 -18.454 -24.164  0.00  0.00    +0.015 C 
ATOM     10  C   UNL     1      35.241 -18.854 -22.998  0.00  0.00    +0.001 C 
ATOM     11  C   UNL     1      33.171 -15.476 -25.577  0.00  0.00    +0.251 C 
ATOM     12  H   UNL     1      35.050 -14.079 -22.027  0.00  0.00    +0.153 HD
ENDROOT
BRANCH   1  13
ATOM     13  C   UNL     1      33.540 -12.759 -22.200  0.00  0.00    +0.049 C 
ATOM     14  C   UNL     1      32.314 -11.481 -20.557  0.00  0.00    +0.014 C 
ATOM     15  C   UNL     1      33.011 -12.634 -20.916  0.00  0.00    +0.013 C 
ATOM     16  C   UNL     1      32.146 -10.451 -21.483  0.00  0.00    +0.141 C 
ATOM     17  C   UNL     1      33.372 -11.729 -23.127  0.00  0.00    +0.018 C 
ATOM     18  C   UNL     1      32.674 -10.576 -22.768  0.00  0.00    +0.038 C 
ATOM     19  C   UNL     1      31.756 -11.364 -19.177  0.00  0.00    +0.034 C 
BRANCH  16  20
ATOM     20  O   UNL     1      31.468  -9.318 -21.149  0.00  0.00    -0.452 OA
BRANCH  20  22
ATOM     21  N   UNL     1      33.108  -6.223 -22.251  0.00  0.00    -0.245 NA
ATOM     22  C   UNL     1      31.728  -8.174 -21.884  0.00  0.00    +0.164 C 
ATOM     23  C   UNL     1      30.922  -7.815 -22.958  0.00  0.00    +0.040 C 
ATOM     24  C   UNL     1      32.799  -7.351 -21.574  0.00  0.00    +0.136 C 
ATOM     25  C   UNL     1      31.207  -6.662 -23.680  0.00  0.00    +0.018 C 
ATOM     26  C   UNL     1      32.302  -5.907 -23.290  0.00  0.00    +0.060 C 
ATOM     27  C   UNL     1      32.637  -4.661 -24.041  0.00  0.00    +0.052 C 
ENDBRANCH  20  22
ENDBRANCH  16  20
ENDBRANCH   1  13
BRANCH   8  28
ATOM     28  C   UNL     1      36.184 -18.346 -20.777  0.00  0.00    -0.003 C 
ATOM     29  C   UNL     1      36.420 -19.623 -20.398  0.00  0.00    -0.005 C 
BRANCH  29  30
ATOM     30  C   UNL     1      37.143 -20.001 -19.147  0.00  0.00    +0.116 C 
BRANCH  30  32
ATOM     31  O   UNL     1      37.526 -20.942 -16.433  0.00  0.00    -0.272 OA
ATOM     32  N   UNL     1      36.400 -21.025 -18.468  0.00  0.00    -0.298 N 
ATOM     33  C   UNL     1      36.654 -21.414 -17.157  0.00  0.00    +0.253 C 
ATOM     34  H   UNL     1      35.673 -21.474 -18.956  0.00  0.00    +0.150 HD
BRANCH  33  35
ATOM     35  C   UNL     1      35.718 -22.513 -16.700  0.00  0.00    +0.227 C 
BRANCH  35  36
ATOM     36  O   UNL     1      35.645 -22.552 -15.291  0.00  0.00    -0.342 OA
ATOM     37  C   UNL     1      35.377 -23.866 -14.809  0.00  0.00    +0.175 C 
ENDBRANCH  35  36
ENDBRANCH  33  35
ENDBRANCH  30  32
ENDBRANCH  29  30
ENDBRANCH   8  28
TORSDOF 8
ENDMDL
MODEL 7
REMARK VINA RESULT:      -9.2      0.778      1.500
REMARK  Name = 9874913
REMARK  8 active torsions:
REMARK  status: ('A' for Active; 'I' for Inactive)
REMARK    1  A    between atoms: N_1  and  C_13
REMARK    2  A    between atoms: C_8  and  C_28
REMARK    3  A    between atoms: C_16  and  O_20
REMARK    4  A    between atoms: O_20  and  C_22
REMARK    5  A    between atoms: C_29  and  C_30
REMARK    6  A    between atoms: C_30  and  N_32
REMARK    7  A    between atoms: C_33  and  C_35
REMARK    8  A    between atoms: C_35  and  O_36
REMARK                            x       y       z     vdW  Elec       q    Type
REMARK                         _______ _______ _______ _____ _____    ______ ____
ROOT
ATOM      1  N   UNL     1      31.819  -9.160 -22.479  0.00  0.00    -0.301 N 
ATOM      2  N   UNL     1      31.424  -8.911 -20.173  0.00  0.00    -0.233 NA
ATOM      3  N   UNL     1      31.726 -10.767 -18.666  0.00  0.00    -0.248 NA
ATOM      4  C   UNL     1      32.141 -11.062 -21.009  0.00  0.00    +0.116 C 
ATOM      5  C   UNL     1      31.793  -9.725 -21.179  0.00  0.00    +0.115 C 
ATOM      6  C   UNL     1      32.090 -11.552 -19.694  0.00  0.00    +0.067 C 
ATOM      7  C   UNL     1      32.523 -11.894 -22.077  0.00  0.00    -0.013 C 
ATOM      8  C   UNL     1      32.859 -13.222 -21.838  0.00  0.00    -0.004 C 
ATOM      9  C   UNL     1      32.432 -12.886 -19.484  0.00  0.00    +0.015 C 
ATOM     10  C   UNL     1      32.813 -13.719 -20.540  0.00  0.00    +0.001 C 
ATOM     11  C   UNL     1      31.412  -9.489 -18.961  0.00  0.00    +0.251 C 
ATOM     12  H   UNL     1      31.626  -9.805 -23.197  0.00  0.00    +0.153 HD
ENDROOT
BRANCH   1  13
ATOM     13  C   UNL     1      32.065  -7.857 -22.940  0.00  0.00    +0.049 C 
ATOM     14  C   UNL     1      31.584  -5.491 -22.881  0.00  0.00    +0.014 C 
ATOM     15  C   UNL     1      31.340  -6.784 -22.421  0.00  0.00    +0.013 C 
ATOM     16  C   UNL     1      32.552  -5.268 -23.861  0.00  0.00    +0.141 C 
ATOM     17  C   UNL     1      33.032  -7.636 -23.921  0.00  0.00    +0.018 C 
ATOM     18  C   UNL     1      33.275  -6.342 -24.381  0.00  0.00    +0.038 C 
ATOM     19  C   UNL     1      30.801  -4.353 -22.311  0.00  0.00    +0.034 C 
BRANCH  16  20
ATOM     20  O   UNL     1      32.802  -4.011 -24.320  0.00  0.00    -0.452 OA
BRANCH  20  22
ATOM     21  N   UNL     1      32.268  -3.882 -27.951  0.00  0.00    -0.245 NA
ATOM     22  C   UNL     1      32.261  -3.656 -25.544  0.00  0.00    +0.164 C 
ATOM     23  C   UNL     1      31.206  -2.754 -25.625  0.00  0.00    +0.040 C 
ATOM     24  C   UNL     1      32.752  -4.187 -26.726  0.00  0.00    +0.136 C 
ATOM     25  C   UNL     1      30.681  -2.416 -26.867  0.00  0.00    +0.018 C 
ATOM     26  C   UNL     1      31.242  -3.003 -27.990  0.00  0.00    +0.060 C 
ATOM     27  C   UNL     1      30.705  -2.662 -29.340  0.00  0.00    +0.052 C 
ENDBRANCH  20  22
ENDBRANCH  16  20
ENDBRANCH   1  13
BRANCH   8  28
ATOM     28  C   UNL     1      33.256 -14.087 -22.938  0.00  0.00    -0.003 C 
ATOM     29  C   UNL     1      34.367 -14.857 -22.978  0.00  0.00    -0.005 C 
BRANCH  29  30
ATOM     30  C   UNL     1      34.726 -15.744 -24.126  0.00  0.00    +0.116 C 
BRANCH  30  32
ATOM     31  O   UNL     1      33.528 -18.287 -24.829  0.00  0.00    -0.272 OA
ATOM     32  N   UNL     1      35.080 -17.041 -23.623  0.00  0.00    -0.298 N 
ATOM     33  C   UNL     1      34.447 -18.215 -24.018  0.00  0.00    +0.253 C 
ATOM     34  H   UNL     1      35.808 -17.102 -22.963  0.00  0.00    +0.150 HD
BRANCH  33  35
ATOM     35  C   UNL     1      35.026 -19.432 -23.326  0.00  0.00    +0.227 C 
BRANCH  35  36
ATOM     36  O   UNL     1      34.323 -19.708 -22.134  0.00  0.00    -0.342 OA
ATOM     37  C   UNL     1      35.127 -19.483 -20.979  0.00  0.00    +0.175 C 
ENDBRANCH  35  36
ENDBRANCH  33  35
ENDBRANCH  30  32
ENDBRANCH  29  30
ENDBRANCH   8  28
TORSDOF 8
ENDMDL
MODEL 8
REMARK VINA RESULT:      -8.8      4.590      7.655
REMARK  Name = 9874913
REMARK  8 active torsions:
REMARK  status: ('A' for Active; 'I' for Inactive)
REMARK    1  A    between atoms: N_1  and  C_13
REMARK    2  A    between atoms: C_8  and  C_28
REMARK    3  A    between atoms: C_16  and  O_20
REMARK    4  A    between atoms: O_20  and  C_22
REMARK    5  A    between atoms: C_29  and  C_30
REMARK    6  A    between atoms: C_30  and  N_32
REMARK    7  A    between atoms: C_33  and  C_35
REMARK    8  A    between atoms: C_35  and  O_36
REMARK                            x       y       z     vdW  Elec       q    Type
REMARK                         _______ _______ _______ _____ _____    ______ ____
ROOT
ATOM      1  N   UNL     1      34.259 -15.010 -21.554  0.00  0.00    -0.301 N 
ATOM      2  N   UNL     1      34.080 -15.146 -23.896  0.00  0.00    -0.233 NA
ATOM      3  N   UNL     1      34.580 -17.201 -25.050  0.00  0.00    -0.248 NA
ATOM      4  C   UNL     1      34.773 -17.105 -22.662  0.00  0.00    +0.116 C 
ATOM      5  C   UNL     1      34.373 -15.774 -22.742  0.00  0.00    +0.115 C 
ATOM      6  C   UNL     1      34.865 -17.798 -23.880  0.00  0.00    +0.067 C 
ATOM      7  C   UNL     1      35.074 -17.740 -21.444  0.00  0.00    -0.013 C 
ATOM      8  C   UNL     1      35.470 -19.074 -21.434  0.00  0.00    -0.004 C 
ATOM      9  C   UNL     1      35.262 -19.132 -23.840  0.00  0.00    +0.015 C 
ATOM     10  C   UNL     1      35.564 -19.771 -22.634  0.00  0.00    +0.001 C 
ATOM     11  C   UNL     1      34.203 -15.907 -24.995  0.00  0.00    +0.251 C 
ATOM     12  H   UNL     1      34.880 -15.286 -20.842  0.00  0.00    +0.153 HD
ENDROOT
BRANCH   1  13
ATOM     13  C   UNL     1      33.431 -13.933 -21.196  0.00  0.00    +0.049 C 
ATOM     14  C   UNL     1      32.198 -11.949 -21.808  0.00  0.00    +0.014 C 
ATOM     15  C   UNL     1      33.019 -13.018 -22.164  0.00  0.00    +0.013 C 
ATOM     16  C   UNL     1      31.790 -11.793 -20.483  0.00  0.00    +0.141 C 
ATOM     17  C   UNL     1      33.024 -13.778 -19.870  0.00  0.00    +0.018 C 
ATOM     18  C   UNL     1      32.204 -12.708 -19.515  0.00  0.00    +0.038 C 
ATOM     19  C   UNL     1      31.764 -10.979 -22.858  0.00  0.00    +0.034 C 
BRANCH  16  20
ATOM     20  O   UNL     1      30.989 -10.754 -20.118  0.00  0.00    -0.452 OA
BRANCH  20  22
ATOM     21  N   UNL     1      32.926  -7.791 -19.142  0.00  0.00    -0.245 NA
ATOM     22  C   UNL     1      31.529  -9.480 -20.163  0.00  0.00    +0.164 C 
ATOM     23  C   UNL     1      31.251  -8.621 -21.220  0.00  0.00    +0.040 C 
ATOM     24  C   UNL     1      32.365  -9.021 -19.158  0.00  0.00    +0.136 C 
ATOM     25  C   UNL     1      31.809  -7.348 -21.240  0.00  0.00    +0.018 C 
ATOM     26  C   UNL     1      32.633  -6.985 -20.186  0.00  0.00    +0.060 C 
ATOM     27  C   UNL     1      33.248  -5.625 -20.174  0.00  0.00    +0.052 C 
ENDBRANCH  20  22
ENDBRANCH  16  20
ENDBRANCH   1  13
BRANCH   8  28
ATOM     28  C   UNL     1      35.782 -19.736 -20.177  0.00  0.00    -0.003 C 
ATOM     29  C   UNL     1      35.645 -21.058 -19.924  0.00  0.00    -0.005 C 
BRANCH  29  30
ATOM     30  C   UNL     1      35.994 -21.697 -18.619  0.00  0.00    +0.116 C 
BRANCH  30  32
ATOM     31  O   UNL     1      33.979 -23.762 -18.883  0.00  0.00    -0.272 OA
ATOM     32  N   UNL     1      34.799 -21.850 -17.839  0.00  0.00    -0.298 N 
ATOM     33  C   UNL     1      33.882 -22.878 -18.037  0.00  0.00    +0.253 C 
ATOM     34  H   UNL     1      34.619 -21.194 -17.128  0.00  0.00    +0.150 HD
BRANCH  33  35
ATOM     35  C   UNL     1      32.718 -22.793 -17.072  0.00  0.00    +0.227 C 
BRANCH  35  36
ATOM     36  O   UNL     1      32.760 -23.855 -16.144  0.00  0.00    -0.342 OA
ATOM     37  C   UNL     1      33.680 -23.600 -15.086  0.00  0.00    +0.175 C 
ENDBRANCH  35  36
ENDBRANCH  33  35
ENDBRANCH  30  32
ENDBRANCH  29  30
ENDBRANCH   8  28
TORSDOF 8
ENDMDL
MODEL 9
REMARK VINA RESULT:      -8.8      2.349     11.532
REMARK  Name = 9874913
REMARK  8 active torsions:
REMARK  status: ('A' for Active; 'I' for Inactive)
REMARK    1  A    between atoms: N_1  and  C_13
REMARK    2  A    between atoms: C_8  and  C_28
REMARK    3  A    between atoms: C_16  and  O_20
REMARK    4  A    between atoms: O_20  and  C_22
REMARK    5  A    between atoms: C_29  and  C_30
REMARK    6  A    between atoms: C_30  and  N_32
REMARK    7  A    between atoms: C_33  and  C_35
REMARK    8  A    between atoms: C_35  and  O_36
REMARK                            x       y       z     vdW  Elec       q    Type
REMARK                         _______ _______ _______ _____ _____    ______ ____
ROOT
ATOM      1  N   UNL     1      33.920 -12.260 -22.461  0.00  0.00    -0.301 N 
ATOM      2  N   UNL     1      31.798 -12.239 -21.447  0.00  0.00    -0.233 NA
ATOM      3  N   UNL     1      30.435 -10.252 -21.487  0.00  0.00    -0.248 NA
ATOM      4  C   UNL     1      32.591 -10.232 -22.535  0.00  0.00    +0.116 C 
ATOM      5  C   UNL     1      32.732 -11.558 -22.137  0.00  0.00    +0.115 C 
ATOM      6  C   UNL     1      31.389  -9.602 -22.176  0.00  0.00    +0.067 C 
ATOM      7  C   UNL     1      33.582  -9.542 -23.255  0.00  0.00    -0.013 C 
ATOM      8  C   UNL     1      33.379  -8.216 -23.623  0.00  0.00    -0.004 C 
ATOM      9  C   UNL     1      31.211  -8.275 -22.558  0.00  0.00    +0.015 C 
ATOM     10  C   UNL     1      32.192  -7.582 -23.274  0.00  0.00    +0.001 C 
ATOM     11  C   UNL     1      30.691 -11.535 -21.160  0.00  0.00    +0.251 C 
ATOM     12  H   UNL     1      34.717 -11.685 -22.521  0.00  0.00    +0.153 HD
ENDROOT
BRANCH   1  13
ATOM     13  C   UNL     1      34.180 -13.617 -22.713  0.00  0.00    +0.049 C 
ATOM     14  C   UNL     1      33.981 -15.555 -24.140  0.00  0.00    +0.014 C 
ATOM     15  C   UNL     1      33.724 -14.208 -23.891  0.00  0.00    +0.013 C 
ATOM     16  C   UNL     1      34.695 -16.313 -23.210  0.00  0.00    +0.141 C 
ATOM     17  C   UNL     1      34.894 -14.373 -21.783  0.00  0.00    +0.018 C 
ATOM     18  C   UNL     1      35.150 -15.721 -22.032  0.00  0.00    +0.038 C 
ATOM     19  C   UNL     1      33.487 -16.172 -25.407  0.00  0.00    +0.034 C 
BRANCH  16  20
ATOM     20  O   UNL     1      34.954 -17.630 -23.438  0.00  0.00    -0.452 OA
BRANCH  20  22
ATOM     21  N   UNL     1      36.856 -19.014 -20.619  0.00  0.00    -0.245 NA
ATOM     22  C   UNL     1      35.274 -18.420 -22.347  0.00  0.00    +0.164 C 
ATOM     23  C   UNL     1      34.387 -19.381 -21.875  0.00  0.00    +0.040 C 
ATOM     24  C   UNL     1      36.485 -18.277 -21.690  0.00  0.00    +0.136 C 
ATOM     25  C   UNL     1      34.733 -20.159 -20.776  0.00  0.00    +0.018 C 
ATOM     26  C   UNL     1      35.968 -19.938 -20.189  0.00  0.00    +0.060 C 
ATOM     27  C   UNL     1      36.374 -20.756 -19.008  0.00  0.00    +0.052 C 
ENDBRANCH  20  22
ENDBRANCH  16  20
ENDBRANCH   1  13
BRANCH   8  28
ATOM     28  C   UNL     1      34.400  -7.497 -24.369  0.00  0.00    -0.003 C 
ATOM     29  C   UNL     1      34.239  -6.300 -24.979  0.00  0.00    -0.005 C 
BRANCH  29  30
ATOM     30  C   UNL     1      35.325  -5.592 -25.722  0.00  0.00    +0.116 C 
BRANCH  30  32
ATOM     31  O   UNL     1      36.562  -6.680 -28.105  0.00  0.00    -0.272 OA
ATOM     32  N   UNL     1      34.910  -5.399 -27.083  0.00  0.00    -0.298 N 
ATOM     33  C   UNL     1      35.568  -5.963 -28.171  0.00  0.00    +0.253 C 
ATOM     34  H   UNL     1      34.120  -4.837 -27.254  0.00  0.00    +0.150 HD
BRANCH  33  35
ATOM     35  C   UNL     1      34.913  -5.591 -29.485  0.00  0.00    +0.227 C 
BRANCH  35  36
ATOM     36  O   UNL     1      33.593  -6.087 -29.542  0.00  0.00    -0.342 OA
ATOM     37  C   UNL     1      32.674  -5.099 -30.000  0.00  0.00    +0.175 C 
ENDBRANCH  35  36
ENDBRANCH  33  35
ENDBRANCH  30  32
ENDBRANCH  29  30
ENDBRANCH   8  28
TORSDOF 8
ENDMDL
