MODEL 1
REMARK VINA RESULT:     -10.2      0.000      0.000
REMARK  Name = 16750094
REMARK  4 active torsions:
REMARK  status: ('A' for Active; 'I' for Inactive)
REMARK    1  A    between atoms: C_4  and  C_22
REMARK    2  A    between atoms: C_7  and  C_12
REMARK    3  A    between atoms: C_14  and  C_19
REMARK    4  A    between atoms: C_23  and  O_28
REMARK                            x       y       z     vdW  Elec       q    Type
REMARK                         _______ _______ _______ _____ _____    ______ ____
ROOT
ATOM      1  N   UNL     1      36.620 -22.158 -16.944  0.00  0.00    -0.297 N 
ATOM      2  N   UNL     1      34.298 -22.377 -17.545  0.00  0.00    -0.229 NA
ATOM      3  C   UNL     1      35.303 -23.180 -15.458  0.00  0.00    +0.033 C 
ATOM      4  C   UNL     1      36.628 -23.139 -14.947  0.00  0.00    +0.020 C 
ATOM      5  C   UNL     1      35.333 -22.561 -16.704  0.00  0.00    +0.132 C 
ATOM      6  C   UNL     1      34.067 -23.673 -15.011  0.00  0.00    +0.004 C 
ATOM      7  C   UNL     1      32.962 -23.510 -15.843  0.00  0.00    +0.021 C 
ATOM      8  C   UNL     1      37.416 -22.504 -15.883  0.00  0.00    +0.063 C 
ATOM      9  C   UNL     1      33.133 -22.871 -17.064  0.00  0.00    +0.100 C 
ATOM     10  H   UNL     1      36.927 -21.692 -17.755  0.00  0.00    +0.154 HD
ENDROOT
BRANCH   7  12
ATOM     11  N   UNL     1      30.348 -25.449 -14.025  0.00  0.00    -0.242 NA
ATOM     12  C   UNL     1      31.661 -23.995 -15.441  0.00  0.00    +0.021 C 
ATOM     13  C   UNL     1      30.500 -23.516 -16.037  0.00  0.00    +0.008 C 
ATOM     14  C   UNL     1      29.263 -24.002 -15.629  0.00  0.00    +0.073 C 
ATOM     15  C   UNL     1      31.532 -24.954 -14.448  0.00  0.00    +0.099 C 
ATOM     16  C   UNL     1      29.241 -24.960 -14.628  0.00  0.00    +0.103 C 
BRANCH  14  19
ATOM     17  O   UNL     1      27.703 -24.026 -17.316  0.00  0.00    -0.270 OA
ATOM     18  N   UNL     1      27.298 -22.516 -15.577  0.00  0.00    -0.273 N 
ATOM     19  C   UNL     1      28.033 -23.522 -16.233  0.00  0.00    +0.251 C 
ATOM     20  C   UNL     1      26.064 -21.973 -16.128  0.00  0.00    +0.115 C 
ATOM     21  C   UNL     1      27.723 -21.950 -14.300  0.00  0.00    +0.115 C 
ENDBRANCH  14  19
ENDBRANCH   7  12
BRANCH   4  22
ATOM     22  C   UNL     1      37.153 -23.633 -13.707  0.00  0.00    +0.035 C 
ATOM     23  C   UNL     1      37.707 -24.910 -13.623  0.00  0.00    +0.139 C 
ATOM     24  C   UNL     1      37.105 -22.818 -12.576  0.00  0.00    +0.003 C 
ATOM     25  C   UNL     1      38.211 -25.373 -12.408  0.00  0.00    +0.037 C 
ATOM     26  C   UNL     1      37.610 -23.281 -11.361  0.00  0.00    +0.000 C 
ATOM     27  C   UNL     1      38.163 -24.558 -11.276  0.00  0.00    +0.003 C 
BRANCH  23  28
ATOM     28  O   UNL     1      37.766 -25.730 -14.711  0.00  0.00    -0.471 OA
ATOM     29  C   UNL     1      36.855 -26.825 -14.746  0.00  0.00    +0.252 C 
ENDBRANCH  23  28
ENDBRANCH   4  22
TORSDOF 4
ENDMDL
MODEL 2
REMARK VINA RESULT:     -10.0      4.364      6.820
REMARK  Name = 16750094
REMARK  4 active torsions:
REMARK  status: ('A' for Active; 'I' for Inactive)
REMARK    1  A    between atoms: C_4  and  C_22
REMARK    2  A    between atoms: C_7  and  C_12
REMARK    3  A    between atoms: C_14  and  C_19
REMARK    4  A    between atoms: C_23  and  O_28
REMARK                            x       y       z     vdW  Elec       q    Type
REMARK                         _______ _______ _______ _____ _____    ______ ____
ROOT
ATOM      1  N   UNL     1      32.433 -23.837 -16.138  0.00  0.00    -0.297 N 
ATOM      2  N   UNL     1      32.434 -22.467 -18.119  0.00  0.00    -0.229 NA
ATOM      3  C   UNL     1      34.379 -22.892 -16.689  0.00  0.00    +0.033 C 
ATOM      4  C   UNL     1      34.559 -23.657 -15.505  0.00  0.00    +0.020 C 
ATOM      5  C   UNL     1      33.044 -23.025 -17.056  0.00  0.00    +0.132 C 
ATOM      6  C   UNL     1      35.198 -22.093 -17.503  0.00  0.00    +0.004 C 
ATOM      7  C   UNL     1      34.616 -21.491 -18.617  0.00  0.00    +0.021 C 
ATOM      8  C   UNL     1      33.343 -24.227 -15.190  0.00  0.00    +0.063 C 
ATOM      9  C   UNL     1      33.269 -21.709 -18.868  0.00  0.00    +0.100 C 
ATOM     10  H   UNL     1      31.484 -24.100 -16.155  0.00  0.00    +0.154 HD
ENDROOT
BRANCH   7  12
ATOM     11  N   UNL     1      37.483 -19.500 -19.930  0.00  0.00    -0.242 NA
ATOM     12  C   UNL     1      35.404 -20.656 -19.495  0.00  0.00    +0.021 C 
ATOM     13  C   UNL     1      34.893 -20.206 -20.708  0.00  0.00    +0.008 C 
ATOM     14  C   UNL     1      35.674 -19.404 -21.532  0.00  0.00    +0.073 C 
ATOM     15  C   UNL     1      36.693 -20.278 -19.155  0.00  0.00    +0.099 C 
ATOM     16  C   UNL     1      36.951 -19.082 -21.101  0.00  0.00    +0.103 C 
BRANCH  14  19
ATOM     17  O   UNL     1      34.905 -19.768 -23.666  0.00  0.00    -0.270 OA
ATOM     18  N   UNL     1      35.021 -17.532 -22.995  0.00  0.00    -0.273 N 
ATOM     19  C   UNL     1      35.169 -18.919 -22.804  0.00  0.00    +0.251 C 
ATOM     20  C   UNL     1      34.537 -16.969 -24.247  0.00  0.00    +0.115 C 
ATOM     21  C   UNL     1      35.344 -16.564 -21.949  0.00  0.00    +0.115 C 
ENDBRANCH  14  19
ENDBRANCH   7  12
BRANCH   4  22
ATOM     22  C   UNL     1      35.734 -23.864 -14.711  0.00  0.00    +0.035 C 
ATOM     23  C   UNL     1      36.380 -25.101 -14.696  0.00  0.00    +0.139 C 
ATOM     24  C   UNL     1      36.232 -22.809 -13.946  0.00  0.00    +0.003 C 
ATOM     25  C   UNL     1      37.521 -25.283 -13.916  0.00  0.00    +0.037 C 
ATOM     26  C   UNL     1      37.374 -22.991 -13.167  0.00  0.00    +0.000 C 
ATOM     27  C   UNL     1      38.019 -24.228 -13.151  0.00  0.00    +0.003 C 
BRANCH  23  28
ATOM     28  O   UNL     1      35.915 -26.151 -15.432  0.00  0.00    -0.471 OA
ATOM     29  C   UNL     1      36.679 -27.354 -15.397  0.00  0.00    +0.252 C 
ENDBRANCH  23  28
ENDBRANCH   4  22
TORSDOF 4
ENDMDL
MODEL 3
REMARK VINA RESULT:      -9.8      9.147     12.160
REMARK  Name = 16750094
REMARK  4 active torsions:
REMARK  status: ('A' for Active; 'I' for Inactive)
REMARK    1  A    between atoms: C_4  and  C_22
REMARK    2  A    between atoms: C_7  and  C_12
REMARK    3  A    between atoms: C_14  and  C_19
REMARK    4  A    between atoms: C_23  and  O_28
REMARK                            x       y       z     vdW  Elec       q    Type
REMARK                         _______ _______ _______ _____ _____    ______ ____
ROOT
ATOM      1  N   UNL     1      33.521 -14.634 -25.354  0.00  0.00    -0.297 N 
ATOM      2  N   UNL     1      34.650 -16.739 -25.047  0.00  0.00    -0.229 NA
ATOM      3  C   UNL     1      33.900 -15.258 -23.244  0.00  0.00    +0.033 C 
ATOM      4  C   UNL     1      33.232 -14.003 -23.240  0.00  0.00    +0.020 C 
ATOM      5  C   UNL     1      34.065 -15.622 -24.577  0.00  0.00    +0.132 C 
ATOM      6  C   UNL     1      34.392 -16.138 -22.267  0.00  0.00    +0.004 C 
ATOM      7  C   UNL     1      35.008 -17.311 -22.699  0.00  0.00    +0.021 C 
ATOM      8  C   UNL     1      33.012 -13.645 -24.552  0.00  0.00    +0.063 C 
ATOM      9  C   UNL     1      35.105 -17.551 -24.063  0.00  0.00    +0.100 C 
ATOM     10  H   UNL     1      33.499 -14.634 -26.338  0.00  0.00    +0.154 HD
ENDROOT
BRANCH   7  12
ATOM     11  N   UNL     1      37.437 -19.126 -20.531  0.00  0.00    -0.242 NA
ATOM     12  C   UNL     1      35.535 -18.259 -21.744  0.00  0.00    +0.021 C 
ATOM     13  C   UNL     1      34.707 -19.190 -21.126  0.00  0.00    +0.008 C 
ATOM     14  C   UNL     1      35.243 -20.089 -20.211  0.00  0.00    +0.073 C 
ATOM     15  C   UNL     1      36.881 -18.268 -21.415  0.00  0.00    +0.099 C 
ATOM     16  C   UNL     1      36.602 -20.017 -19.950  0.00  0.00    +0.103 C 
BRANCH  14  19
ATOM     17  O   UNL     1      33.227 -21.156 -19.927  0.00  0.00    -0.270 OA
ATOM     18  N   UNL     1      34.958 -21.859 -18.521  0.00  0.00    -0.273 N 
ATOM     19  C   UNL     1      34.405 -21.074 -19.549  0.00  0.00    +0.251 C 
ATOM     20  C   UNL     1      34.177 -22.855 -17.800  0.00  0.00    +0.115 C 
ATOM     21  C   UNL     1      36.353 -21.730 -18.107  0.00  0.00    +0.115 C 
ENDBRANCH  14  19
ENDBRANCH   7  12
BRANCH   4  22
ATOM     22  C   UNL     1      32.820 -13.182 -22.139  0.00  0.00    +0.035 C 
ATOM     23  C   UNL     1      32.639 -11.808 -22.299  0.00  0.00    +0.139 C 
ATOM     24  C   UNL     1      32.600 -13.774 -20.895  0.00  0.00    +0.003 C 
ATOM     25  C   UNL     1      32.238 -11.027 -21.215  0.00  0.00    +0.037 C 
ATOM     26  C   UNL     1      32.199 -12.992 -19.812  0.00  0.00    +0.000 C 
ATOM     27  C   UNL     1      32.018 -11.619 -19.971  0.00  0.00    +0.003 C 
BRANCH  23  28
ATOM     28  O   UNL     1      32.848 -11.202 -23.502  0.00  0.00    -0.471 OA
ATOM     29  C   UNL     1      32.500  -9.823 -23.601  0.00  0.00    +0.252 C 
ENDBRANCH  23  28
ENDBRANCH   4  22
TORSDOF 4
ENDMDL
MODEL 4
REMARK VINA RESULT:      -9.7     13.438     16.092
REMARK  Name = 16750094
REMARK  4 active torsions:
REMARK  status: ('A' for Active; 'I' for Inactive)
REMARK    1  A    between atoms: C_4  and  C_22
REMARK    2  A    between atoms: C_7  and  C_12
REMARK    3  A    between atoms: C_14  and  C_19
REMARK    4  A    between atoms: C_23  and  O_28
REMARK                            x       y       z     vdW  Elec       q    Type
REMARK                         _______ _______ _______ _____ _____    ______ ____
ROOT
ATOM      1  N   UNL     1      31.435  -9.340 -20.444  0.00  0.00    -0.297 N 
ATOM      2  N   UNL     1      31.433 -11.735 -20.692  0.00  0.00    -0.229 NA
ATOM      3  C   UNL     1      32.658 -10.164 -22.121  0.00  0.00    +0.033 C 
ATOM      4  C   UNL     1      32.771  -8.748 -22.122  0.00  0.00    +0.020 C 
ATOM      5  C   UNL     1      31.818 -10.500 -21.063  0.00  0.00    +0.132 C 
ATOM      6  C   UNL     1      33.171 -11.215 -22.898  0.00  0.00    +0.004 C 
ATOM      7  C   UNL     1      32.804 -12.515 -22.557  0.00  0.00    +0.021 C 
ATOM      8  C   UNL     1      32.008  -8.269 -21.079  0.00  0.00    +0.063 C 
ATOM      9  C   UNL     1      31.957 -12.709 -21.475  0.00  0.00    +0.100 C 
ATOM     10  H   UNL     1      30.839  -9.284 -19.663  0.00  0.00    +0.154 HD
ENDROOT
BRANCH   7  12
ATOM     11  N   UNL     1      33.609 -14.704 -25.466  0.00  0.00    -0.242 NA
ATOM     12  C   UNL     1      33.298 -13.640 -23.318  0.00  0.00    +0.021 C 
ATOM     13  C   UNL     1      33.918 -14.714 -22.688  0.00  0.00    +0.008 C 
ATOM     14  C   UNL     1      34.383 -15.783 -23.446  0.00  0.00    +0.073 C 
ATOM     15  C   UNL     1      33.169 -13.683 -24.697  0.00  0.00    +0.099 C 
ATOM     16  C   UNL     1      34.206 -15.730 -24.820  0.00  0.00    +0.103 C 
BRANCH  14  19
ATOM     17  O   UNL     1      35.794 -16.680 -21.870  0.00  0.00    -0.270 OA
ATOM     18  N   UNL     1      34.787 -18.211 -23.322  0.00  0.00    -0.273 N 
ATOM     19  C   UNL     1      35.035 -16.920 -22.819  0.00  0.00    +0.251 C 
ATOM     20  C   UNL     1      35.415 -19.397 -22.757  0.00  0.00    +0.115 C 
ATOM     21  C   UNL     1      33.883 -18.448 -24.445  0.00  0.00    +0.115 C 
ENDBRANCH  14  19
ENDBRANCH   7  12
BRANCH   4  22
ATOM     22  C   UNL     1      33.511  -7.883 -22.994  0.00  0.00    +0.035 C 
ATOM     23  C   UNL     1      32.933  -7.377 -24.159  0.00  0.00    +0.139 C 
ATOM     24  C   UNL     1      34.825  -7.549 -22.666  0.00  0.00    +0.003 C 
ATOM     25  C   UNL     1      33.669  -6.539 -24.996  0.00  0.00    +0.037 C 
ATOM     26  C   UNL     1      35.560  -6.710 -23.503  0.00  0.00    +0.000 C 
ATOM     27  C   UNL     1      34.983  -6.204 -24.667  0.00  0.00    +0.003 C 
BRANCH  23  28
ATOM     28  O   UNL     1      31.651  -7.688 -24.506  0.00  0.00    -0.471 OA
ATOM     29  C   UNL     1      30.664  -6.680 -24.307  0.00  0.00    +0.252 C 
ENDBRANCH  23  28
ENDBRANCH   4  22
TORSDOF 4
ENDMDL
MODEL 5
REMARK VINA RESULT:      -9.7      4.656      7.205
REMARK  Name = 16750094
REMARK  4 active torsions:
REMARK  status: ('A' for Active; 'I' for Inactive)
REMARK    1  A    between atoms: C_4  and  C_22
REMARK    2  A    between atoms: C_7  and  C_12
REMARK    3  A    between atoms: C_14  and  C_19
REMARK    4  A    between atoms: C_23  and  O_28
REMARK                            x       y       z     vdW  Elec       q    Type
REMARK                         _______ _______ _______ _____ _____    ______ ____
ROOT
ATOM      1  N   UNL     1      32.278 -23.476 -16.406  0.00  0.00    -0.297 N 
ATOM      2  N   UNL     1      32.250 -21.966 -18.282  0.00  0.00    -0.229 NA
ATOM      3  C   UNL     1      34.263 -22.748 -17.123  0.00  0.00    +0.033 C 
ATOM      4  C   UNL     1      34.465 -23.621 -16.021  0.00  0.00    +0.020 C 
ATOM      5  C   UNL     1      32.890 -22.679 -17.337  0.00  0.00    +0.132 C 
ATOM      6  C   UNL     1      35.089 -21.998 -17.976  0.00  0.00    +0.004 C 
ATOM      7  C   UNL     1      34.477 -21.240 -18.973  0.00  0.00    +0.021 C 
ATOM      8  C   UNL     1      33.225 -24.053 -15.601  0.00  0.00    +0.063 C 
ATOM      9  C   UNL     1      33.093 -21.263 -19.075  0.00  0.00    +0.100 C 
ATOM     10  H   UNL     1      31.306 -23.613 -16.328  0.00  0.00    +0.154 HD
ENDROOT
BRANCH   7  12
ATOM     11  N   UNL     1      37.398 -19.432 -20.421  0.00  0.00    -0.242 NA
ATOM     12  C   UNL     1      35.271 -20.447 -19.883  0.00  0.00    +0.021 C 
ATOM     13  C   UNL     1      34.724 -19.939 -21.057  0.00  0.00    +0.008 C 
ATOM     14  C   UNL     1      35.513 -19.179 -21.913  0.00  0.00    +0.073 C 
ATOM     15  C   UNL     1      36.601 -20.167 -19.614  0.00  0.00    +0.099 C 
ATOM     16  C   UNL     1      36.832 -18.956 -21.553  0.00  0.00    +0.103 C 
BRANCH  14  19
ATOM     17  O   UNL     1      34.633 -19.447 -24.019  0.00  0.00    -0.270 OA
ATOM     18  N   UNL     1      34.874 -17.239 -23.291  0.00  0.00    -0.273 N 
ATOM     19  C   UNL     1      34.971 -18.635 -23.146  0.00  0.00    +0.251 C 
ATOM     20  C   UNL     1      34.357 -16.619 -24.503  0.00  0.00    +0.115 C 
ATOM     21  C   UNL     1      35.284 -16.317 -22.234  0.00  0.00    +0.115 C 
ENDBRANCH  14  19
ENDBRANCH   7  12
BRANCH   4  22
ATOM     22  C   UNL     1      35.680 -24.039 -15.386  0.00  0.00    +0.035 C 
ATOM     23  C   UNL     1      36.689 -23.121 -15.095  0.00  0.00    +0.139 C 
ATOM     24  C   UNL     1      35.848 -25.385 -15.059  0.00  0.00    +0.003 C 
ATOM     25  C   UNL     1      37.865 -23.548 -14.479  0.00  0.00    +0.037 C 
ATOM     26  C   UNL     1      37.024 -25.812 -14.443  0.00  0.00    +0.000 C 
ATOM     27  C   UNL     1      38.033 -24.894 -14.152  0.00  0.00    +0.003 C 
BRANCH  23  28
ATOM     28  O   UNL     1      36.554 -21.799 -15.405  0.00  0.00    -0.471 OA
ATOM     29  C   UNL     1      37.602 -21.203 -16.164  0.00  0.00    +0.252 C 
ENDBRANCH  23  28
ENDBRANCH   4  22
TORSDOF 4
ENDMDL
MODEL 6
REMARK VINA RESULT:      -9.5      2.782      5.181
REMARK  Name = 16750094
REMARK  4 active torsions:
REMARK  status: ('A' for Active; 'I' for Inactive)
REMARK    1  A    between atoms: C_4  and  C_22
REMARK    2  A    between atoms: C_7  and  C_12
REMARK    3  A    between atoms: C_14  and  C_19
REMARK    4  A    between atoms: C_23  and  O_28
REMARK                            x       y       z     vdW  Elec       q    Type
REMARK                         _______ _______ _______ _____ _____    ______ ____
ROOT
ATOM      1  N   UNL     1      37.131 -22.354 -16.702  0.00  0.00    -0.297 N 
ATOM      2  N   UNL     1      35.957 -23.599 -15.006  0.00  0.00    -0.229 NA
ATOM      3  C   UNL     1      34.912 -22.475 -16.917  0.00  0.00    +0.033 C 
ATOM      4  C   UNL     1      35.437 -21.710 -17.993  0.00  0.00    +0.020 C 
ATOM      5  C   UNL     1      35.993 -22.860 -16.131  0.00  0.00    +0.132 C 
ATOM      6  C   UNL     1      33.634 -22.892 -16.510  0.00  0.00    +0.004 C 
ATOM      7  C   UNL     1      33.540 -23.658 -15.350  0.00  0.00    +0.021 C 
ATOM      8  C   UNL     1      36.805 -21.653 -17.834  0.00  0.00    +0.063 C 
ATOM      9  C   UNL     1      34.703 -23.973 -14.660  0.00  0.00    +0.100 C 
ATOM     10  H   UNL     1      38.043 -22.475 -16.352  0.00  0.00    +0.154 HD
ENDROOT
BRANCH   7  12
ATOM     11  N   UNL     1      30.981 -25.363 -13.242  0.00  0.00    -0.242 NA
ATOM     12  C   UNL     1      32.254 -24.119 -14.877  0.00  0.00    +0.021 C 
ATOM     13  C   UNL     1      31.083 -23.790 -15.550  0.00  0.00    +0.008 C 
ATOM     14  C   UNL     1      29.860 -24.247 -15.071  0.00  0.00    +0.073 C 
ATOM     15  C   UNL     1      32.150 -24.901 -13.738  0.00  0.00    +0.099 C 
ATOM     16  C   UNL     1      29.863 -25.024 -13.924  0.00  0.00    +0.103 C 
BRANCH  14  19
ATOM     17  O   UNL     1      28.262 -24.680 -16.665  0.00  0.00    -0.270 OA
ATOM     18  N   UNL     1      27.904 -22.776 -15.357  0.00  0.00    -0.273 N 
ATOM     19  C   UNL     1      28.619 -23.922 -15.752  0.00  0.00    +0.251 C 
ATOM     20  C   UNL     1      26.662 -22.376 -16.002  0.00  0.00    +0.115 C 
ATOM     21  C   UNL     1      28.361 -21.909 -14.273  0.00  0.00    +0.115 C 
ENDBRANCH  14  19
ENDBRANCH   7  12
BRANCH   4  22
ATOM     22  C   UNL     1      34.763 -21.075 -19.088  0.00  0.00    +0.035 C 
ATOM     23  C   UNL     1      35.458 -20.253 -19.977  0.00  0.00    +0.139 C 
ATOM     24  C   UNL     1      33.395 -21.286 -19.258  0.00  0.00    +0.003 C 
ATOM     25  C   UNL     1      34.783 -19.643 -21.034  0.00  0.00    +0.037 C 
ATOM     26  C   UNL     1      32.722 -20.676 -20.316  0.00  0.00    +0.000 C 
ATOM     27  C   UNL     1      33.415 -19.855 -21.205  0.00  0.00    +0.003 C 
BRANCH  23  28
ATOM     28  O   UNL     1      36.795 -20.027 -19.834  0.00  0.00    -0.471 OA
ATOM     29  C   UNL     1      37.373 -19.023 -20.664  0.00  0.00    +0.252 C 
ENDBRANCH  23  28
ENDBRANCH   4  22
TORSDOF 4
ENDMDL
MODEL 7
REMARK VINA RESULT:      -9.2     15.074     17.197
REMARK  Name = 16750094
REMARK  4 active torsions:
REMARK  status: ('A' for Active; 'I' for Inactive)
REMARK    1  A    between atoms: C_4  and  C_22
REMARK    2  A    between atoms: C_7  and  C_12
REMARK    3  A    between atoms: C_14  and  C_19
REMARK    4  A    between atoms: C_23  and  O_28
REMARK                            x       y       z     vdW  Elec       q    Type
REMARK                         _______ _______ _______ _____ _____    ______ ____
ROOT
ATOM      1  N   UNL     1      31.079 -11.889 -20.618  0.00  0.00    -0.297 N 
ATOM      2  N   UNL     1      31.378  -9.517 -20.909  0.00  0.00    -0.229 NA
ATOM      3  C   UNL     1      32.544 -11.258 -22.181  0.00  0.00    +0.033 C 
ATOM      4  C   UNL     1      32.495 -12.677 -22.144  0.00  0.00    +0.020 C 
ATOM      5  C   UNL     1      31.651 -10.798 -21.217  0.00  0.00    +0.132 C 
ATOM      6  C   UNL     1      33.247 -10.295 -22.924  0.00  0.00    +0.004 C 
ATOM      7  C   UNL     1      33.002  -8.952 -22.644  0.00  0.00    +0.021 C 
ATOM      8  C   UNL     1      31.585 -13.036 -21.172  0.00  0.00    +0.063 C 
ATOM      9  C   UNL     1      32.082  -8.632 -21.655  0.00  0.00    +0.100 C 
ATOM     10  H   UNL     1      30.409 -11.854 -19.898  0.00  0.00    +0.154 HD
ENDROOT
BRANCH   7  12
ATOM     11  N   UNL     1      35.669  -6.549 -23.648  0.00  0.00    -0.242 NA
ATOM     12  C   UNL     1      33.693  -7.913 -23.373  0.00  0.00    +0.021 C 
ATOM     13  C   UNL     1      33.098  -7.283 -24.460  0.00  0.00    +0.008 C 
ATOM     14  C   UNL     1      33.787  -6.286 -25.142  0.00  0.00    +0.073 C 
ATOM     15  C   UNL     1      34.969  -7.513 -23.010  0.00  0.00    +0.099 C 
ATOM     16  C   UNL     1      35.059  -5.959 -24.700  0.00  0.00    +0.103 C 
BRANCH  14  19
ATOM     17  O   UNL     1      33.413  -6.093 -27.401  0.00  0.00    -0.270 OA
ATOM     18  N   UNL     1      32.426  -4.450 -26.062  0.00  0.00    -0.273 N 
ATOM     19  C   UNL     1      33.193  -5.609 -26.281  0.00  0.00    +0.251 C 
ATOM     20  C   UNL     1      31.813  -3.707 -27.155  0.00  0.00    +0.115 C 
ATOM     21  C   UNL     1      32.192  -3.914 -24.724  0.00  0.00    +0.115 C 
ENDBRANCH  14  19
ENDBRANCH   7  12
BRANCH   4  22
ATOM     22  C   UNL     1      33.211 -13.645 -22.922  0.00  0.00    +0.035 C 
ATOM     23  C   UNL     1      34.284 -14.350 -22.377  0.00  0.00    +0.139 C 
ATOM     24  C   UNL     1      32.822 -13.878 -24.241  0.00  0.00    +0.003 C 
ATOM     25  C   UNL     1      34.968 -15.287 -23.151  0.00  0.00    +0.037 C 
ATOM     26  C   UNL     1      33.507 -14.815 -25.015  0.00  0.00    +0.000 C 
ATOM     27  C   UNL     1      34.580 -15.520 -24.471  0.00  0.00    +0.003 C 
BRANCH  23  28
ATOM     28  O   UNL     1      34.688 -14.142 -21.091  0.00  0.00    -0.471 OA
ATOM     29  C   UNL     1      34.601 -15.250 -20.198  0.00  0.00    +0.252 C 
ENDBRANCH  23  28
ENDBRANCH   4  22
TORSDOF 4
ENDMDL
MODEL 8
REMARK VINA RESULT:      -9.2      3.312      5.994
REMARK  Name = 16750094
REMARK  4 active torsions:
REMARK  status: ('A' for Active; 'I' for Inactive)
REMARK    1  A    between atoms: C_4  and  C_22
REMARK    2  A    between atoms: C_7  and  C_12
REMARK    3  A    between atoms: C_14  and  C_19
REMARK    4  A    between atoms: C_23  and  O_28
REMARK                            x       y       z     vdW  Elec       q    Type
REMARK                         _______ _______ _______ _____ _____    ______ ____
ROOT
ATOM      1  N   UNL     1      31.889 -24.453 -14.199  0.00  0.00    -0.297 N 
ATOM      2  N   UNL     1      31.896 -23.374 -16.353  0.00  0.00    -0.229 NA
ATOM      3  C   UNL     1      33.857 -23.674 -14.912  0.00  0.00    +0.033 C 
ATOM      4  C   UNL     1      34.035 -24.274 -13.636  0.00  0.00    +0.020 C 
ATOM      5  C   UNL     1      32.509 -23.802 -15.233  0.00  0.00    +0.132 C 
ATOM      6  C   UNL     1      34.686 -23.030 -15.845  0.00  0.00    +0.004 C 
ATOM      7  C   UNL     1      34.102 -22.566 -17.022  0.00  0.00    +0.021 C 
ATOM      8  C   UNL     1      32.807 -24.743 -13.223  0.00  0.00    +0.063 C 
ATOM      9  C   UNL     1      32.741 -22.761 -17.216  0.00  0.00    +0.100 C 
ATOM     10  H   UNL     1      30.931 -24.676 -14.162  0.00  0.00    +0.154 HD
ENDROOT
BRANCH   7  12
ATOM     11  N   UNL     1      37.088 -21.313 -18.869  0.00  0.00    -0.242 NA
ATOM     12  C   UNL     1      34.900 -21.895 -18.022  0.00  0.00    +0.021 C 
ATOM     13  C   UNL     1      34.303 -21.203 -19.071  0.00  0.00    +0.008 C 
ATOM     14  C   UNL     1      35.097 -20.567 -20.019  0.00  0.00    +0.073 C 
ATOM     15  C   UNL     1      36.284 -21.919 -17.967  0.00  0.00    +0.099 C 
ATOM     16  C   UNL     1      36.472 -20.651 -19.874  0.00  0.00    +0.103 C 
BRANCH  14  19
ATOM     17  O   UNL     1      33.331 -20.111 -21.417  0.00  0.00    -0.270 OA
ATOM     18  N   UNL     1      35.281 -18.882 -21.807  0.00  0.00    -0.273 N 
ATOM     19  C   UNL     1      34.504 -19.837 -21.125  0.00  0.00    +0.251 C 
ATOM     20  C   UNL     1      34.763 -18.123 -22.936  0.00  0.00    +0.115 C 
ATOM     21  C   UNL     1      36.662 -18.589 -21.429  0.00  0.00    +0.115 C 
ENDBRANCH  14  19
ENDBRANCH   7  12
BRANCH   4  22
ATOM     22  C   UNL     1      35.220 -24.416 -12.842  0.00  0.00    +0.035 C 
ATOM     23  C   UNL     1      36.257 -25.256 -13.248  0.00  0.00    +0.139 C 
ATOM     24  C   UNL     1      35.328 -23.701 -11.649  0.00  0.00    +0.003 C 
ATOM     25  C   UNL     1      37.401 -25.382 -12.461  0.00  0.00    +0.037 C 
ATOM     26  C   UNL     1      36.473 -23.827 -10.862  0.00  0.00    +0.000 C 
ATOM     27  C   UNL     1      37.510 -24.667 -11.268  0.00  0.00    +0.003 C 
BRANCH  23  28
ATOM     28  O   UNL     1      36.179 -25.968 -14.409  0.00  0.00    -0.471 OA
ATOM     29  C   UNL     1      37.290 -26.798 -14.734  0.00  0.00    +0.252 C 
ENDBRANCH  23  28
ENDBRANCH   4  22
TORSDOF 4
ENDMDL
MODEL 9
REMARK VINA RESULT:      -9.0     13.088     15.772
REMARK  Name = 16750094
REMARK  4 active torsions:
REMARK  status: ('A' for Active; 'I' for Inactive)
REMARK    1  A    between atoms: C_4  and  C_22
REMARK    2  A    between atoms: C_7  and  C_12
REMARK    3  A    between atoms: C_14  and  C_19
REMARK    4  A    between atoms: C_23  and  O_28
REMARK                            x       y       z     vdW  Elec       q    Type
REMARK                         _______ _______ _______ _____ _____    ______ ____
ROOT
ATOM      1  N   UNL     1      31.569  -9.875 -19.747  0.00  0.00    -0.297 N 
ATOM      2  N   UNL     1      32.145 -12.204 -19.959  0.00  0.00    -0.229 NA
ATOM      3  C   UNL     1      32.264 -10.545 -21.760  0.00  0.00    +0.033 C 
ATOM      4  C   UNL     1      31.969  -9.156 -21.815  0.00  0.00    +0.020 C 
ATOM      5  C   UNL     1      32.003 -10.962 -20.458  0.00  0.00    +0.132 C 
ATOM      6  C   UNL     1      32.726 -11.512 -22.669  0.00  0.00    +0.004 C 
ATOM      7  C   UNL     1      32.889 -12.815 -22.204  0.00  0.00    +0.021 C 
ATOM      8  C   UNL     1      31.544  -8.772 -20.562  0.00  0.00    +0.063 C 
ATOM      9  C   UNL     1      32.592 -13.094 -20.877  0.00  0.00    +0.100 C 
ATOM     10  H   UNL     1      31.313  -9.884 -18.797  0.00  0.00    +0.154 HD
ENDROOT
BRANCH   7  12
ATOM     11  N   UNL     1      33.635 -14.682 -25.344  0.00  0.00    -0.242 NA
ATOM     12  C   UNL     1      33.361 -13.856 -23.088  0.00  0.00    +0.021 C 
ATOM     13  C   UNL     1      33.973 -15.000 -22.587  0.00  0.00    +0.008 C 
ATOM     14  C   UNL     1      34.417 -15.985 -23.463  0.00  0.00    +0.073 C 
ATOM     15  C   UNL     1      33.217 -13.746 -24.462  0.00  0.00    +0.099 C 
ATOM     16  C   UNL     1      34.226 -15.780 -24.820  0.00  0.00    +0.103 C 
BRANCH  14  19
ATOM     17  O   UNL     1      35.946 -17.049 -22.117  0.00  0.00    -0.270 OA
ATOM     18  N   UNL     1      34.661 -18.436 -23.492  0.00  0.00    -0.273 N 
ATOM     19  C   UNL     1      35.059 -17.191 -22.972  0.00  0.00    +0.251 C 
ATOM     20  C   UNL     1      35.270 -19.687 -23.061  0.00  0.00    +0.115 C 
ATOM     21  C   UNL     1      33.610 -18.559 -24.499  0.00  0.00    +0.115 C 
ENDBRANCH  14  19
ENDBRANCH   7  12
BRANCH   4  22
ATOM     22  C   UNL     1      32.061  -8.237 -22.911  0.00  0.00    +0.035 C 
ATOM     23  C   UNL     1      33.301  -7.790 -23.369  0.00  0.00    +0.139 C 
ATOM     24  C   UNL     1      30.890  -7.790 -23.523  0.00  0.00    +0.003 C 
ATOM     25  C   UNL     1      33.369  -6.894 -24.436  0.00  0.00    +0.037 C 
ATOM     26  C   UNL     1      30.959  -6.895 -24.590  0.00  0.00    +0.000 C 
ATOM     27  C   UNL     1      32.198  -6.447 -25.047  0.00  0.00    +0.003 C 
BRANCH  23  28
ATOM     28  O   UNL     1      34.462  -8.208 -22.789  0.00  0.00    -0.471 OA
ATOM     29  C   UNL     1      35.435  -8.802 -23.645  0.00  0.00    +0.252 C 
ENDBRANCH  23  28
ENDBRANCH   4  22
TORSDOF 4
ENDMDL
