MODEL 1
REMARK VINA RESULT:     -12.5      0.000      0.000
REMARK  Name = 16040279
REMARK  5 active torsions:
REMARK  status: ('A' for Active; 'I' for Inactive)
REMARK    1  A    between atoms: N_2  and  C_21
REMARK    2  A    between atoms: C_3  and  C_11
REMARK    3  A    between atoms: C_4  and  N_17
REMARK    4  A    between atoms: C_21  and  C_22
REMARK    5  A    between atoms: C_22  and  C_25
REMARK                            x       y       z     vdW  Elec       q    Type
REMARK                         _______ _______ _______ _____ _____    ______ ____
ROOT
ATOM      1  O   UNL     1      35.215 -15.958 -19.936  0.00  0.00    -0.275 OA
ATOM      2  N   UNL     1      34.930 -16.442 -22.188  0.00  0.00    -0.281 N 
ATOM      3  C   UNL     1      34.065 -13.736 -22.620  0.00  0.00    +0.015 C 
ATOM      4  C   UNL     1      33.667 -14.823 -23.634  0.00  0.00    -0.041 C 
ATOM      5  C   UNL     1      34.680 -15.962 -23.546  0.00  0.00    +0.072 C 
ATOM      6  C   UNL     1      34.031 -14.347 -21.216  0.00  0.00    +0.088 C 
ATOM      7  C   UNL     1      34.809 -15.639 -21.057  0.00  0.00    +0.226 C 
ENDROOT
BRANCH   3  11
ATOM      8  F   UNL     1      34.673 -11.481 -24.233  0.00  0.00    -0.204 F 
ATOM      9  F   UNL     1      30.142 -11.202 -21.183  0.00  0.00    -0.202 F 
ATOM     10  F   UNL     1      30.848  -9.102 -22.784  0.00  0.00    -0.202 F 
ATOM     11  C   UNL     1      33.200 -12.486 -22.666  0.00  0.00    +0.006 C 
ATOM     12  C   UNL     1      33.564 -11.420 -23.482  0.00  0.00    +0.138 C 
ATOM     13  C   UNL     1      32.048 -12.418 -21.888  0.00  0.00    +0.030 C 
ATOM     14  C   UNL     1      31.251 -11.272 -21.928  0.00  0.00    +0.167 C 
ATOM     15  C   UNL     1      32.768 -10.274 -23.522  0.00  0.00    +0.061 C 
ATOM     16  C   UNL     1      31.612 -10.201 -22.745  0.00  0.00    +0.170 C 
ENDBRANCH   3  11
BRANCH   4  17
ATOM     17  N   UNL     1      33.660 -14.317 -25.008  0.00  0.00    +0.383 N 
ATOM     18  H   UNL     1      33.805 -15.091 -25.657  0.00  0.00    -0.089 HD
ATOM     19  H   UNL     1      34.409 -13.632 -25.123  0.00  0.00    -0.089 HD
ATOM     20  H   UNL     1      32.762 -13.873 -25.204  0.00  0.00    -0.089 HD
ENDBRANCH   4  17
BRANCH   2  21
ATOM     21  C   UNL     1      35.583 -17.740 -22.083  0.00  0.00    +0.098 C 
BRANCH  21  22
ATOM     22  C   UNL     1      34.592 -18.901 -22.142  0.00  0.00    +0.048 C 
BRANCH  22  25
ATOM     23  O   UNL     1      32.804 -21.995 -18.735  0.00  0.00    -0.435 OA
ATOM     24  O   UNL     1      34.994 -22.471 -17.851  0.00  0.00    -0.435 OA
ATOM     25  C   UNL     1      34.737 -19.859 -20.986  0.00  0.00    -0.017 C 
ATOM     26  C   UNL     1      33.601 -20.451 -20.451  0.00  0.00    +0.036 C 
ATOM     27  C   UNL     1      36.013 -20.125 -20.482  0.00  0.00    -0.001 C 
ATOM     28  C   UNL     1      33.784 -21.320 -19.394  0.00  0.00    +0.176 C 
ATOM     29  C   UNL     1      35.036 -21.591 -18.888  0.00  0.00    +0.176 C 
ATOM     30  C   UNL     1      36.171 -21.009 -19.412  0.00  0.00    +0.040 C 
ATOM     31  C   UNL     1      33.577 -22.723 -17.760  0.00  0.00    +0.429 C 
ENDBRANCH  22  25
ENDBRANCH  21  22
ENDBRANCH   2  21
TORSDOF 5
ENDMDL
MODEL 2
REMARK VINA RESULT:     -12.4      1.576      2.742
REMARK  Name = 16040279
REMARK  5 active torsions:
REMARK  status: ('A' for Active; 'I' for Inactive)
REMARK    1  A    between atoms: N_2  and  C_21
REMARK    2  A    between atoms: C_3  and  C_11
REMARK    3  A    between atoms: C_4  and  N_17
REMARK    4  A    between atoms: C_21  and  C_22
REMARK    5  A    between atoms: C_22  and  C_25
REMARK                            x       y       z     vdW  Elec       q    Type
REMARK                         _______ _______ _______ _____ _____    ______ ____
ROOT
ATOM      1  O   UNL     1      34.554 -17.501 -24.826  0.00  0.00    -0.275 OA
ATOM      2  N   UNL     1      35.214 -17.280 -22.612  0.00  0.00    -0.281 N 
ATOM      3  C   UNL     1      33.791 -14.786 -22.478  0.00  0.00    +0.015 C 
ATOM      4  C   UNL     1      34.916 -15.066 -21.465  0.00  0.00    -0.041 C 
ATOM      5  C   UNL     1      35.088 -16.578 -21.336  0.00  0.00    +0.072 C 
ATOM      6  C   UNL     1      34.201 -15.375 -23.831  0.00  0.00    +0.088 C 
ATOM      7  C   UNL     1      34.641 -16.826 -23.797  0.00  0.00    +0.226 C 
ENDROOT
BRANCH   3  11
ATOM      8  F   UNL     1      31.615 -13.560 -21.132  0.00  0.00    -0.204 F 
ATOM      9  F   UNL     1      34.609 -10.379 -24.422  0.00  0.00    -0.202 F 
ATOM     10  F   UNL     1      32.482  -9.328 -23.063  0.00  0.00    -0.202 F 
ATOM     11  C   UNL     1      33.436 -13.316 -22.634  0.00  0.00    +0.006 C 
ATOM     12  C   UNL     1      32.353 -12.786 -21.940  0.00  0.00    +0.138 C 
ATOM     13  C   UNL     1      34.200 -12.509 -23.472  0.00  0.00    +0.030 C 
ATOM     14  C   UNL     1      33.877 -11.159 -23.618  0.00  0.00    +0.167 C 
ATOM     15  C   UNL     1      32.029 -11.437 -22.086  0.00  0.00    +0.061 C 
ATOM     16  C   UNL     1      32.792 -10.624 -22.924  0.00  0.00    +0.170 C 
ENDBRANCH   3  11
BRANCH   4  17
ATOM     17  N   UNL     1      34.610 -14.522 -20.140  0.00  0.00    +0.383 N 
ATOM     18  H   UNL     1      33.944 -13.755 -20.233  0.00  0.00    -0.089 HD
ATOM     19  H   UNL     1      35.468 -14.177 -19.708  0.00  0.00    -0.089 HD
ATOM     20  H   UNL     1      34.205 -15.254 -19.556  0.00  0.00    -0.089 HD
ENDBRANCH   4  17
BRANCH   2  21
ATOM     21  C   UNL     1      35.743 -18.636 -22.542  0.00  0.00    +0.098 C 
BRANCH  21  22
ATOM     22  C   UNL     1      36.212 -19.010 -21.137  0.00  0.00    +0.048 C 
BRANCH  22  25
ATOM     23  O   UNL     1      35.124 -22.679 -18.018  0.00  0.00    -0.435 OA
ATOM     24  O   UNL     1      32.756 -22.469 -18.414  0.00  0.00    -0.435 OA
ATOM     25  C   UNL     1      35.252 -19.925 -20.420  0.00  0.00    -0.017 C 
ATOM     26  C   UNL     1      35.752 -20.876 -19.541  0.00  0.00    +0.036 C 
ATOM     27  C   UNL     1      33.882 -19.793 -20.660  0.00  0.00    -0.001 C 
ATOM     28  C   UNL     1      34.835 -21.691 -18.909  0.00  0.00    +0.176 C 
ATOM     29  C   UNL     1      33.482 -21.571 -19.135  0.00  0.00    +0.176 C 
ATOM     30  C   UNL     1      32.974 -20.630 -20.007  0.00  0.00    +0.040 C 
ATOM     31  C   UNL     1      33.802 -23.166 -17.709  0.00  0.00    +0.429 C 
ENDBRANCH  22  25
ENDBRANCH  21  22
ENDBRANCH   2  21
TORSDOF 5
ENDMDL
MODEL 3
REMARK VINA RESULT:     -11.6      4.527      7.349
REMARK  Name = 16040279
REMARK  5 active torsions:
REMARK  status: ('A' for Active; 'I' for Inactive)
REMARK    1  A    between atoms: N_2  and  C_21
REMARK    2  A    between atoms: C_3  and  C_11
REMARK    3  A    between atoms: C_4  and  N_17
REMARK    4  A    between atoms: C_21  and  C_22
REMARK    5  A    between atoms: C_22  and  C_25
REMARK                            x       y       z     vdW  Elec       q    Type
REMARK                         _______ _______ _______ _____ _____    ______ ____
ROOT
ATOM      1  O   UNL     1      32.560 -21.994 -18.589  0.00  0.00    -0.275 OA
ATOM      2  N   UNL     1      34.869 -21.894 -18.374  0.00  0.00    -0.281 N 
ATOM      3  C   UNL     1      34.900 -19.653 -20.172  0.00  0.00    +0.015 C 
ATOM      4  C   UNL     1      36.184 -20.479 -19.978  0.00  0.00    -0.041 C 
ATOM      5  C   UNL     1      36.115 -21.171 -18.618  0.00  0.00    +0.072 C 
ATOM      6  C   UNL     1      33.702 -20.605 -20.139  0.00  0.00    +0.088 C 
ATOM      7  C   UNL     1      33.650 -21.536 -18.943  0.00  0.00    +0.226 C 
ENDROOT
BRANCH   3  11
ATOM      8  F   UNL     1      35.548 -16.891 -20.242  0.00  0.00    -0.204 F 
ATOM      9  F   UNL     1      34.148 -19.234 -24.981  0.00  0.00    -0.202 F 
ATOM     10  F   UNL     1      34.796 -16.579 -24.904  0.00  0.00    -0.202 F 
ATOM     11  C   UNL     1      34.873 -18.823 -21.445  0.00  0.00    +0.006 C 
ATOM     12  C   UNL     1      35.203 -17.471 -21.400  0.00  0.00    +0.138 C 
ATOM     13  C   UNL     1      34.516 -19.421 -22.649  0.00  0.00    +0.030 C 
ATOM     14  C   UNL     1      34.490 -18.663 -23.820  0.00  0.00    +0.167 C 
ATOM     15  C   UNL     1      35.177 -16.712 -22.570  0.00  0.00    +0.061 C 
ATOM     16  C   UNL     1      34.821 -17.308 -23.780  0.00  0.00    +0.170 C 
ENDBRANCH   3  11
BRANCH   4  17
ATOM     17  N   UNL     1      37.386 -19.643 -20.010  0.00  0.00    +0.383 N 
ATOM     18  H   UNL     1      38.215 -20.238 -19.984  0.00  0.00    -0.089 HD
ATOM     19  H   UNL     1      37.389 -19.021 -19.201  0.00  0.00    -0.089 HD
ATOM     20  H   UNL     1      37.393 -19.088 -20.866  0.00  0.00    -0.089 HD
ENDBRANCH   4  17
BRANCH   2  21
ATOM     21  C   UNL     1      34.897 -22.859 -17.281  0.00  0.00    +0.098 C 
BRANCH  21  22
ATOM     22  C   UNL     1      35.650 -22.337 -16.059  0.00  0.00    +0.048 C 
BRANCH  22  25
ATOM     23  O   UNL     1      39.738 -24.530 -14.368  0.00  0.00    -0.435 OA
ATOM     24  O   UNL     1      38.490 -26.305 -13.318  0.00  0.00    -0.435 OA
ATOM     25  C   UNL     1      36.384 -23.423 -15.312  0.00  0.00    -0.017 C 
ATOM     26  C   UNL     1      37.769 -23.379 -15.242  0.00  0.00    +0.036 C 
ATOM     27  C   UNL     1      35.648 -24.446 -14.708  0.00  0.00    -0.001 C 
ATOM     28  C   UNL     1      38.396 -24.395 -14.548  0.00  0.00    +0.176 C 
ATOM     29  C   UNL     1      37.683 -25.409 -13.949  0.00  0.00    +0.176 C 
ATOM     30  C   UNL     1      36.306 -25.462 -14.011  0.00  0.00    +0.040 C 
ATOM     31  C   UNL     1      39.790 -25.742 -13.588  0.00  0.00    +0.429 C 
ENDBRANCH  22  25
ENDBRANCH  21  22
ENDBRANCH   2  21
TORSDOF 5
ENDMDL
MODEL 4
REMARK VINA RESULT:     -11.5      3.809      6.506
REMARK  Name = 16040279
REMARK  5 active torsions:
REMARK  status: ('A' for Active; 'I' for Inactive)
REMARK    1  A    between atoms: N_2  and  C_21
REMARK    2  A    between atoms: C_3  and  C_11
REMARK    3  A    between atoms: C_4  and  N_17
REMARK    4  A    between atoms: C_21  and  C_22
REMARK    5  A    between atoms: C_22  and  C_25
REMARK                            x       y       z     vdW  Elec       q    Type
REMARK                         _______ _______ _______ _____ _____    ______ ____
ROOT
ATOM      1  O   UNL     1      32.989 -21.290 -19.109  0.00  0.00    -0.275 OA
ATOM      2  N   UNL     1      35.308 -21.213 -19.160  0.00  0.00    -0.281 N 
ATOM      3  C   UNL     1      35.153 -18.857 -20.798  0.00  0.00    +0.015 C 
ATOM      4  C   UNL     1      36.442 -19.698 -20.812  0.00  0.00    -0.041 C 
ATOM      5  C   UNL     1      36.525 -20.479 -19.502  0.00  0.00    +0.072 C 
ATOM      6  C   UNL     1      33.956 -19.805 -20.687  0.00  0.00    +0.088 C 
ATOM      7  C   UNL     1      34.035 -20.813 -19.557  0.00  0.00    +0.226 C 
ENDROOT
BRANCH   3  11
ATOM      8  F   UNL     1      34.682 -19.818 -23.427  0.00  0.00    -0.204 F 
ATOM      9  F   UNL     1      34.982 -14.395 -22.783  0.00  0.00    -0.202 F 
ATOM     10  F   UNL     1      34.532 -15.458 -25.261  0.00  0.00    -0.202 F 
ATOM     11  C   UNL     1      34.986 -17.943 -22.002  0.00  0.00    +0.006 C 
ATOM     12  C   UNL     1      34.757 -18.490 -23.262  0.00  0.00    +0.138 C 
ATOM     13  C   UNL     1      35.063 -16.564 -21.836  0.00  0.00    +0.030 C 
ATOM     14  C   UNL     1      34.909 -15.722 -22.938  0.00  0.00    +0.167 C 
ATOM     15  C   UNL     1      34.604 -17.649 -24.365  0.00  0.00    +0.061 C 
ATOM     16  C   UNL     1      34.680 -16.265 -24.202  0.00  0.00    +0.170 C 
ENDBRANCH   3  11
BRANCH   4  17
ATOM     17  N   UNL     1      37.641 -18.866 -20.930  0.00  0.00    +0.383 N 
ATOM     18  H   UNL     1      38.179 -19.159 -21.746  0.00  0.00    -0.089 HD
ATOM     19  H   UNL     1      38.212 -18.971 -20.090  0.00  0.00    -0.089 HD
ATOM     20  H   UNL     1      37.368 -17.888 -21.036  0.00  0.00    -0.089 HD
ENDBRANCH   4  17
BRANCH   2  21
ATOM     21  C   UNL     1      35.454 -22.247 -18.145  0.00  0.00    +0.098 C 
BRANCH  21  22
ATOM     22  C   UNL     1      36.569 -21.937 -17.148  0.00  0.00    +0.048 C 
BRANCH  22  25
ATOM     23  O   UNL     1      38.492 -24.167 -13.185  0.00  0.00    -0.435 OA
ATOM     24  O   UNL     1      36.340 -24.949 -12.436  0.00  0.00    -0.435 OA
ATOM     25  C   UNL     1      36.470 -22.751 -15.882  0.00  0.00    -0.017 C 
ATOM     26  C   UNL     1      37.627 -23.036 -15.168  0.00  0.00    +0.036 C 
ATOM     27  C   UNL     1      35.216 -23.200 -15.460  0.00  0.00    -0.001 C 
ATOM     28  C   UNL     1      37.486 -23.784 -14.017  0.00  0.00    +0.176 C 
ATOM     29  C   UNL     1      36.256 -24.231 -13.590  0.00  0.00    +0.176 C 
ATOM     30  C   UNL     1      35.100 -23.955 -14.291  0.00  0.00    +0.040 C 
ATOM     31  C   UNL     1      37.758 -24.904 -12.186  0.00  0.00    +0.429 C 
ENDBRANCH  22  25
ENDBRANCH  21  22
ENDBRANCH   2  21
TORSDOF 5
ENDMDL
MODEL 5
REMARK VINA RESULT:     -11.4      4.354      6.981
REMARK  Name = 16040279
REMARK  5 active torsions:
REMARK  status: ('A' for Active; 'I' for Inactive)
REMARK    1  A    between atoms: N_2  and  C_21
REMARK    2  A    between atoms: C_3  and  C_11
REMARK    3  A    between atoms: C_4  and  N_17
REMARK    4  A    between atoms: C_21  and  C_22
REMARK    5  A    between atoms: C_22  and  C_25
REMARK                            x       y       z     vdW  Elec       q    Type
REMARK                         _______ _______ _______ _____ _____    ______ ____
ROOT
ATOM      1  O   UNL     1      36.865 -22.091 -18.044  0.00  0.00    -0.275 OA
ATOM      2  N   UNL     1      34.568 -22.205 -18.353  0.00  0.00    -0.281 N 
ATOM      3  C   UNL     1      34.808 -20.344 -20.529  0.00  0.00    +0.015 C 
ATOM      4  C   UNL     1      33.449 -20.507 -19.826  0.00  0.00    -0.041 C 
ATOM      5  C   UNL     1      33.401 -21.887 -19.175  0.00  0.00    +0.072 C 
ATOM      6  C   UNL     1      35.915 -20.454 -19.477  0.00  0.00    +0.088 C 
ATOM      7  C   UNL     1      35.835 -21.678 -18.585  0.00  0.00    +0.226 C 
ENDROOT
BRANCH   3  11
ATOM      8  F   UNL     1      34.979 -20.249 -23.361  0.00  0.00    -0.204 F 
ATOM      9  F   UNL     1      35.218 -15.477 -20.698  0.00  0.00    -0.202 F 
ATOM     10  F   UNL     1      35.371 -15.534 -23.427  0.00  0.00    -0.202 F 
ATOM     11  C   UNL     1      34.960 -19.049 -21.312  0.00  0.00    +0.006 C 
ATOM     12  C   UNL     1      35.037 -19.083 -22.702  0.00  0.00    +0.138 C 
ATOM     13  C   UNL     1      35.021 -17.837 -20.632  0.00  0.00    +0.030 C 
ATOM     14  C   UNL     1      35.159 -16.647 -21.348  0.00  0.00    +0.167 C 
ATOM     15  C   UNL     1      35.177 -17.894 -23.417  0.00  0.00    +0.061 C 
ATOM     16  C   UNL     1      35.238 -16.675 -22.740  0.00  0.00    +0.170 C 
ENDBRANCH   3  11
BRANCH   4  17
ATOM     17  N   UNL     1      32.328 -20.399 -20.763  0.00  0.00    +0.383 N 
ATOM     18  H   UNL     1      31.777 -19.570 -20.541  0.00  0.00    -0.089 HD
ATOM     19  H   UNL     1      31.739 -21.230 -20.685  0.00  0.00    -0.089 HD
ATOM     20  H   UNL     1      32.686 -20.324 -21.715  0.00  0.00    -0.089 HD
ENDBRANCH   4  17
BRANCH   2  21
ATOM     21  C   UNL     1      34.410 -23.322 -17.431  0.00  0.00    +0.098 C 
BRANCH  21  22
ATOM     22  C   UNL     1      34.057 -22.869 -16.016  0.00  0.00    +0.048 C 
BRANCH  22  25
ATOM     23  O   UNL     1      29.164 -22.600 -16.621  0.00  0.00    -0.435 OA
ATOM     24  O   UNL     1      28.734 -23.985 -14.697  0.00  0.00    -0.435 OA
ATOM     25  C   UNL     1      32.634 -23.190 -15.632  0.00  0.00    -0.017 C 
ATOM     26  C   UNL     1      31.595 -22.680 -16.398  0.00  0.00    +0.036 C 
ATOM     27  C   UNL     1      32.399 -23.994 -14.513  0.00  0.00    -0.001 C 
ATOM     28  C   UNL     1      30.311 -23.001 -16.007  0.00  0.00    +0.176 C 
ATOM     29  C   UNL     1      30.065 -23.792 -14.907  0.00  0.00    +0.176 C 
ATOM     30  C   UNL     1      31.090 -24.304 -14.139  0.00  0.00    +0.040 C 
ATOM     31  C   UNL     1      28.170 -23.228 -15.786  0.00  0.00    +0.429 C 
ENDBRANCH  22  25
ENDBRANCH  21  22
ENDBRANCH   2  21
TORSDOF 5
ENDMDL
MODEL 6
REMARK VINA RESULT:     -11.3      0.931      2.024
REMARK  Name = 16040279
REMARK  5 active torsions:
REMARK  status: ('A' for Active; 'I' for Inactive)
REMARK    1  A    between atoms: N_2  and  C_21
REMARK    2  A    between atoms: C_3  and  C_11
REMARK    3  A    between atoms: C_4  and  N_17
REMARK    4  A    between atoms: C_21  and  C_22
REMARK    5  A    between atoms: C_22  and  C_25
REMARK                            x       y       z     vdW  Elec       q    Type
REMARK                         _______ _______ _______ _____ _____    ______ ____
ROOT
ATOM      1  O   UNL     1      35.258 -16.054 -20.011  0.00  0.00    -0.275 OA
ATOM      2  N   UNL     1      34.956 -16.480 -22.273  0.00  0.00    -0.281 N 
ATOM      3  C   UNL     1      34.077 -13.767 -22.626  0.00  0.00    +0.015 C 
ATOM      4  C   UNL     1      33.675 -14.829 -23.665  0.00  0.00    -0.041 C 
ATOM      5  C   UNL     1      34.693 -15.966 -23.616  0.00  0.00    +0.072 C 
ATOM      6  C   UNL     1      34.057 -14.415 -21.239  0.00  0.00    +0.088 C 
ATOM      7  C   UNL     1      34.841 -15.708 -21.120  0.00  0.00    +0.226 C 
ENDROOT
BRANCH   3  11
ATOM      8  F   UNL     1      31.636 -13.566 -21.192  0.00  0.00    -0.204 F 
ATOM      9  F   UNL     1      33.186  -9.189 -24.083  0.00  0.00    -0.202 F 
ATOM     10  F   UNL     1      30.855  -9.134 -22.654  0.00  0.00    -0.202 F 
ATOM     11  C   UNL     1      33.207 -12.520 -22.632  0.00  0.00    +0.006 C 
ATOM     12  C   UNL     1      32.022 -12.497 -21.903  0.00  0.00    +0.138 C 
ATOM     13  C   UNL     1      33.604 -11.408 -23.369  0.00  0.00    +0.030 C 
ATOM     14  C   UNL     1      32.808 -10.262 -23.376  0.00  0.00    +0.167 C 
ATOM     15  C   UNL     1      31.225 -11.351 -21.911  0.00  0.00    +0.061 C 
ATOM     16  C   UNL     1      31.619 -10.234 -22.647  0.00  0.00    +0.170 C 
ENDBRANCH   3  11
BRANCH   4  17
ATOM     17  N   UNL     1      33.654 -14.287 -25.026  0.00  0.00    +0.383 N 
ATOM     18  H   UNL     1      34.611 -14.181 -25.364  0.00  0.00    -0.089 HD
ATOM     19  H   UNL     1      33.192 -13.377 -25.022  0.00  0.00    -0.089 HD
ATOM     20  H   UNL     1      33.145 -14.925 -25.639  0.00  0.00    -0.089 HD
ENDBRANCH   4  17
BRANCH   2  21
ATOM     21  C   UNL     1      35.615 -17.778 -22.207  0.00  0.00    +0.098 C 
BRANCH  21  22
ATOM     22  C   UNL     1      34.633 -18.941 -22.341  0.00  0.00    +0.048 C 
BRANCH  22  25
ATOM     23  O   UNL     1      36.713 -21.390 -18.592  0.00  0.00    -0.435 OA
ATOM     24  O   UNL     1      34.587 -22.176 -17.774  0.00  0.00    -0.435 OA
ATOM     25  C   UNL     1      34.584 -19.815 -21.112  0.00  0.00    -0.017 C 
ATOM     26  C   UNL     1      35.769 -20.151 -20.472  0.00  0.00    +0.036 C 
ATOM     27  C   UNL     1      33.344 -20.264 -20.649  0.00  0.00    -0.001 C 
ATOM     28  C   UNL     1      35.674 -20.952 -19.353  0.00  0.00    +0.176 C 
ATOM     29  C   UNL     1      34.459 -21.402 -18.886  0.00  0.00    +0.176 C 
ATOM     30  C   UNL     1      33.275 -21.075 -19.513  0.00  0.00    +0.040 C 
ATOM     31  C   UNL     1      36.017 -22.164 -17.594  0.00  0.00    +0.429 C 
ENDBRANCH  22  25
ENDBRANCH  21  22
ENDBRANCH   2  21
TORSDOF 5
ENDMDL
MODEL 7
REMARK VINA RESULT:     -11.2      3.922      6.519
REMARK  Name = 16040279
REMARK  5 active torsions:
REMARK  status: ('A' for Active; 'I' for Inactive)
REMARK    1  A    between atoms: N_2  and  C_21
REMARK    2  A    between atoms: C_3  and  C_11
REMARK    3  A    between atoms: C_4  and  N_17
REMARK    4  A    between atoms: C_21  and  C_22
REMARK    5  A    between atoms: C_22  and  C_25
REMARK                            x       y       z     vdW  Elec       q    Type
REMARK                         _______ _______ _______ _____ _____    ______ ____
ROOT
ATOM      1  O   UNL     1      32.619 -21.685 -19.153  0.00  0.00    -0.275 OA
ATOM      2  N   UNL     1      34.935 -21.678 -19.000  0.00  0.00    -0.281 N 
ATOM      3  C   UNL     1      34.987 -19.226 -20.498  0.00  0.00    +0.015 C 
ATOM      4  C   UNL     1      36.249 -20.106 -20.452  0.00  0.00    -0.041 C 
ATOM      5  C   UNL     1      36.197 -20.965 -19.190  0.00  0.00    +0.072 C 
ATOM      6  C   UNL     1      33.760 -20.141 -20.549  0.00  0.00    +0.088 C 
ATOM      7  C   UNL     1      33.713 -21.216 -19.480  0.00  0.00    +0.226 C 
ENDROOT
BRANCH   3  11
ATOM      8  F   UNL     1      34.768 -20.018 -23.214  0.00  0.00    -0.204 F 
ATOM      9  F   UNL     1      35.065 -14.650 -22.209  0.00  0.00    -0.202 F 
ATOM     10  F   UNL     1      34.851 -15.553 -24.780  0.00  0.00    -0.202 F 
ATOM     11  C   UNL     1      34.951 -18.239 -21.653  0.00  0.00    +0.006 C 
ATOM     12  C   UNL     1      34.841 -18.704 -22.960  0.00  0.00    +0.138 C 
ATOM     13  C   UNL     1      35.027 -16.874 -21.395  0.00  0.00    +0.030 C 
ATOM     14  C   UNL     1      34.993 -15.964 -22.453  0.00  0.00    +0.167 C 
ATOM     15  C   UNL     1      34.809 -17.795 -24.019  0.00  0.00    +0.061 C 
ATOM     16  C   UNL     1      34.884 -16.425 -23.764  0.00  0.00    +0.170 C 
ENDBRANCH   3  11
BRANCH   4  17
ATOM     17  N   UNL     1      37.476 -19.307 -20.415  0.00  0.00    +0.383 N 
ATOM     18  H   UNL     1      37.270 -18.354 -20.715  0.00  0.00    -0.089 HD
ATOM     19  H   UNL     1      38.169 -19.719 -21.042  0.00  0.00    -0.089 HD
ATOM     20  H   UNL     1      37.845 -19.292 -19.464  0.00  0.00    -0.089 HD
ENDBRANCH   4  17
BRANCH   2  21
ATOM     21  C   UNL     1      34.963 -22.775 -18.041  0.00  0.00    +0.098 C 
BRANCH  21  22
ATOM     22  C   UNL     1      35.338 -22.313 -16.634  0.00  0.00    +0.048 C 
BRANCH  22  25
ATOM     23  O   UNL     1      31.226 -24.199 -14.655  0.00  0.00    -0.435 OA
ATOM     24  O   UNL     1      32.391 -24.988 -12.699  0.00  0.00    -0.435 OA
ATOM     25  C   UNL     1      34.575 -23.039 -15.554  0.00  0.00    -0.017 C 
ATOM     26  C   UNL     1      33.210 -23.239 -15.707  0.00  0.00    +0.036 C 
ATOM     27  C   UNL     1      35.263 -23.490 -14.424  0.00  0.00    -0.001 C 
ATOM     28  C   UNL     1      32.555 -23.907 -14.692  0.00  0.00    +0.176 C 
ATOM     29  C   UNL     1      33.221 -24.357 -13.574  0.00  0.00    +0.176 C 
ATOM     30  C   UNL     1      34.577 -24.164 -13.411  0.00  0.00    +0.040 C 
ATOM     31  C   UNL     1      31.130 -24.884 -13.389  0.00  0.00    +0.429 C 
ENDBRANCH  22  25
ENDBRANCH  21  22
ENDBRANCH   2  21
TORSDOF 5
ENDMDL
MODEL 8
REMARK VINA RESULT:     -11.2      1.602      2.308
REMARK  Name = 16040279
REMARK  5 active torsions:
REMARK  status: ('A' for Active; 'I' for Inactive)
REMARK    1  A    between atoms: N_2  and  C_21
REMARK    2  A    between atoms: C_3  and  C_11
REMARK    3  A    between atoms: C_4  and  N_17
REMARK    4  A    between atoms: C_21  and  C_22
REMARK    5  A    between atoms: C_22  and  C_25
REMARK                            x       y       z     vdW  Elec       q    Type
REMARK                         _______ _______ _______ _____ _____    ______ ____
ROOT
ATOM      1  O   UNL     1      33.508 -16.250 -25.456  0.00  0.00    -0.275 OA
ATOM      2  N   UNL     1      34.539 -16.266 -23.377  0.00  0.00    -0.281 N 
ATOM      3  C   UNL     1      33.276 -13.756 -22.776  0.00  0.00    +0.015 C 
ATOM      4  C   UNL     1      34.540 -14.167 -22.000  0.00  0.00    -0.041 C 
ATOM      5  C   UNL     1      34.662 -15.688 -22.040  0.00  0.00    +0.072 C 
ATOM      6  C   UNL     1      33.426 -14.222 -24.227  0.00  0.00    +0.088 C 
ATOM      7  C   UNL     1      33.797 -15.682 -24.400  0.00  0.00    +0.226 C 
ENDROOT
BRANCH   3  11
ATOM      8  F   UNL     1      34.694 -11.831 -24.305  0.00  0.00    -0.204 F 
ATOM      9  F   UNL     1      30.679  -9.977 -21.087  0.00  0.00    -0.202 F 
ATOM     10  F   UNL     1      32.126  -8.233 -22.616  0.00  0.00    -0.202 F 
ATOM     11  C   UNL     1      32.969 -12.267 -22.734  0.00  0.00    +0.006 C 
ATOM     12  C   UNL     1      33.709 -11.384 -23.514  0.00  0.00    +0.138 C 
ATOM     13  C   UNL     1      31.947 -11.799 -21.914  0.00  0.00    +0.030 C 
ATOM     14  C   UNL     1      31.661 -10.433 -21.874  0.00  0.00    +0.167 C 
ATOM     15  C   UNL     1      33.424 -10.018 -23.474  0.00  0.00    +0.061 C 
ATOM     16  C   UNL     1      32.400  -9.544 -22.654  0.00  0.00    +0.170 C 
ENDBRANCH   3  11
BRANCH   4  17
ATOM     17  N   UNL     1      34.487 -13.745 -20.598  0.00  0.00    +0.383 N 
ATOM     18  H   UNL     1      35.294 -14.119 -20.099  0.00  0.00    -0.089 HD
ATOM     19  H   UNL     1      33.629 -14.097 -20.170  0.00  0.00    -0.089 HD
ATOM     20  H   UNL     1      34.498 -12.726 -20.548  0.00  0.00    -0.089 HD
ENDBRANCH   4  17
BRANCH   2  21
ATOM     21  C   UNL     1      35.009 -17.638 -23.522  0.00  0.00    +0.098 C 
BRANCH  21  22
ATOM     22  C   UNL     1      36.062 -18.010 -22.480  0.00  0.00    +0.048 C 
BRANCH  22  25
ATOM     23  O   UNL     1      36.690 -21.184 -18.750  0.00  0.00    -0.435 OA
ATOM     24  O   UNL     1      34.361 -21.800 -18.730  0.00  0.00    -0.435 OA
ATOM     25  C   UNL     1      35.569 -19.028 -21.482  0.00  0.00    -0.017 C 
ATOM     26  C   UNL     1      36.470 -19.593 -20.590  0.00  0.00    +0.036 C 
ATOM     27  C   UNL     1      34.216 -19.377 -21.483  0.00  0.00    -0.001 C 
ATOM     28  C   UNL     1      35.972 -20.520 -19.697  0.00  0.00    +0.176 C 
ATOM     29  C   UNL     1      34.642 -20.873 -19.686  0.00  0.00    +0.176 C 
ATOM     30  C   UNL     1      33.737 -20.318 -20.567  0.00  0.00    +0.040 C 
ATOM     31  C   UNL     1      35.663 -21.992 -18.141  0.00  0.00    +0.429 C 
ENDBRANCH  22  25
ENDBRANCH  21  22
ENDBRANCH   2  21
TORSDOF 5
ENDMDL
MODEL 9
REMARK VINA RESULT:     -11.1      4.177      6.684
REMARK  Name = 16040279
REMARK  5 active torsions:
REMARK  status: ('A' for Active; 'I' for Inactive)
REMARK    1  A    between atoms: N_2  and  C_21
REMARK    2  A    between atoms: C_3  and  C_11
REMARK    3  A    between atoms: C_4  and  N_17
REMARK    4  A    between atoms: C_21  and  C_22
REMARK    5  A    between atoms: C_22  and  C_25
REMARK                            x       y       z     vdW  Elec       q    Type
REMARK                         _______ _______ _______ _____ _____    ______ ____
ROOT
ATOM      1  O   UNL     1      32.612 -21.805 -19.036  0.00  0.00    -0.275 OA
ATOM      2  N   UNL     1      34.928 -21.764 -18.880  0.00  0.00    -0.281 N 
ATOM      3  C   UNL     1      34.950 -19.345 -20.430  0.00  0.00    +0.015 C 
ATOM      4  C   UNL     1      36.224 -20.207 -20.363  0.00  0.00    -0.041 C 
ATOM      5  C   UNL     1      36.180 -21.038 -19.083  0.00  0.00    +0.072 C 
ATOM      6  C   UNL     1      33.736 -20.276 -20.463  0.00  0.00    +0.088 C 
ATOM      7  C   UNL     1      33.700 -21.328 -19.371  0.00  0.00    +0.226 C 
ENDROOT
BRANCH   3  11
ATOM      8  F   UNL     1      35.428 -16.558 -20.183  0.00  0.00    -0.204 F 
ATOM      9  F   UNL     1      34.291 -18.448 -25.188  0.00  0.00    -0.202 F 
ATOM     10  F   UNL     1      34.772 -15.784 -24.805  0.00  0.00    -0.202 F 
ATOM     11  C   UNL     1      34.903 -18.383 -21.607  0.00  0.00    +0.006 C 
ATOM     12  C   UNL     1      35.148 -17.028 -21.407  0.00  0.00    +0.138 C 
ATOM     13  C   UNL     1      34.613 -18.867 -22.879  0.00  0.00    +0.030 C 
ATOM     14  C   UNL     1      34.569 -17.987 -23.962  0.00  0.00    +0.167 C 
ATOM     15  C   UNL     1      35.104 -16.148 -22.489  0.00  0.00    +0.061 C 
ATOM     16  C   UNL     1      34.815 -16.628 -23.766  0.00  0.00    +0.170 C 
ENDBRANCH   3  11
BRANCH   4  17
ATOM     17  N   UNL     1      37.440 -19.390 -20.342  0.00  0.00    +0.383 N 
ATOM     18  H   UNL     1      38.082 -19.719 -21.063  0.00  0.00    -0.089 HD
ATOM     19  H   UNL     1      37.886 -19.469 -19.427  0.00  0.00    -0.089 HD
ATOM     20  H   UNL     1      37.199 -18.415 -20.521  0.00  0.00    -0.089 HD
ENDBRANCH   4  17
BRANCH   2  21
ATOM     21  C   UNL     1      34.968 -22.839 -17.897  0.00  0.00    +0.098 C 
BRANCH  21  22
ATOM     22  C   UNL     1      35.289 -22.336 -16.491  0.00  0.00    +0.048 C 
BRANCH  22  25
ATOM     23  O   UNL     1      31.154 -24.261 -14.599  0.00  0.00    -0.435 OA
ATOM     24  O   UNL     1      32.269 -24.973 -12.585  0.00  0.00    -0.435 OA
ATOM     25  C   UNL     1      34.505 -23.050 -15.418  0.00  0.00    -0.017 C 
ATOM     26  C   UNL     1      33.151 -23.285 -15.611  0.00  0.00    +0.036 C 
ATOM     27  C   UNL     1      35.165 -23.456 -14.254  0.00  0.00    -0.001 C 
ATOM     28  C   UNL     1      32.476 -23.941 -14.601  0.00  0.00    +0.176 C 
ATOM     29  C   UNL     1      33.114 -24.347 -13.450  0.00  0.00    +0.176 C 
ATOM     30  C   UNL     1      34.459 -24.119 -13.247  0.00  0.00    +0.040 C 
ATOM     31  C   UNL     1      31.030 -24.915 -13.320  0.00  0.00    +0.429 C 
ENDBRANCH  22  25
ENDBRANCH  21  22
ENDBRANCH   2  21
TORSDOF 5
ENDMDL
