MODEL 1
REMARK VINA RESULT:     -11.4      0.000      0.000
REMARK  Name = 24963036
REMARK  7 active torsions:
REMARK  status: ('A' for Active; 'I' for Inactive)
REMARK    1  A    between atoms: N_2  and  C_20
REMARK    2  A    between atoms: C_3  and  C_7
REMARK    3  A    between atoms: C_11  and  C_12
REMARK    4  A    between atoms: C_12  and  O_13
REMARK    5  A    between atoms: O_13  and  C_14
REMARK    6  A    between atoms: C_20  and  C_21
REMARK    7  A    between atoms: C_26  and  C_29
REMARK                            x       y       z     vdW  Elec       q    Type
REMARK                         _______ _______ _______ _____ _____    ______ ____
ROOT
ATOM      1  O   UNL     1      32.290 -25.048 -12.800  0.00  0.00    -0.273 OA
ATOM      2  N   UNL     1      34.213 -23.741 -12.692  0.00  0.00    -0.299 N 
ATOM      3  C   UNL     1      32.922 -24.036 -13.093  0.00  0.00    +0.241 C 
ATOM      4  H   UNL     1      34.615 -22.894 -12.992  0.00  0.00    +0.150 HD
ENDROOT
BRANCH   3   7
ATOM      5  O   UNL     1      34.787 -22.783 -15.408  0.00  0.00    -0.272 OA
ATOM      6  N   UNL     1      32.537 -23.319 -15.329  0.00  0.00    -0.271 N 
ATOM      7  C   UNL     1      32.326 -22.949 -13.936  0.00  0.00    +0.152 C 
ATOM      8  C   UNL     1      30.812 -22.876 -13.779  0.00  0.00    +0.031 C 
ATOM      9  C   UNL     1      30.300 -23.880 -14.810  0.00  0.00    +0.024 C 
ATOM     10  C   UNL     1      31.286 -23.735 -15.959  0.00  0.00    +0.094 C 
ATOM     11  C   UNL     1      33.750 -23.135 -15.974  0.00  0.00    +0.256 C 
BRANCH  11  12
ATOM     12  C   UNL     1      33.746 -23.407 -17.457  0.00  0.00    +0.227 C 
BRANCH  12  13
ATOM     13  O   UNL     1      34.920 -22.831 -17.975  0.00  0.00    -0.347 OA
BRANCH  13  14
ATOM     14  C   UNL     1      34.675 -22.103 -19.172  0.00  0.00    +0.116 C 
ATOM     15  C   UNL     1      33.325 -21.394 -19.075  0.00  0.00    +0.030 C 
ATOM     16  C   UNL     1      35.814 -21.113 -19.412  0.00  0.00    +0.030 C 
ATOM     17  C   UNL     1      33.059 -20.520 -20.296  0.00  0.00    +0.002 C 
ATOM     18  C   UNL     1      35.549 -20.238 -20.635  0.00  0.00    +0.002 C 
ATOM     19  C   UNL     1      34.199 -19.532 -20.538  0.00  0.00    +0.000 C 
ENDBRANCH  13  14
ENDBRANCH  12  13
ENDBRANCH  11  12
ENDBRANCH   3   7
BRANCH   2  20
ATOM     20  C   UNL     1      35.000 -24.616 -11.853  0.00  0.00    +0.116 C 
BRANCH  20  21
ATOM     21  C   UNL     1      36.301 -24.993 -12.499  0.00  0.00    -0.003 C 
ATOM     22  C   UNL     1      36.324 -25.399 -13.834  0.00  0.00    -0.003 C 
ATOM     23  C   UNL     1      37.486 -24.940 -11.766  0.00  0.00    -0.003 C 
ATOM     24  C   UNL     1      37.534 -25.751 -14.435  0.00  0.00    +0.002 C 
ATOM     25  C   UNL     1      38.695 -25.291 -12.366  0.00  0.00    +0.002 C 
ATOM     26  C   UNL     1      38.719 -25.697 -13.700  0.00  0.00    +0.031 C 
BRANCH  26  29
ATOM     27  N   UNL     1      40.956 -26.772 -13.629  0.00  0.00    -0.343 N 
ATOM     28  N   UNL     1      40.215 -25.722 -15.580  0.00  0.00    -0.285 NA
ATOM     29  C   UNL     1      39.979 -26.064 -14.326  0.00  0.00    +0.117 C 
ATOM     30  H   UNL     1      41.802 -27.011 -14.073  0.00  0.00    +0.144 HD
ATOM     31  H   UNL     1      40.800 -27.033 -12.692  0.00  0.00    +0.144 HD
ATOM     32  H   UNL     1      41.067 -25.970 -16.006  0.00  0.00    +0.188 HD
ENDBRANCH  26  29
ENDBRANCH  20  21
ENDBRANCH   2  20
TORSDOF 7
ENDMDL
MODEL 2
REMARK VINA RESULT:     -11.2      2.142      6.459
REMARK  Name = 24963036
REMARK  7 active torsions:
REMARK  status: ('A' for Active; 'I' for Inactive)
REMARK    1  A    between atoms: N_2  and  C_20
REMARK    2  A    between atoms: C_3  and  C_7
REMARK    3  A    between atoms: C_11  and  C_12
REMARK    4  A    between atoms: C_12  and  O_13
REMARK    5  A    between atoms: O_13  and  C_14
REMARK    6  A    between atoms: C_20  and  C_21
REMARK    7  A    between atoms: C_26  and  C_29
REMARK                            x       y       z     vdW  Elec       q    Type
REMARK                         _______ _______ _______ _____ _____    ______ ____
ROOT
ATOM      1  O   UNL     1      35.040 -23.996 -12.205  0.00  0.00    -0.273 OA
ATOM      2  N   UNL     1      33.486 -25.030 -13.597  0.00  0.00    -0.299 N 
ATOM      3  C   UNL     1      34.755 -24.619 -13.224  0.00  0.00    +0.241 C 
ATOM      4  H   UNL     1      33.384 -25.526 -14.441  0.00  0.00    +0.150 HD
ENDROOT
BRANCH   3   7
ATOM      5  O   UNL     1      34.367 -23.668 -16.283  0.00  0.00    -0.272 OA
ATOM      6  N   UNL     1      36.231 -23.849 -14.923  0.00  0.00    -0.271 N 
ATOM      7  C   UNL     1      35.802 -25.044 -14.209  0.00  0.00    +0.152 C 
ATOM      8  C   UNL     1      37.059 -25.554 -13.515  0.00  0.00    +0.031 C 
ATOM      9  C   UNL     1      37.873 -24.283 -13.279  0.00  0.00    +0.024 C 
ATOM     10  C   UNL     1      37.572 -23.442 -14.511  0.00  0.00    +0.094 C 
ATOM     11  C   UNL     1      35.498 -23.298 -15.963  0.00  0.00    +0.256 C 
BRANCH  11  12
ATOM     12  C   UNL     1      36.169 -22.171 -16.706  0.00  0.00    +0.227 C 
BRANCH  12  13
ATOM     13  O   UNL     1      35.917 -22.384 -18.073  0.00  0.00    -0.347 OA
BRANCH  13  14
ATOM     14  C   UNL     1      35.296 -21.259 -18.684  0.00  0.00    +0.116 C 
ATOM     15  C   UNL     1      36.154 -20.771 -19.850  0.00  0.00    +0.030 C 
ATOM     16  C   UNL     1      33.888 -21.637 -19.142  0.00  0.00    +0.030 C 
ATOM     17  C   UNL     1      35.482 -19.624 -20.601  0.00  0.00    +0.002 C 
ATOM     18  C   UNL     1      33.215 -20.491 -19.892  0.00  0.00    +0.002 C 
ATOM     19  C   UNL     1      34.074 -20.001 -21.055  0.00  0.00    +0.000 C 
ENDBRANCH  13  14
ENDBRANCH  12  13
ENDBRANCH  11  12
ENDBRANCH   3   7
BRANCH   2  20
ATOM     20  C   UNL     1      32.306 -24.766 -12.806  0.00  0.00    +0.116 C 
BRANCH  20  21
ATOM     21  C   UNL     1      31.145 -24.336 -13.655  0.00  0.00    -0.003 C 
ATOM     22  C   UNL     1      30.116 -25.235 -13.936  0.00  0.00    -0.003 C 
ATOM     23  C   UNL     1      31.096 -23.039 -14.166  0.00  0.00    -0.003 C 
ATOM     24  C   UNL     1      29.038 -24.837 -14.727  0.00  0.00    +0.002 C 
ATOM     25  C   UNL     1      30.018 -22.640 -14.956  0.00  0.00    +0.002 C 
ATOM     26  C   UNL     1      28.989 -23.539 -15.237  0.00  0.00    +0.031 C 
BRANCH  26  29
ATOM     27  N   UNL     1      26.833 -22.346 -15.541  0.00  0.00    -0.343 N 
ATOM     28  N   UNL     1      27.810 -23.488 -17.330  0.00  0.00    -0.285 NA
ATOM     29  C   UNL     1      27.866 -23.124 -16.061  0.00  0.00    +0.117 C 
ATOM     30  H   UNL     1      26.082 -22.076 -16.117  0.00  0.00    +0.144 HD
ATOM     31  H   UNL     1      26.855 -22.068 -14.596  0.00  0.00    +0.144 HD
ATOM     32  H   UNL     1      27.051 -23.207 -17.889  0.00  0.00    +0.188 HD
ENDBRANCH  26  29
ENDBRANCH  20  21
ENDBRANCH   2  20
TORSDOF 7
ENDMDL
MODEL 3
REMARK VINA RESULT:     -10.7      8.218     11.875
REMARK  Name = 24963036
REMARK  7 active torsions:
REMARK  status: ('A' for Active; 'I' for Inactive)
REMARK    1  A    between atoms: N_2  and  C_20
REMARK    2  A    between atoms: C_3  and  C_7
REMARK    3  A    between atoms: C_11  and  C_12
REMARK    4  A    between atoms: C_12  and  O_13
REMARK    5  A    between atoms: O_13  and  C_14
REMARK    6  A    between atoms: C_20  and  C_21
REMARK    7  A    between atoms: C_26  and  C_29
REMARK                            x       y       z     vdW  Elec       q    Type
REMARK                         _______ _______ _______ _____ _____    ______ ____
ROOT
ATOM      1  O   UNL     1      33.815 -15.067 -23.581  0.00  0.00    -0.273 OA
ATOM      2  N   UNL     1      35.192 -16.120 -22.027  0.00  0.00    -0.299 N 
ATOM      3  C   UNL     1      34.465 -15.059 -22.538  0.00  0.00    +0.241 C 
ATOM      4  H   UNL     1      35.675 -15.992 -21.179  0.00  0.00    +0.150 HD
ENDROOT
BRANCH   3   7
ATOM      5  O   UNL     1      34.359 -12.175 -23.981  0.00  0.00    -0.272 OA
ATOM      6  N   UNL     1      33.414 -12.987 -22.030  0.00  0.00    -0.271 N 
ATOM      7  C   UNL     1      34.525 -13.851 -21.653  0.00  0.00    +0.152 C 
ATOM      8  C   UNL     1      34.263 -14.205 -20.194  0.00  0.00    +0.031 C 
ATOM      9  C   UNL     1      32.741 -14.145 -20.082  0.00  0.00    +0.024 C 
ATOM     10  C   UNL     1      32.367 -13.000 -21.011  0.00  0.00    +0.094 C 
ATOM     11  C   UNL     1      33.458 -12.158 -23.140  0.00  0.00    +0.256 C 
BRANCH  11  12
ATOM     12  C   UNL     1      32.300 -11.203 -23.285  0.00  0.00    +0.227 C 
BRANCH  12  13
ATOM     13  O   UNL     1      32.791 -10.073 -23.963  0.00  0.00    -0.347 OA
BRANCH  13  14
ATOM     14  C   UNL     1      32.659  -8.886 -23.191  0.00  0.00    +0.116 C 
ATOM     15  C   UNL     1      31.968  -9.210 -21.867  0.00  0.00    +0.030 C 
ATOM     16  C   UNL     1      34.036  -8.262 -22.968  0.00  0.00    +0.030 C 
ATOM     17  C   UNL     1      31.889  -7.986 -20.959  0.00  0.00    +0.002 C 
ATOM     18  C   UNL     1      33.957  -7.038 -22.061  0.00  0.00    +0.002 C 
ATOM     19  C   UNL     1      33.265  -7.361 -20.740  0.00  0.00    +0.000 C 
ENDBRANCH  13  14
ENDBRANCH  12  13
ENDBRANCH  11  12
ENDBRANCH   3   7
BRANCH   2  20
ATOM     20  C   UNL     1      35.277 -17.407 -22.679  0.00  0.00    +0.116 C 
BRANCH  20  21
ATOM     21  C   UNL     1      35.392 -18.531 -21.691  0.00  0.00    -0.003 C 
ATOM     22  C   UNL     1      36.606 -18.770 -21.045  0.00  0.00    -0.003 C 
ATOM     23  C   UNL     1      34.287 -19.338 -21.419  0.00  0.00    -0.003 C 
ATOM     24  C   UNL     1      36.713 -19.815 -20.126  0.00  0.00    +0.002 C 
ATOM     25  C   UNL     1      34.395 -20.382 -20.501  0.00  0.00    +0.002 C 
ATOM     26  C   UNL     1      35.607 -20.621 -19.855  0.00  0.00    +0.031 C 
BRANCH  26  29
ATOM     27  N   UNL     1      36.689 -21.699 -17.897  0.00  0.00    -0.343 N 
ATOM     28  N   UNL     1      34.894 -22.740 -18.972  0.00  0.00    -0.285 NA
ATOM     29  C   UNL     1      35.720 -21.711 -18.899  0.00  0.00    +0.117 C 
ATOM     30  H   UNL     1      36.747 -22.447 -17.259  0.00  0.00    +0.144 HD
ATOM     31  H   UNL     1      37.316 -20.943 -17.828  0.00  0.00    +0.144 HD
ATOM     32  H   UNL     1      34.968 -23.477 -18.326  0.00  0.00    +0.188 HD
ENDBRANCH  26  29
ENDBRANCH  20  21
ENDBRANCH   2  20
TORSDOF 7
ENDMDL
MODEL 4
REMARK VINA RESULT:     -10.0      2.514      7.169
REMARK  Name = 24963036
REMARK  7 active torsions:
REMARK  status: ('A' for Active; 'I' for Inactive)
REMARK    1  A    between atoms: N_2  and  C_20
REMARK    2  A    between atoms: C_3  and  C_7
REMARK    3  A    between atoms: C_11  and  C_12
REMARK    4  A    between atoms: C_12  and  O_13
REMARK    5  A    between atoms: O_13  and  C_14
REMARK    6  A    between atoms: C_20  and  C_21
REMARK    7  A    between atoms: C_26  and  C_29
REMARK                            x       y       z     vdW  Elec       q    Type
REMARK                         _______ _______ _______ _____ _____    ______ ____
ROOT
ATOM      1  O   UNL     1      38.263 -23.982 -14.306  0.00  0.00    -0.273 OA
ATOM      2  N   UNL     1      36.889 -22.367 -15.267  0.00  0.00    -0.299 N 
ATOM      3  C   UNL     1      37.342 -23.172 -14.236  0.00  0.00    +0.241 C 
ATOM      4  H   UNL     1      36.140 -21.754 -15.088  0.00  0.00    +0.150 HD
ENDROOT
BRANCH   3   7
ATOM      5  O   UNL     1      34.162 -22.685 -14.473  0.00  0.00    -0.272 OA
ATOM      6  N   UNL     1      35.458 -23.855 -12.954  0.00  0.00    -0.271 N 
ATOM      7  C   UNL     1      36.590 -22.938 -12.960  0.00  0.00    +0.152 C 
ATOM      8  C   UNL     1      37.413 -23.330 -11.739  0.00  0.00    +0.031 C 
ATOM      9  C   UNL     1      37.119 -24.820 -11.576  0.00  0.00    +0.024 C 
ATOM     10  C   UNL     1      35.660 -24.935 -11.991  0.00  0.00    +0.094 C 
ATOM     11  C   UNL     1      34.295 -23.608 -13.667  0.00  0.00    +0.256 C 
BRANCH  11  12
ATOM     12  C   UNL     1      33.160 -24.566 -13.411  0.00  0.00    +0.227 C 
BRANCH  12  13
ATOM     13  O   UNL     1      32.228 -23.881 -12.611  0.00  0.00    -0.347 OA
BRANCH  13  14
ATOM     14  C   UNL     1      30.915 -23.929 -13.157  0.00  0.00    +0.116 C 
ATOM     15  C   UNL     1      30.756 -22.829 -14.206  0.00  0.00    +0.030 C 
ATOM     16  C   UNL     1      30.657 -25.313 -13.751  0.00  0.00    +0.030 C 
ATOM     17  C   UNL     1      29.396 -22.899 -14.893  0.00  0.00    +0.002 C 
ATOM     18  C   UNL     1      29.296 -25.385 -14.437  0.00  0.00    +0.002 C 
ATOM     19  C   UNL     1      29.137 -24.284 -15.483  0.00  0.00    +0.000 C 
ENDBRANCH  13  14
ENDBRANCH  12  13
ENDBRANCH  11  12
ENDBRANCH   3   7
BRANCH   2  20
ATOM     20  C   UNL     1      37.462 -22.384 -16.594  0.00  0.00    +0.116 C 
BRANCH  20  21
ATOM     21  C   UNL     1      36.503 -21.867 -17.626  0.00  0.00    -0.003 C 
ATOM     22  C   UNL     1      36.926 -20.915 -18.555  0.00  0.00    -0.003 C 
ATOM     23  C   UNL     1      35.190 -22.336 -17.657  0.00  0.00    -0.003 C 
ATOM     24  C   UNL     1      36.034 -20.433 -19.514  0.00  0.00    +0.002 C 
ATOM     25  C   UNL     1      34.300 -21.855 -18.616  0.00  0.00    +0.002 C 
ATOM     26  C   UNL     1      34.721 -20.903 -19.544  0.00  0.00    +0.031 C 
BRANCH  26  29
ATOM     27  N   UNL     1      34.244 -19.751 -21.691  0.00  0.00    -0.343 N 
ATOM     28  N   UNL     1      32.492 -20.553 -20.371  0.00  0.00    -0.285 NA
ATOM     29  C   UNL     1      33.793 -20.400 -20.544  0.00  0.00    +0.117 C 
ATOM     30  H   UNL     1      33.598 -19.418 -22.356  0.00  0.00    +0.144 HD
ATOM     31  H   UNL     1      35.210 -19.624 -21.837  0.00  0.00    +0.144 HD
ATOM     32  H   UNL     1      31.862 -20.215 -21.046  0.00  0.00    +0.188 HD
ENDBRANCH  26  29
ENDBRANCH  20  21
ENDBRANCH   2  20
TORSDOF 7
ENDMDL
MODEL 5
REMARK VINA RESULT:      -9.6      9.463     14.642
REMARK  Name = 24963036
REMARK  7 active torsions:
REMARK  status: ('A' for Active; 'I' for Inactive)
REMARK    1  A    between atoms: N_2  and  C_20
REMARK    2  A    between atoms: C_3  and  C_7
REMARK    3  A    between atoms: C_11  and  C_12
REMARK    4  A    between atoms: C_12  and  O_13
REMARK    5  A    between atoms: O_13  and  C_14
REMARK    6  A    between atoms: C_20  and  C_21
REMARK    7  A    between atoms: C_26  and  C_29
REMARK                            x       y       z     vdW  Elec       q    Type
REMARK                         _______ _______ _______ _____ _____    ______ ____
ROOT
ATOM      1  O   UNL     1      34.664 -12.657 -23.244  0.00  0.00    -0.273 OA
ATOM      2  N   UNL     1      32.462 -11.910 -23.358  0.00  0.00    -0.299 N 
ATOM      3  C   UNL     1      33.463 -12.809 -23.033  0.00  0.00    +0.241 C 
ATOM      4  H   UNL     1      31.532 -12.144 -23.137  0.00  0.00    +0.150 HD
ENDROOT
BRANCH   3   7
ATOM      5  O   UNL     1      34.319 -15.671 -24.251  0.00  0.00    -0.272 OA
ATOM      6  N   UNL     1      34.064 -14.905 -22.082  0.00  0.00    -0.271 N 
ATOM      7  C   UNL     1      32.930 -14.030 -22.346  0.00  0.00    +0.152 C 
ATOM      8  C   UNL     1      32.363 -13.703 -20.970  0.00  0.00    +0.031 C 
ATOM      9  C   UNL     1      33.583 -13.788 -20.055  0.00  0.00    +0.024 C 
ATOM     10  C   UNL     1      34.394 -14.924 -20.659  0.00  0.00    +0.094 C 
ATOM     11  C   UNL     1      34.624 -15.715 -23.057  0.00  0.00    +0.256 C 
BRANCH  11  12
ATOM     12  C   UNL     1      35.672 -16.685 -22.574  0.00  0.00    +0.227 C 
BRANCH  12  13
ATOM     13  O   UNL     1      35.062 -17.952 -22.536  0.00  0.00    -0.347 OA
BRANCH  13  14
ATOM     14  C   UNL     1      35.237 -18.593 -21.278  0.00  0.00    +0.116 C 
ATOM     15  C   UNL     1      34.329 -19.819 -21.197  0.00  0.00    +0.030 C 
ATOM     16  C   UNL     1      36.707 -18.968 -21.094  0.00  0.00    +0.030 C 
ATOM     17  C   UNL     1      34.551 -20.598 -19.904  0.00  0.00    +0.002 C 
ATOM     18  C   UNL     1      36.929 -19.747 -19.800  0.00  0.00    +0.002 C 
ATOM     19  C   UNL     1      36.020 -20.970 -19.718  0.00  0.00    +0.000 C 
ENDBRANCH  13  14
ENDBRANCH  12  13
ENDBRANCH  11  12
ENDBRANCH   3   7
BRANCH   2  20
ATOM     20  C   UNL     1      32.717 -10.643 -24.006  0.00  0.00    +0.116 C 
BRANCH  20  21
ATOM     21  C   UNL     1      32.787  -9.512 -23.021  0.00  0.00    -0.003 C 
ATOM     22  C   UNL     1      31.937  -9.499 -21.914  0.00  0.00    -0.003 C 
ATOM     23  C   UNL     1      33.699  -8.475 -23.213  0.00  0.00    -0.003 C 
ATOM     24  C   UNL     1      32.001  -8.447 -20.999  0.00  0.00    +0.002 C 
ATOM     25  C   UNL     1      33.763  -7.424 -22.298  0.00  0.00    +0.002 C 
ATOM     26  C   UNL     1      32.914  -7.410 -21.192  0.00  0.00    +0.031 C 
BRANCH  26  29
ATOM     27  N   UNL     1      32.537  -5.035 -20.572  0.00  0.00    -0.343 N 
ATOM     28  N   UNL     1      33.470  -6.521 -19.030  0.00  0.00    -0.285 NA
ATOM     29  C   UNL     1      32.980  -6.314 -20.239  0.00  0.00    +0.117 C 
ATOM     30  H   UNL     1      32.590  -4.307 -19.911  0.00  0.00    +0.144 HD
ATOM     31  H   UNL     1      32.171  -4.860 -21.469  0.00  0.00    +0.144 HD
ATOM     32  H   UNL     1      33.515  -5.781 -18.383  0.00  0.00    +0.188 HD
ENDBRANCH  26  29
ENDBRANCH  20  21
ENDBRANCH   2  20
TORSDOF 7
ENDMDL
MODEL 6
REMARK VINA RESULT:      -9.6      2.225      5.661
REMARK  Name = 24963036
REMARK  7 active torsions:
REMARK  status: ('A' for Active; 'I' for Inactive)
REMARK    1  A    between atoms: N_2  and  C_20
REMARK    2  A    between atoms: C_3  and  C_7
REMARK    3  A    between atoms: C_11  and  C_12
REMARK    4  A    between atoms: C_12  and  O_13
REMARK    5  A    between atoms: O_13  and  C_14
REMARK    6  A    between atoms: C_20  and  C_21
REMARK    7  A    between atoms: C_26  and  C_29
REMARK                            x       y       z     vdW  Elec       q    Type
REMARK                         _______ _______ _______ _____ _____    ______ ____
ROOT
ATOM      1  O   UNL     1      36.730 -20.472 -18.643  0.00  0.00    -0.273 OA
ATOM      2  N   UNL     1      36.311 -22.289 -17.248  0.00  0.00    -0.299 N 
ATOM      3  C   UNL     1      36.116 -21.501 -18.369  0.00  0.00    +0.241 C 
ATOM      4  H   UNL     1      35.754 -23.093 -17.139  0.00  0.00    +0.150 HD
ENDROOT
BRANCH   3   7
ATOM      5  O   UNL     1      34.177 -23.772 -17.149  0.00  0.00    -0.272 OA
ATOM      6  N   UNL     1      33.792 -21.975 -18.556  0.00  0.00    -0.271 N 
ATOM      7  C   UNL     1      35.057 -22.053 -19.275  0.00  0.00    +0.152 C 
ATOM      8  C   UNL     1      34.856 -21.180 -20.509  0.00  0.00    +0.031 C 
ATOM      9  C   UNL     1      33.839 -20.139 -20.044  0.00  0.00    +0.024 C 
ATOM     10  C   UNL     1      32.937 -20.926 -19.105  0.00  0.00    +0.094 C 
ATOM     11  C   UNL     1      33.427 -22.899 -17.589  0.00  0.00    +0.256 C 
BRANCH  11  12
ATOM     12  C   UNL     1      32.016 -22.775 -17.071  0.00  0.00    +0.227 C 
BRANCH  12  13
ATOM     13  O   UNL     1      32.115 -22.426 -15.713  0.00  0.00    -0.347 OA
BRANCH  13  14
ATOM     14  C   UNL     1      31.163 -23.117 -14.912  0.00  0.00    +0.116 C 
ATOM     15  C   UNL     1      29.988 -23.561 -15.782  0.00  0.00    +0.030 C 
ATOM     16  C   UNL     1      31.835 -24.305 -14.226  0.00  0.00    +0.030 C 
ATOM     17  C   UNL     1      28.983 -24.391 -14.989  0.00  0.00    +0.002 C 
ATOM     18  C   UNL     1      30.831 -25.136 -13.432  0.00  0.00    +0.002 C 
ATOM     19  C   UNL     1      29.656 -25.577 -14.301  0.00  0.00    +0.000 C 
ENDBRANCH  13  14
ENDBRANCH  12  13
ENDBRANCH  11  12
ENDBRANCH   3   7
BRANCH   2  20
ATOM     20  C   UNL     1      37.291 -21.987 -16.230  0.00  0.00    +0.116 C 
BRANCH  20  21
ATOM     21  C   UNL     1      37.103 -22.830 -15.002  0.00  0.00    -0.003 C 
ATOM     22  C   UNL     1      38.107 -23.712 -14.602  0.00  0.00    -0.003 C 
ATOM     23  C   UNL     1      35.925 -22.732 -14.262  0.00  0.00    -0.003 C 
ATOM     24  C   UNL     1      37.933 -24.496 -13.461  0.00  0.00    +0.002 C 
ATOM     25  C   UNL     1      35.751 -23.516 -13.122  0.00  0.00    +0.002 C 
ATOM     26  C   UNL     1      36.754 -24.398 -12.722  0.00  0.00    +0.031 C 
BRANCH  26  29
ATOM     27  N   UNL     1      35.747 -24.804 -10.489  0.00  0.00    -0.343 N 
ATOM     28  N   UNL     1      37.199 -26.374 -11.428  0.00  0.00    -0.285 NA
ATOM     29  C   UNL     1      36.572 -25.216 -11.533  0.00  0.00    +0.117 C 
ATOM     30  H   UNL     1      35.637 -25.374  -9.693  0.00  0.00    +0.144 HD
ATOM     31  H   UNL     1      35.273 -23.942 -10.546  0.00  0.00    +0.144 HD
ATOM     32  H   UNL     1      37.077 -26.929 -10.625  0.00  0.00    +0.188 HD
ENDBRANCH  26  29
ENDBRANCH  20  21
ENDBRANCH   2  20
TORSDOF 7
ENDMDL
MODEL 7
REMARK VINA RESULT:      -9.6      3.712      6.781
REMARK  Name = 24963036
REMARK  7 active torsions:
REMARK  status: ('A' for Active; 'I' for Inactive)
REMARK    1  A    between atoms: N_2  and  C_20
REMARK    2  A    between atoms: C_3  and  C_7
REMARK    3  A    between atoms: C_11  and  C_12
REMARK    4  A    between atoms: C_12  and  O_13
REMARK    5  A    between atoms: O_13  and  C_14
REMARK    6  A    between atoms: C_20  and  C_21
REMARK    7  A    between atoms: C_26  and  C_29
REMARK                            x       y       z     vdW  Elec       q    Type
REMARK                         _______ _______ _______ _____ _____    ______ ____
ROOT
ATOM      1  O   UNL     1      33.229 -20.420 -19.525  0.00  0.00    -0.273 OA
ATOM      2  N   UNL     1      34.058 -22.379 -18.579  0.00  0.00    -0.299 N 
ATOM      3  C   UNL     1      34.087 -21.294 -19.439  0.00  0.00    +0.241 C 
ATOM      4  H   UNL     1      34.808 -23.015 -18.602  0.00  0.00    +0.150 HD
ENDROOT
BRANCH   3   7
ATOM      5  O   UNL     1      33.931 -19.713 -22.247  0.00  0.00    -0.272 OA
ATOM      6  N   UNL     1      35.580 -19.876 -20.631  0.00  0.00    -0.271 N 
ATOM      7  C   UNL     1      35.330 -21.267 -20.277  0.00  0.00    +0.152 C 
ATOM      8  C   UNL     1      36.559 -21.692 -19.482  0.00  0.00    +0.031 C 
ATOM      9  C   UNL     1      37.031 -20.391 -18.837  0.00  0.00    +0.024 C 
ATOM     10  C   UNL     1      36.726 -19.344 -19.898  0.00  0.00    +0.094 C 
ATOM     11  C   UNL     1      34.896 -19.232 -21.650  0.00  0.00    +0.256 C 
BRANCH  11  12
ATOM     12  C   UNL     1      35.399 -17.855 -22.001  0.00  0.00    +0.227 C 
BRANCH  12  13
ATOM     13  O   UNL     1      35.172 -17.682 -23.378  0.00  0.00    -0.347 OA
BRANCH  13  14
ATOM     14  C   UNL     1      34.976 -16.316 -23.722  0.00  0.00    +0.116 C 
ATOM     15  C   UNL     1      33.811 -16.196 -24.704  0.00  0.00    +0.030 C 
ATOM     16  C   UNL     1      34.728 -15.499 -22.454  0.00  0.00    +0.030 C 
ATOM     17  C   UNL     1      33.496 -14.739 -25.029  0.00  0.00    +0.002 C 
ATOM     18  C   UNL     1      34.414 -14.041 -22.778  0.00  0.00    +0.002 C 
ATOM     19  C   UNL     1      33.252 -13.922 -23.761  0.00  0.00    +0.000 C 
ENDBRANCH  13  14
ENDBRANCH  12  13
ENDBRANCH  11  12
ENDBRANCH   3   7
BRANCH   2  20
ATOM     20  C   UNL     1      32.979 -22.621 -17.649  0.00  0.00    +0.116 C 
BRANCH  20  21
ATOM     21  C   UNL     1      33.485 -22.978 -16.282  0.00  0.00    -0.003 C 
ATOM     22  C   UNL     1      34.846 -22.874 -15.994  0.00  0.00    -0.003 C 
ATOM     23  C   UNL     1      32.596 -23.416 -15.300  0.00  0.00    -0.003 C 
ATOM     24  C   UNL     1      35.318 -23.207 -14.723  0.00  0.00    +0.002 C 
ATOM     25  C   UNL     1      33.067 -23.748 -14.030  0.00  0.00    +0.002 C 
ATOM     26  C   UNL     1      34.428 -23.644 -13.742  0.00  0.00    +0.031 C 
BRANCH  26  29
ATOM     27  N   UNL     1      35.942 -23.266 -11.811  0.00  0.00    -0.343 N 
ATOM     28  N   UNL     1      34.396 -25.017 -11.769  0.00  0.00    -0.285 NA
ATOM     29  C   UNL     1      34.919 -23.992 -12.418  0.00  0.00    +0.117 C 
ATOM     30  H   UNL     1      36.260 -23.518 -10.914  0.00  0.00    +0.144 HD
ATOM     31  H   UNL     1      36.348 -22.501 -12.280  0.00  0.00    +0.144 HD
ATOM     32  H   UNL     1      34.726 -25.253 -10.873  0.00  0.00    +0.188 HD
ENDBRANCH  26  29
ENDBRANCH  20  21
ENDBRANCH   2  20
TORSDOF 7
ENDMDL
MODEL 8
REMARK VINA RESULT:      -9.6      8.534     13.786
REMARK  Name = 24963036
REMARK  7 active torsions:
REMARK  status: ('A' for Active; 'I' for Inactive)
REMARK    1  A    between atoms: N_2  and  C_20
REMARK    2  A    between atoms: C_3  and  C_7
REMARK    3  A    between atoms: C_11  and  C_12
REMARK    4  A    between atoms: C_12  and  O_13
REMARK    5  A    between atoms: O_13  and  C_14
REMARK    6  A    between atoms: C_20  and  C_21
REMARK    7  A    between atoms: C_26  and  C_29
REMARK                            x       y       z     vdW  Elec       q    Type
REMARK                         _______ _______ _______ _____ _____    ______ ____
ROOT
ATOM      1  O   UNL     1      33.219 -14.632 -20.938  0.00  0.00    -0.273 OA
ATOM      2  N   UNL     1      32.798 -13.092 -22.633  0.00  0.00    -0.299 N 
ATOM      3  C   UNL     1      33.498 -14.116 -22.018  0.00  0.00    +0.241 C 
ATOM      4  H   UNL     1      33.121 -12.761 -23.502  0.00  0.00    +0.150 HD
ENDROOT
BRANCH   3   7
ATOM      5  O   UNL     1      35.387 -16.391 -20.728  0.00  0.00    -0.272 OA
ATOM      6  N   UNL     1      34.614 -16.032 -22.880  0.00  0.00    -0.271 N 
ATOM      7  C   UNL     1      34.667 -14.577 -22.836  0.00  0.00    +0.152 C 
ATOM      8  C   UNL     1      34.547 -14.140 -24.291  0.00  0.00    +0.031 C 
ATOM      9  C   UNL     1      33.728 -15.258 -24.931  0.00  0.00    +0.024 C 
ATOM     10  C   UNL     1      34.208 -16.504 -24.202  0.00  0.00    +0.094 C 
ATOM     11  C   UNL     1      35.052 -16.826 -21.832  0.00  0.00    +0.256 C 
BRANCH  11  12
ATOM     12  C   UNL     1      35.091 -18.307 -22.111  0.00  0.00    +0.227 C 
BRANCH  12  13
ATOM     13  O   UNL     1      35.800 -18.898 -21.049  0.00  0.00    -0.347 OA
BRANCH  13  14
ATOM     14  C   UNL     1      35.246 -20.153 -20.669  0.00  0.00    +0.116 C 
ATOM     15  C   UNL     1      36.081 -20.761 -19.543  0.00  0.00    +0.030 C 
ATOM     16  C   UNL     1      33.789 -19.964 -20.249  0.00  0.00    +0.030 C 
ATOM     17  C   UNL     1      35.473 -22.064 -19.033  0.00  0.00    +0.002 C 
ATOM     18  C   UNL     1      33.179 -21.267 -19.739  0.00  0.00    +0.002 C 
ATOM     19  C   UNL     1      34.015 -21.876 -18.616  0.00  0.00    +0.000 C 
ENDBRANCH  13  14
ENDBRANCH  12  13
ENDBRANCH  11  12
ENDBRANCH   3   7
BRANCH   2  20
ATOM     20  C   UNL     1      31.617 -12.487 -22.062  0.00  0.00    +0.116 C 
BRANCH  20  21
ATOM     21  C   UNL     1      31.885 -11.098 -21.559  0.00  0.00    -0.003 C 
ATOM     22  C   UNL     1      32.288 -10.101 -22.448  0.00  0.00    -0.003 C 
ATOM     23  C   UNL     1      31.733 -10.805 -20.204  0.00  0.00    -0.003 C 
ATOM     24  C   UNL     1      32.538  -8.810 -21.981  0.00  0.00    +0.002 C 
ATOM     25  C   UNL     1      31.982  -9.514 -19.737  0.00  0.00    +0.002 C 
ATOM     26  C   UNL     1      32.385  -8.517 -20.625  0.00  0.00    +0.031 C 
BRANCH  26  29
ATOM     27  N   UNL     1      31.994  -6.066 -20.680  0.00  0.00    -0.343 N 
ATOM     28  N   UNL     1      33.520  -6.981 -19.167  0.00  0.00    -0.285 NA
ATOM     29  C   UNL     1      32.646  -7.172 -20.139  0.00  0.00    +0.117 C 
ATOM     30  H   UNL     1      32.185  -5.164 -20.335  0.00  0.00    +0.144 HD
ATOM     31  H   UNL     1      31.341  -6.187 -21.408  0.00  0.00    +0.144 HD
ATOM     32  H   UNL     1      33.698  -6.072 -18.836  0.00  0.00    +0.188 HD
ENDBRANCH  26  29
ENDBRANCH  20  21
ENDBRANCH   2  20
TORSDOF 7
ENDMDL
MODEL 9
REMARK VINA RESULT:      -9.6      9.637     14.892
REMARK  Name = 24963036
REMARK  7 active torsions:
REMARK  status: ('A' for Active; 'I' for Inactive)
REMARK    1  A    between atoms: N_2  and  C_20
REMARK    2  A    between atoms: C_3  and  C_7
REMARK    3  A    between atoms: C_11  and  C_12
REMARK    4  A    between atoms: C_12  and  O_13
REMARK    5  A    between atoms: O_13  and  C_14
REMARK    6  A    between atoms: C_20  and  C_21
REMARK    7  A    between atoms: C_26  and  C_29
REMARK                            x       y       z     vdW  Elec       q    Type
REMARK                         _______ _______ _______ _____ _____    ______ ____
ROOT
ATOM      1  O   UNL     1      32.622 -14.097 -21.304  0.00  0.00    -0.273 OA
ATOM      2  N   UNL     1      32.697 -11.911 -22.101  0.00  0.00    -0.299 N 
ATOM      3  C   UNL     1      33.099 -13.234 -22.037  0.00  0.00    +0.241 C 
ATOM      4  H   UNL     1      33.157 -11.312 -22.732  0.00  0.00    +0.150 HD
ENDROOT
BRANCH   3   7
ATOM      5  O   UNL     1      35.286 -15.424 -21.124  0.00  0.00    -0.272 OA
ATOM      6  N   UNL     1      34.257 -14.988 -23.151  0.00  0.00    -0.271 N 
ATOM      7  C   UNL     1      34.204 -13.540 -23.003  0.00  0.00    +0.152 C 
ATOM      8  C   UNL     1      33.893 -13.019 -24.401  0.00  0.00    +0.031 C 
ATOM      9  C   UNL     1      33.096 -14.157 -25.035  0.00  0.00    +0.024 C 
ATOM     10  C   UNL     1      33.747 -15.404 -24.455  0.00  0.00    +0.094 C 
ATOM     11  C   UNL     1      34.867 -15.811 -22.216  0.00  0.00    +0.256 C 
BRANCH  11  12
ATOM     12  C   UNL     1      34.988 -17.262 -22.608  0.00  0.00    +0.227 C 
BRANCH  12  13
ATOM     13  O   UNL     1      36.107 -17.771 -21.925  0.00  0.00    -0.347 OA
BRANCH  13  14
ATOM     14  C   UNL     1      35.734 -18.614 -20.841  0.00  0.00    +0.116 C 
ATOM     15  C   UNL     1      34.533 -19.467 -21.245  0.00  0.00    +0.030 C 
ATOM     16  C   UNL     1      36.925 -19.478 -20.430  0.00  0.00    +0.030 C 
ATOM     17  C   UNL     1      34.154 -20.460 -20.150  0.00  0.00    +0.002 C 
ATOM     18  C   UNL     1      36.547 -20.470 -19.334  0.00  0.00    +0.002 C 
ATOM     19  C   UNL     1      35.345 -21.321 -19.737  0.00  0.00    +0.000 C 
ENDBRANCH  13  14
ENDBRANCH  12  13
ENDBRANCH  11  12
ENDBRANCH   3   7
BRANCH   2  20
ATOM     20  C   UNL     1      31.632 -11.368 -21.288  0.00  0.00    +0.116 C 
BRANCH  20  21
ATOM     21  C   UNL     1      31.566  -9.871 -21.377  0.00  0.00    -0.003 C 
ATOM     22  C   UNL     1      31.899  -9.092 -20.268  0.00  0.00    -0.003 C 
ATOM     23  C   UNL     1      31.170  -9.259 -22.565  0.00  0.00    -0.003 C 
ATOM     24  C   UNL     1      31.837  -7.700 -20.350  0.00  0.00    +0.002 C 
ATOM     25  C   UNL     1      31.108  -7.868 -22.647  0.00  0.00    +0.002 C 
ATOM     26  C   UNL     1      31.441  -7.089 -21.540  0.00  0.00    +0.031 C 
BRANCH  26  29
ATOM     27  N   UNL     1      32.236  -4.830 -20.886  0.00  0.00    -0.343 N 
ATOM     28  N   UNL     1      30.482  -5.065 -22.411  0.00  0.00    -0.285 NA
ATOM     29  C   UNL     1      31.375  -5.639 -21.625  0.00  0.00    +0.117 C 
ATOM     30  H   UNL     1      32.175  -3.849 -20.959  0.00  0.00    +0.144 HD
ATOM     31  H   UNL     1      32.907  -5.238 -20.291  0.00  0.00    +0.144 HD
ATOM     32  H   UNL     1      30.437  -4.084 -22.471  0.00  0.00    +0.188 HD
ENDBRANCH  26  29
ENDBRANCH  20  21
ENDBRANCH   2  20
TORSDOF 7
ENDMDL
