MODEL 1
REMARK VINA RESULT:     -12.0      0.000      0.000
REMARK  Name = 12136798
REMARK  7 active torsions:
REMARK  status: ('A' for Active; 'I' for Inactive)
REMARK    1  A    between atoms: C_1  and  C_21
REMARK    2  A    between atoms: C_2  and  C_9
REMARK    3  A    between atoms: N_8  and  C_12
REMARK    4  A    between atoms: C_13  and  N_18
REMARK    5  A    between atoms: C_21  and  N_23
REMARK    6  A    between atoms: C_24  and  C_26
REMARK    7  A    between atoms: C_27  and  C_29
REMARK                            x       y       z     vdW  Elec       q    Type
REMARK                         _______ _______ _______ _____ _____    ______ ____
ROOT
ATOM      1  C   UNL     1      35.349 -19.771 -20.501  0.00  0.00    -0.003 C 
ATOM      2  C   UNL     1      34.310 -21.781 -18.886  0.00  0.00    +0.054 C 
ATOM      3  C   UNL     1      36.209 -20.569 -19.756  0.00  0.00    -0.002 C 
ATOM      4  C   UNL     1      33.974 -19.967 -20.446  0.00  0.00    -0.002 C 
ATOM      5  C   UNL     1      35.688 -21.578 -18.946  0.00  0.00    +0.004 C 
ATOM      6  C   UNL     1      33.452 -20.976 -19.636  0.00  0.00    +0.004 C 
ENDROOT
BRANCH   2   9
ATOM      7  O   UNL     1      33.768 -24.001 -18.453  0.00  0.00    -0.270 OA
ATOM      8  N   UNL     1      33.295 -22.422 -16.784  0.00  0.00    -0.279 N 
ATOM      9  C   UNL     1      33.765 -22.831 -18.039  0.00  0.00    +0.250 C 
ATOM     10  H   UNL     1      33.359 -21.457 -16.596  0.00  0.00    +0.155 HD
BRANCH   8  12
ATOM     11  F   UNL     1      31.200 -25.526 -12.719  0.00  0.00    -0.204 F 
ATOM     12  C   UNL     1      32.740 -23.214 -15.749  0.00  0.00    +0.064 C 
ATOM     13  C   UNL     1      31.368 -23.378 -15.652  0.00  0.00    +0.057 C 
ATOM     14  C   UNL     1      33.604 -23.812 -14.844  0.00  0.00    +0.018 C 
ATOM     15  C   UNL     1      30.845 -24.163 -14.624  0.00  0.00    +0.045 C 
ATOM     16  C   UNL     1      33.080 -24.597 -13.817  0.00  0.00    +0.031 C 
ATOM     17  C   UNL     1      31.701 -24.772 -13.706  0.00  0.00    +0.141 C 
BRANCH  13  18
ATOM     18  N   UNL     1      30.483 -22.772 -16.569  0.00  0.00    -0.356 N 
ATOM     19  H   UNL     1      29.527 -22.687 -16.348  0.00  0.00    +0.142 HD
ATOM     20  H   UNL     1      30.820 -22.432 -17.430  0.00  0.00    +0.142 HD
ENDBRANCH  13  18
ENDBRANCH   8  12
ENDBRANCH   2   9
BRANCH   1  21
ATOM     21  C   UNL     1      35.909 -18.686 -21.374  0.00  0.00    +0.117 C 
BRANCH  21  23
ATOM     22  O   UNL     1      35.355 -16.500 -23.192  0.00  0.00    -0.270 OA
ATOM     23  N   UNL     1      35.361 -17.389 -21.045  0.00  0.00    -0.297 N 
ATOM     24  C   UNL     1      35.130 -16.404 -21.990  0.00  0.00    +0.246 C 
ATOM     25  H   UNL     1      35.141 -17.198 -20.104  0.00  0.00    +0.150 HD
BRANCH  24  26
ATOM     26  C   UNL     1      34.563 -15.170 -21.377  0.00  0.00    +0.058 C 
ATOM     27  C   UNL     1      33.607 -14.482 -22.019  0.00  0.00    +0.006 C 
BRANCH  27  29
ATOM     28  N   UNL     1      32.116 -11.058 -21.938  0.00  0.00    -0.242 NA
ATOM     29  C   UNL     1      32.968 -13.258 -21.503  0.00  0.00    +0.019 C 
ATOM     30  C   UNL     1      32.634 -13.159 -20.169  0.00  0.00    +0.003 C 
ATOM     31  C   UNL     1      32.700 -12.208 -22.347  0.00  0.00    +0.099 C 
ATOM     32  C   UNL     1      32.032 -11.991 -19.710  0.00  0.00    +0.021 C 
ATOM     33  C   UNL     1      31.797 -10.981 -20.627  0.00  0.00    +0.099 C 
ENDBRANCH  27  29
ENDBRANCH  24  26
ENDBRANCH  21  23
ENDBRANCH   1  21
TORSDOF 7
ENDMDL
MODEL 2
REMARK VINA RESULT:     -11.4      1.867      2.707
REMARK  Name = 12136798
REMARK  7 active torsions:
REMARK  status: ('A' for Active; 'I' for Inactive)
REMARK    1  A    between atoms: C_1  and  C_21
REMARK    2  A    between atoms: C_2  and  C_9
REMARK    3  A    between atoms: N_8  and  C_12
REMARK    4  A    between atoms: C_13  and  N_18
REMARK    5  A    between atoms: C_21  and  N_23
REMARK    6  A    between atoms: C_24  and  C_26
REMARK    7  A    between atoms: C_27  and  C_29
REMARK                            x       y       z     vdW  Elec       q    Type
REMARK                         _______ _______ _______ _____ _____    ______ ____
ROOT
ATOM      1  C   UNL     1      35.636 -19.351 -21.048  0.00  0.00    -0.003 C 
ATOM      2  C   UNL     1      35.236 -21.283 -19.090  0.00  0.00    +0.054 C 
ATOM      3  C   UNL     1      34.354 -19.832 -20.808  0.00  0.00    -0.002 C 
ATOM      4  C   UNL     1      36.720 -19.828 -20.321  0.00  0.00    -0.002 C 
ATOM      5  C   UNL     1      34.153 -20.801 -19.825  0.00  0.00    +0.004 C 
ATOM      6  C   UNL     1      36.519 -20.797 -19.338  0.00  0.00    +0.004 C 
ENDROOT
BRANCH   2   9
ATOM      7  O   UNL     1      34.345 -23.297 -18.338  0.00  0.00    -0.270 OA
ATOM      8  N   UNL     1      35.652 -22.057 -16.835  0.00  0.00    -0.279 N 
ATOM      9  C   UNL     1      35.027 -22.295 -18.066  0.00  0.00    +0.250 C 
ATOM     10  H   UNL     1      36.161 -21.216 -16.769  0.00  0.00    +0.155 HD
BRANCH   8  12
ATOM     11  F   UNL     1      35.559 -25.210 -12.296  0.00  0.00    -0.204 F 
ATOM     12  C   UNL     1      35.648 -22.866 -15.672  0.00  0.00    +0.064 C 
ATOM     13  C   UNL     1      36.837 -23.348 -15.150  0.00  0.00    +0.057 C 
ATOM     14  C   UNL     1      34.429 -23.160 -15.081  0.00  0.00    +0.018 C 
ATOM     15  C   UNL     1      36.807 -24.143 -14.004  0.00  0.00    +0.045 C 
ATOM     16  C   UNL     1      34.400 -23.954 -13.935  0.00  0.00    +0.031 C 
ATOM     17  C   UNL     1      35.588 -24.447 -13.397  0.00  0.00    +0.141 C 
BRANCH  13  18
ATOM     18  N   UNL     1      38.082 -23.053 -15.747  0.00  0.00    -0.356 N 
ATOM     19  H   UNL     1      38.113 -22.627 -16.634  0.00  0.00    +0.142 HD
ATOM     20  H   UNL     1      38.919 -23.273 -15.277  0.00  0.00    +0.142 HD
ENDBRANCH  13  18
ENDBRANCH   8  12
ENDBRANCH   2   9
BRANCH   1  21
ATOM     21  C   UNL     1      35.853 -18.308 -22.106  0.00  0.00    +0.117 C 
BRANCH  21  23
ATOM     22  O   UNL     1      35.128 -16.113 -23.852  0.00  0.00    -0.270 OA
ATOM     23  N   UNL     1      35.306 -17.026 -21.722  0.00  0.00    -0.297 N 
ATOM     24  C   UNL     1      34.989 -16.035 -22.636  0.00  0.00    +0.246 C 
ATOM     25  H   UNL     1      35.151 -16.849 -20.765  0.00  0.00    +0.150 HD
BRANCH  24  26
ATOM     26  C   UNL     1      34.445 -14.819 -21.968  0.00  0.00    +0.058 C 
ATOM     27  C   UNL     1      33.460 -14.119 -22.552  0.00  0.00    +0.006 C 
BRANCH  27  29
ATOM     28  N   UNL     1      32.198 -10.616 -22.255  0.00  0.00    -0.242 NA
ATOM     29  C   UNL     1      32.841 -12.911 -21.978  0.00  0.00    +0.019 C 
ATOM     30  C   UNL     1      32.342 -12.930 -20.693  0.00  0.00    +0.003 C 
ATOM     31  C   UNL     1      32.755 -11.758 -22.720  0.00  0.00    +0.099 C 
ATOM     32  C   UNL     1      31.763 -11.775 -20.178  0.00  0.00    +0.021 C 
ATOM     33  C   UNL     1      31.716 -10.655 -20.992  0.00  0.00    +0.099 C 
ENDBRANCH  27  29
ENDBRANCH  24  26
ENDBRANCH  21  23
ENDBRANCH   1  21
TORSDOF 7
ENDMDL
MODEL 3
REMARK VINA RESULT:     -11.3      5.011     11.880
REMARK  Name = 12136798
REMARK  7 active torsions:
REMARK  status: ('A' for Active; 'I' for Inactive)
REMARK    1  A    between atoms: C_1  and  C_21
REMARK    2  A    between atoms: C_2  and  C_9
REMARK    3  A    between atoms: N_8  and  C_12
REMARK    4  A    between atoms: C_13  and  N_18
REMARK    5  A    between atoms: C_21  and  N_23
REMARK    6  A    between atoms: C_24  and  C_26
REMARK    7  A    between atoms: C_27  and  C_29
REMARK                            x       y       z     vdW  Elec       q    Type
REMARK                         _______ _______ _______ _____ _____    ______ ____
ROOT
ATOM      1  C   UNL     1      34.265 -15.189 -23.737  0.00  0.00    -0.003 C 
ATOM      2  C   UNL     1      33.018 -12.990 -22.582  0.00  0.00    +0.054 C 
ATOM      3  C   UNL     1      33.413 -14.401 -24.501  0.00  0.00    -0.002 C 
ATOM      4  C   UNL     1      34.500 -14.889 -22.400  0.00  0.00    -0.002 C 
ATOM      5  C   UNL     1      32.788 -13.297 -23.922  0.00  0.00    +0.004 C 
ATOM      6  C   UNL     1      33.874 -13.785 -21.820  0.00  0.00    +0.004 C 
ENDROOT
BRANCH   2   9
ATOM      7  O   UNL     1      31.539 -12.024 -21.068  0.00  0.00    -0.270 OA
ATOM      8  N   UNL     1      32.754 -10.587 -22.468  0.00  0.00    -0.279 N 
ATOM      9  C   UNL     1      32.364 -11.839 -21.976  0.00  0.00    +0.250 C 
ATOM     10  H   UNL     1      33.422 -10.599 -23.192  0.00  0.00    +0.155 HD
BRANCH   8  12
ATOM     11  F   UNL     1      31.050  -5.598 -20.806  0.00  0.00    -0.204 F 
ATOM     12  C   UNL     1      32.313  -9.303 -22.061  0.00  0.00    +0.064 C 
ATOM     13  C   UNL     1      31.869  -8.385 -22.998  0.00  0.00    +0.057 C 
ATOM     14  C   UNL     1      32.342  -8.997 -20.709  0.00  0.00    +0.018 C 
ATOM     15  C   UNL     1      31.439  -7.128 -22.572  0.00  0.00    +0.045 C 
ATOM     16  C   UNL     1      31.913  -7.741 -20.284  0.00  0.00    +0.031 C 
ATOM     17  C   UNL     1      31.462  -6.805 -21.215  0.00  0.00    +0.141 C 
BRANCH  13  18
ATOM     18  N   UNL     1      31.837  -8.690 -24.376  0.00  0.00    -0.356 N 
ATOM     19  H   UNL     1      32.421  -8.202 -25.001  0.00  0.00    +0.142 HD
ATOM     20  H   UNL     1      31.232  -9.390 -24.713  0.00  0.00    +0.142 HD
ENDBRANCH  13  18
ENDBRANCH   8  12
ENDBRANCH   2   9
BRANCH   1  21
ATOM     21  C   UNL     1      34.940 -16.376 -24.360  0.00  0.00    +0.117 C 
BRANCH  21  23
ATOM     22  O   UNL     1      33.789 -19.035 -24.311  0.00  0.00    -0.270 OA
ATOM     23  N   UNL     1      35.193 -17.424 -23.396  0.00  0.00    -0.297 N 
ATOM     24  C   UNL     1      34.591 -18.669 -23.458  0.00  0.00    +0.246 C 
ATOM     25  H   UNL     1      35.823 -17.242 -22.661  0.00  0.00    +0.150 HD
BRANCH  24  26
ATOM     26  C   UNL     1      35.031 -19.552 -22.340  0.00  0.00    +0.058 C 
ATOM     27  C   UNL     1      34.236 -19.728 -21.274  0.00  0.00    +0.006 C 
BRANCH  27  29
ATOM     28  N   UNL     1      33.802 -22.058 -18.388  0.00  0.00    -0.242 NA
ATOM     29  C   UNL     1      34.564 -20.584 -20.120  0.00  0.00    +0.019 C 
ATOM     30  C   UNL     1      35.872 -20.718 -19.703  0.00  0.00    +0.003 C 
ATOM     31  C   UNL     1      33.569 -21.257 -19.452  0.00  0.00    +0.099 C 
ATOM     32  C   UNL     1      36.151 -21.533 -18.611  0.00  0.00    +0.021 C 
ATOM     33  C   UNL     1      35.090 -22.175 -17.994  0.00  0.00    +0.099 C 
ENDBRANCH  27  29
ENDBRANCH  24  26
ENDBRANCH  21  23
ENDBRANCH   1  21
TORSDOF 7
ENDMDL
MODEL 4
REMARK VINA RESULT:     -11.2      4.987     12.240
REMARK  Name = 12136798
REMARK  7 active torsions:
REMARK  status: ('A' for Active; 'I' for Inactive)
REMARK    1  A    between atoms: C_1  and  C_21
REMARK    2  A    between atoms: C_2  and  C_9
REMARK    3  A    between atoms: N_8  and  C_12
REMARK    4  A    between atoms: C_13  and  N_18
REMARK    5  A    between atoms: C_21  and  N_23
REMARK    6  A    between atoms: C_24  and  C_26
REMARK    7  A    between atoms: C_27  and  C_29
REMARK                            x       y       z     vdW  Elec       q    Type
REMARK                         _______ _______ _______ _____ _____    ______ ____
ROOT
ATOM      1  C   UNL     1      34.392 -15.655 -23.914  0.00  0.00    -0.003 C 
ATOM      2  C   UNL     1      33.510 -13.147 -23.106  0.00  0.00    +0.054 C 
ATOM      3  C   UNL     1      33.565 -14.916 -24.750  0.00  0.00    -0.002 C 
ATOM      4  C   UNL     1      34.783 -15.155 -22.678  0.00  0.00    -0.002 C 
ATOM      5  C   UNL     1      33.122 -13.656 -24.345  0.00  0.00    +0.004 C 
ATOM      6  C   UNL     1      34.340 -13.895 -22.273  0.00  0.00    +0.004 C 
ENDROOT
BRANCH   2   9
ATOM      7  O   UNL     1      32.306 -11.747 -21.691  0.00  0.00    -0.270 OA
ATOM      8  N   UNL     1      33.512 -10.749 -23.438  0.00  0.00    -0.279 N 
ATOM      9  C   UNL     1      33.047 -11.834 -22.682  0.00  0.00    +0.250 C 
ATOM     10  H   UNL     1      34.096 -10.976 -24.198  0.00  0.00    +0.155 HD
BRANCH   8  12
ATOM     11  F   UNL     1      32.428  -5.380 -22.695  0.00  0.00    -0.204 F 
ATOM     12  C   UNL     1      33.253  -9.369 -23.251  0.00  0.00    +0.064 C 
ATOM     13  C   UNL     1      34.278  -8.443 -23.357  0.00  0.00    +0.057 C 
ATOM     14  C   UNL     1      31.956  -8.978 -22.960  0.00  0.00    +0.018 C 
ATOM     15  C   UNL     1      33.998  -7.090 -23.169  0.00  0.00    +0.045 C 
ATOM     16  C   UNL     1      31.676  -7.625 -22.773  0.00  0.00    +0.031 C 
ATOM     17  C   UNL     1      32.697  -6.680 -22.876  0.00  0.00    +0.141 C 
BRANCH  13  18
ATOM     18  N   UNL     1      35.603  -8.835 -23.652  0.00  0.00    -0.356 N 
ATOM     19  H   UNL     1      35.834  -9.790 -23.698  0.00  0.00    +0.142 HD
ATOM     20  H   UNL     1      36.294  -8.152 -23.813  0.00  0.00    +0.142 HD
ENDBRANCH  13  18
ENDBRANCH   8  12
ENDBRANCH   2   9
BRANCH   1  21
ATOM     21  C   UNL     1      34.870 -17.011 -24.350  0.00  0.00    +0.117 C 
BRANCH  21  23
ATOM     22  O   UNL     1      36.575 -18.396 -22.462  0.00  0.00    -0.270 OA
ATOM     23  N   UNL     1      34.485 -18.046 -23.417  0.00  0.00    -0.297 N 
ATOM     24  C   UNL     1      35.379 -18.651 -22.549  0.00  0.00    +0.246 C 
ATOM     25  H   UNL     1      33.544 -18.334 -23.398  0.00  0.00    +0.150 HD
BRANCH  24  26
ATOM     26  C   UNL     1      34.716 -19.682 -21.701  0.00  0.00    +0.058 C 
ATOM     27  C   UNL     1      35.184 -19.939 -20.471  0.00  0.00    +0.006 C 
BRANCH  27  29
ATOM     28  N   UNL     1      32.641 -21.951 -18.618  0.00  0.00    -0.242 NA
ATOM     29  C   UNL     1      34.602 -20.928 -19.545  0.00  0.00    +0.019 C 
ATOM     30  C   UNL     1      35.422 -21.722 -18.772  0.00  0.00    +0.003 C 
ATOM     31  C   UNL     1      33.239 -21.065 -19.446  0.00  0.00    +0.099 C 
ATOM     32  C   UNL     1      34.844 -22.646 -17.907  0.00  0.00    +0.021 C 
ATOM     33  C   UNL     1      33.462 -22.721 -17.868  0.00  0.00    +0.099 C 
ENDBRANCH  27  29
ENDBRANCH  24  26
ENDBRANCH  21  23
ENDBRANCH   1  21
TORSDOF 7
ENDMDL
MODEL 5
REMARK VINA RESULT:     -11.1      1.280      2.235
REMARK  Name = 12136798
REMARK  7 active torsions:
REMARK  status: ('A' for Active; 'I' for Inactive)
REMARK    1  A    between atoms: C_1  and  C_21
REMARK    2  A    between atoms: C_2  and  C_9
REMARK    3  A    between atoms: N_8  and  C_12
REMARK    4  A    between atoms: C_13  and  N_18
REMARK    5  A    between atoms: C_21  and  N_23
REMARK    6  A    between atoms: C_24  and  C_26
REMARK    7  A    between atoms: C_27  and  C_29
REMARK                            x       y       z     vdW  Elec       q    Type
REMARK                         _______ _______ _______ _____ _____    ______ ____
ROOT
ATOM      1  C   UNL     1      35.981 -20.237 -19.789  0.00  0.00    -0.003 C 
ATOM      2  C   UNL     1      34.375 -22.082 -18.470  0.00  0.00    +0.054 C 
ATOM      3  C   UNL     1      34.637 -20.343 -20.125  0.00  0.00    -0.002 C 
ATOM      4  C   UNL     1      36.531 -21.044 -18.800  0.00  0.00    -0.002 C 
ATOM      5  C   UNL     1      33.830 -21.269 -19.464  0.00  0.00    +0.004 C 
ATOM      6  C   UNL     1      35.725 -21.970 -18.138  0.00  0.00    +0.004 C 
ENDROOT
BRANCH   2   9
ATOM      7  O   UNL     1      33.587 -24.243 -18.118  0.00  0.00    -0.270 OA
ATOM      8  N   UNL     1      32.735 -22.539 -16.749  0.00  0.00    -0.279 N 
ATOM      9  C   UNL     1      33.535 -23.050 -17.781  0.00  0.00    +0.250 C 
ATOM     10  H   UNL     1      32.801 -21.568 -16.597  0.00  0.00    +0.155 HD
BRANCH   8  12
ATOM     11  F   UNL     1      29.200 -25.236 -13.466  0.00  0.00    -0.204 F 
ATOM     12  C   UNL     1      31.844 -23.236 -15.896  0.00  0.00    +0.064 C 
ATOM     13  C   UNL     1      32.326 -23.941 -14.806  0.00  0.00    +0.057 C 
ATOM     14  C   UNL     1      30.489 -23.192 -16.186  0.00  0.00    +0.018 C 
ATOM     15  C   UNL     1      31.428 -24.619 -13.981  0.00  0.00    +0.045 C 
ATOM     16  C   UNL     1      29.593 -23.870 -15.361  0.00  0.00    +0.031 C 
ATOM     17  C   UNL     1      30.062 -24.585 -14.259  0.00  0.00    +0.141 C 
BRANCH  13  18
ATOM     18  N   UNL     1      33.705 -23.990 -14.505  0.00  0.00    -0.356 N 
ATOM     19  H   UNL     1      34.349 -24.261 -15.198  0.00  0.00    +0.142 HD
ATOM     20  H   UNL     1      34.022 -23.752 -13.604  0.00  0.00    +0.142 HD
ENDBRANCH  13  18
ENDBRANCH   8  12
ENDBRANCH   2   9
BRANCH   1  21
ATOM     21  C   UNL     1      36.849 -19.240 -20.500  0.00  0.00    +0.117 C 
BRANCH  21  23
ATOM     22  O   UNL     1      36.004 -18.797 -23.236  0.00  0.00    -0.270 OA
ATOM     23  N   UNL     1      36.086 -18.124 -21.013  0.00  0.00    -0.297 N 
ATOM     24  C   UNL     1      35.728 -18.001 -22.344  0.00  0.00    +0.246 C 
ATOM     25  H   UNL     1      35.807 -17.419 -20.384  0.00  0.00    +0.150 HD
BRANCH  24  26
ATOM     26  C   UNL     1      34.946 -16.757 -22.595  0.00  0.00    +0.058 C 
ATOM     27  C   UNL     1      34.896 -15.798 -21.659  0.00  0.00    +0.006 C 
BRANCH  27  29
ATOM     28  N   UNL     1      32.602 -12.953 -20.889  0.00  0.00    -0.242 NA
ATOM     29  C   UNL     1      34.165 -14.526 -21.803  0.00  0.00    +0.019 C 
ATOM     30  C   UNL     1      34.342 -13.747 -22.927  0.00  0.00    +0.003 C 
ATOM     31  C   UNL     1      33.302 -14.108 -20.819  0.00  0.00    +0.099 C 
ATOM     32  C   UNL     1      33.639 -12.552 -23.036  0.00  0.00    +0.021 C 
ATOM     33  C   UNL     1      32.790 -12.203 -21.999  0.00  0.00    +0.099 C 
ENDBRANCH  27  29
ENDBRANCH  24  26
ENDBRANCH  21  23
ENDBRANCH   1  21
TORSDOF 7
ENDMDL
MODEL 6
REMARK VINA RESULT:     -11.0      4.689     11.445
REMARK  Name = 12136798
REMARK  7 active torsions:
REMARK  status: ('A' for Active; 'I' for Inactive)
REMARK    1  A    between atoms: C_1  and  C_21
REMARK    2  A    between atoms: C_2  and  C_9
REMARK    3  A    between atoms: N_8  and  C_12
REMARK    4  A    between atoms: C_13  and  N_18
REMARK    5  A    between atoms: C_21  and  N_23
REMARK    6  A    between atoms: C_24  and  C_26
REMARK    7  A    between atoms: C_27  and  C_29
REMARK                            x       y       z     vdW  Elec       q    Type
REMARK                         _______ _______ _______ _____ _____    ______ ____
ROOT
ATOM      1  C   UNL     1      35.184 -16.830 -22.385  0.00  0.00    -0.003 C 
ATOM      2  C   UNL     1      34.029 -14.340 -21.944  0.00  0.00    +0.054 C 
ATOM      3  C   UNL     1      35.030 -16.363 -21.085  0.00  0.00    -0.002 C 
ATOM      4  C   UNL     1      34.768 -16.064 -23.467  0.00  0.00    -0.002 C 
ATOM      5  C   UNL     1      34.449 -15.115 -20.863  0.00  0.00    +0.004 C 
ATOM      6  C   UNL     1      34.187 -14.815 -23.246  0.00  0.00    +0.004 C 
ENDROOT
BRANCH   2   9
ATOM      7  O   UNL     1      33.096 -12.720 -20.560  0.00  0.00    -0.270 OA
ATOM      8  N   UNL     1      33.288 -12.219 -22.844  0.00  0.00    -0.279 N 
ATOM      9  C   UNL     1      33.425 -13.037 -21.714  0.00  0.00    +0.250 C 
ATOM     10  H   UNL     1      33.595 -12.609 -23.694  0.00  0.00    +0.155 HD
BRANCH   8  12
ATOM     11  F   UNL     1      31.311  -7.069 -23.184  0.00  0.00    -0.204 F 
ATOM     12  C   UNL     1      32.764 -10.905 -22.923  0.00  0.00    +0.064 C 
ATOM     13  C   UNL     1      31.475 -10.638 -22.494  0.00  0.00    +0.057 C 
ATOM     14  C   UNL     1      33.573  -9.906 -23.440  0.00  0.00    +0.018 C 
ATOM     15  C   UNL     1      30.981  -9.336 -22.582  0.00  0.00    +0.045 C 
ATOM     16  C   UNL     1      33.080  -8.605 -23.528  0.00  0.00    +0.031 C 
ATOM     17  C   UNL     1      31.784  -8.319 -23.100  0.00  0.00    +0.141 C 
BRANCH  13  18
ATOM     18  N   UNL     1      30.644 -11.651 -21.967  0.00  0.00    -0.356 N 
ATOM     19  H   UNL     1      29.667 -11.532 -21.959  0.00  0.00    +0.142 HD
ATOM     20  H   UNL     1      31.042 -12.478 -21.608  0.00  0.00    +0.142 HD
ENDBRANCH  13  18
ENDBRANCH   8  12
ENDBRANCH   2   9
BRANCH   1  21
ATOM     21  C   UNL     1      35.808 -18.174 -22.624  0.00  0.00    +0.117 C 
BRANCH  21  23
ATOM     22  O   UNL     1      38.016 -18.891 -20.890  0.00  0.00    -0.270 OA
ATOM     23  N   UNL     1      35.762 -19.010 -21.445  0.00  0.00    -0.297 N 
ATOM     24  C   UNL     1      36.878 -19.296 -20.677  0.00  0.00    +0.246 C 
ATOM     25  H   UNL     1      34.896 -19.394 -21.176  0.00  0.00    +0.150 HD
BRANCH  24  26
ATOM     26  C   UNL     1      36.545 -20.180 -19.524  0.00  0.00    +0.058 C 
ATOM     27  C   UNL     1      35.401 -20.879 -19.526  0.00  0.00    +0.006 C 
BRANCH  27  29
ATOM     28  N   UNL     1      35.525 -22.957 -16.424  0.00  0.00    -0.242 NA
ATOM     29  C   UNL     1      34.976 -21.789 -18.447  0.00  0.00    +0.019 C 
ATOM     30  C   UNL     1      33.698 -22.306 -18.437  0.00  0.00    +0.003 C 
ATOM     31  C   UNL     1      35.851 -22.128 -17.443  0.00  0.00    +0.099 C 
ATOM     32  C   UNL     1      33.325 -23.162 -17.406  0.00  0.00    +0.021 C 
ATOM     33  C   UNL     1      34.267 -23.453 -16.433  0.00  0.00    +0.099 C 
ENDBRANCH  27  29
ENDBRANCH  24  26
ENDBRANCH  21  23
ENDBRANCH   1  21
TORSDOF 7
ENDMDL
MODEL 7
REMARK VINA RESULT:     -11.0      2.513      3.559
REMARK  Name = 12136798
REMARK  7 active torsions:
REMARK  status: ('A' for Active; 'I' for Inactive)
REMARK    1  A    between atoms: C_1  and  C_21
REMARK    2  A    between atoms: C_2  and  C_9
REMARK    3  A    between atoms: N_8  and  C_12
REMARK    4  A    between atoms: C_13  and  N_18
REMARK    5  A    between atoms: C_21  and  N_23
REMARK    6  A    between atoms: C_24  and  C_26
REMARK    7  A    between atoms: C_27  and  C_29
REMARK                            x       y       z     vdW  Elec       q    Type
REMARK                         _______ _______ _______ _____ _____    ______ ____
ROOT
ATOM      1  C   UNL     1      34.925 -17.716 -23.318  0.00  0.00    -0.003 C 
ATOM      2  C   UNL     1      35.597 -19.221 -21.080  0.00  0.00    +0.054 C 
ATOM      3  C   UNL     1      34.664 -19.081 -23.303  0.00  0.00    -0.002 C 
ATOM      4  C   UNL     1      35.520 -17.096 -22.225  0.00  0.00    -0.002 C 
ATOM      5  C   UNL     1      35.001 -19.837 -22.180  0.00  0.00    +0.004 C 
ATOM      6  C   UNL     1      35.856 -17.851 -21.102  0.00  0.00    +0.004 C 
ENDROOT
BRANCH   2   9
ATOM      7  O   UNL     1      37.079 -19.876 -19.411  0.00  0.00    -0.270 OA
ATOM      8  N   UNL     1      34.947 -20.854 -19.416  0.00  0.00    -0.279 N 
ATOM      9  C   UNL     1      35.950 -20.009 -19.908  0.00  0.00    +0.250 C 
ATOM     10  H   UNL     1      34.100 -20.852 -19.919  0.00  0.00    +0.155 HD
BRANCH   8  12
ATOM     11  F   UNL     1      35.192 -24.181 -15.009  0.00  0.00    -0.204 F 
ATOM     12  C   UNL     1      34.991 -21.713 -18.290  0.00  0.00    +0.064 C 
ATOM     13  C   UNL     1      33.875 -22.447 -17.925  0.00  0.00    +0.057 C 
ATOM     14  C   UNL     1      36.173 -21.791 -17.570  0.00  0.00    +0.018 C 
ATOM     15  C   UNL     1      33.943 -23.286 -16.812  0.00  0.00    +0.045 C 
ATOM     16  C   UNL     1      36.241 -22.630 -16.458  0.00  0.00    +0.031 C 
ATOM     17  C   UNL     1      35.126 -23.376 -16.078  0.00  0.00    +0.141 C 
BRANCH  13  18
ATOM     18  N   UNL     1      32.667 -22.372 -18.653  0.00  0.00    -0.356 N 
ATOM     19  H   UNL     1      32.340 -21.500 -18.973  0.00  0.00    +0.142 HD
ATOM     20  H   UNL     1      32.153 -23.190 -18.842  0.00  0.00    +0.142 HD
ENDBRANCH  13  18
ENDBRANCH   8  12
ENDBRANCH   2   9
BRANCH   1  21
ATOM     21  C   UNL     1      34.563 -16.902 -24.526  0.00  0.00    +0.117 C 
BRANCH  21  23
ATOM     22  O   UNL     1      33.162 -15.021 -26.228  0.00  0.00    -0.270 OA
ATOM     23  N   UNL     1      34.081 -15.586 -24.169  0.00  0.00    -0.297 N 
ATOM     24  C   UNL     1      33.419 -14.757 -25.058  0.00  0.00    +0.246 C 
ATOM     25  H   UNL     1      34.232 -15.265 -23.250  0.00  0.00    +0.150 HD
BRANCH  24  26
ATOM     26  C   UNL     1      33.036 -13.462 -24.426  0.00  0.00    +0.058 C 
ATOM     27  C   UNL     1      32.746 -13.416 -23.118  0.00  0.00    +0.006 C 
BRANCH  27  29
ATOM     28  N   UNL     1      32.352  -9.795 -22.288  0.00  0.00    -0.242 NA
ATOM     29  C   UNL     1      32.367 -12.192 -22.389  0.00  0.00    +0.019 C 
ATOM     30  C   UNL     1      31.702 -12.279 -21.184  0.00  0.00    +0.003 C 
ATOM     31  C   UNL     1      32.672 -10.956 -22.905  0.00  0.00    +0.099 C 
ATOM     32  C   UNL     1      31.357 -11.107 -20.519  0.00  0.00    +0.021 C 
ATOM     33  C   UNL     1      31.702  -9.902 -21.108  0.00  0.00    +0.099 C 
ENDBRANCH  27  29
ENDBRANCH  24  26
ENDBRANCH  21  23
ENDBRANCH   1  21
TORSDOF 7
ENDMDL
MODEL 8
REMARK VINA RESULT:     -11.0      3.881     10.729
REMARK  Name = 12136798
REMARK  7 active torsions:
REMARK  status: ('A' for Active; 'I' for Inactive)
REMARK    1  A    between atoms: C_1  and  C_21
REMARK    2  A    between atoms: C_2  and  C_9
REMARK    3  A    between atoms: N_8  and  C_12
REMARK    4  A    between atoms: C_13  and  N_18
REMARK    5  A    between atoms: C_21  and  N_23
REMARK    6  A    between atoms: C_24  and  C_26
REMARK    7  A    between atoms: C_27  and  C_29
REMARK                            x       y       z     vdW  Elec       q    Type
REMARK                         _______ _______ _______ _____ _____    ______ ____
ROOT
ATOM      1  C   UNL     1      35.950 -20.555 -19.867  0.00  0.00    -0.003 C 
ATOM      2  C   UNL     1      35.405 -18.482 -21.637  0.00  0.00    +0.054 C 
ATOM      3  C   UNL     1      34.665 -20.404 -20.374  0.00  0.00    -0.002 C 
ATOM      4  C   UNL     1      36.965 -19.680 -20.234  0.00  0.00    -0.002 C 
ATOM      5  C   UNL     1      34.391 -19.364 -21.263  0.00  0.00    +0.004 C 
ATOM      6  C   UNL     1      36.692 -18.640 -21.123  0.00  0.00    +0.004 C 
ENDROOT
BRANCH   2   9
ATOM      7  O   UNL     1      35.261 -17.589 -23.780  0.00  0.00    -0.270 OA
ATOM      8  N   UNL     1      34.673 -16.201 -21.982  0.00  0.00    -0.279 N 
ATOM      9  C   UNL     1      35.120 -17.396 -22.562  0.00  0.00    +0.250 C 
ATOM     10  H   UNL     1      34.610 -16.200 -21.000  0.00  0.00    +0.155 HD
BRANCH   8  12
ATOM     11  F   UNL     1      33.199 -11.535 -24.552  0.00  0.00    -0.204 F 
ATOM     12  C   UNL     1      34.299 -14.995 -22.625  0.00  0.00    +0.064 C 
ATOM     13  C   UNL     1      34.347 -13.793 -21.939  0.00  0.00    +0.057 C 
ATOM     14  C   UNL     1      33.886 -15.056 -23.947  0.00  0.00    +0.018 C 
ATOM     15  C   UNL     1      33.974 -12.618 -22.593  0.00  0.00    +0.045 C 
ATOM     16  C   UNL     1      33.514 -13.882 -24.600  0.00  0.00    +0.031 C 
ATOM     17  C   UNL     1      33.557 -12.663 -23.924  0.00  0.00    +0.141 C 
BRANCH  13  18
ATOM     18  N   UNL     1      34.766 -13.724 -20.593  0.00  0.00    -0.356 N 
ATOM     19  H   UNL     1      34.099 -13.737 -19.869  0.00  0.00    +0.142 HD
ATOM     20  H   UNL     1      35.725 -13.663 -20.377  0.00  0.00    +0.142 HD
ENDBRANCH  13  18
ENDBRANCH   8  12
ENDBRANCH   2   9
BRANCH   1  21
ATOM     21  C   UNL     1      36.245 -21.674 -18.911  0.00  0.00    +0.117 C 
BRANCH  21  23
ATOM     22  O   UNL     1      34.218 -23.709 -19.288  0.00  0.00    -0.270 OA
ATOM     23  N   UNL     1      35.120 -21.962 -18.049  0.00  0.00    -0.297 N 
ATOM     24  C   UNL     1      34.200 -22.961 -18.316  0.00  0.00    +0.246 C 
ATOM     25  H   UNL     1      35.004 -21.421 -17.234  0.00  0.00    +0.150 HD
BRANCH  24  26
ATOM     26  C   UNL     1      33.146 -23.038 -17.265  0.00  0.00    +0.058 C 
ATOM     27  C   UNL     1      33.448 -23.516 -16.048  0.00  0.00    +0.006 C 
BRANCH  27  29
ATOM     28  N   UNL     1      31.976 -24.505 -12.761  0.00  0.00    -0.242 NA
ATOM     29  C   UNL     1      32.490 -23.627 -14.933  0.00  0.00    +0.019 C 
ATOM     30  C   UNL     1      31.269 -22.991 -15.001  0.00  0.00    +0.003 C 
ATOM     31  C   UNL     1      32.808 -24.364 -13.818  0.00  0.00    +0.099 C 
ATOM     32  C   UNL     1      30.385 -23.113 -13.934  0.00  0.00    +0.021 C 
ATOM     33  C   UNL     1      30.784 -23.874 -12.847  0.00  0.00    +0.099 C 
ENDBRANCH  27  29
ENDBRANCH  24  26
ENDBRANCH  21  23
ENDBRANCH   1  21
TORSDOF 7
ENDMDL
MODEL 9
REMARK VINA RESULT:     -10.9      6.057     12.894
REMARK  Name = 12136798
REMARK  7 active torsions:
REMARK  status: ('A' for Active; 'I' for Inactive)
REMARK    1  A    between atoms: C_1  and  C_21
REMARK    2  A    between atoms: C_2  and  C_9
REMARK    3  A    between atoms: N_8  and  C_12
REMARK    4  A    between atoms: C_13  and  N_18
REMARK    5  A    between atoms: C_21  and  N_23
REMARK    6  A    between atoms: C_24  and  C_26
REMARK    7  A    between atoms: C_27  and  C_29
REMARK                            x       y       z     vdW  Elec       q    Type
REMARK                         _______ _______ _______ _____ _____    ______ ____
ROOT
ATOM      1  C   UNL     1      33.251 -13.406 -23.864  0.00  0.00    -0.003 C 
ATOM      2  C   UNL     1      32.481 -11.078 -22.554  0.00  0.00    +0.054 C 
ATOM      3  C   UNL     1      33.757 -12.181 -24.283  0.00  0.00    -0.002 C 
ATOM      4  C   UNL     1      32.363 -13.478 -22.797  0.00  0.00    -0.002 C 
ATOM      5  C   UNL     1      33.371 -11.013 -23.626  0.00  0.00    +0.004 C 
ATOM      6  C   UNL     1      31.977 -12.310 -22.139  0.00  0.00    +0.004 C 
ENDROOT
BRANCH   2   9
ATOM      7  O   UNL     1      31.737  -9.922 -20.678  0.00  0.00    -0.270 OA
ATOM      8  N   UNL     1      32.134  -8.684 -22.631  0.00  0.00    -0.279 N 
ATOM      9  C   UNL     1      32.077  -9.859 -21.870  0.00  0.00    +0.250 C 
ATOM     10  H   UNL     1      32.425  -8.792 -23.565  0.00  0.00    +0.155 HD
BRANCH   8  12
ATOM     11  F   UNL     1      30.881  -3.516 -21.124  0.00  0.00    -0.204 F 
ATOM     12  C   UNL     1      31.828  -7.359 -22.231  0.00  0.00    +0.064 C 
ATOM     13  C   UNL     1      32.578  -6.732 -21.251  0.00  0.00    +0.057 C 
ATOM     14  C   UNL     1      30.764  -6.718 -22.846  0.00  0.00    +0.018 C 
ATOM     15  C   UNL     1      32.257  -5.427 -20.875  0.00  0.00    +0.045 C 
ATOM     16  C   UNL     1      30.443  -5.414 -22.470  0.00  0.00    +0.031 C 
ATOM     17  C   UNL     1      31.189  -4.768 -21.484  0.00  0.00    +0.141 C 
BRANCH  13  18
ATOM     18  N   UNL     1      33.663  -7.380 -20.620  0.00  0.00    -0.356 N 
ATOM     19  H   UNL     1      33.833  -8.334 -20.791  0.00  0.00    +0.142 HD
ATOM     20  H   UNL     1      34.251  -6.877 -20.011  0.00  0.00    +0.142 HD
ENDBRANCH  13  18
ENDBRANCH   8  12
ENDBRANCH   2   9
BRANCH   1  21
ATOM     21  C   UNL     1      33.666 -14.663 -24.570  0.00  0.00    +0.117 C 
BRANCH  21  23
ATOM     22  O   UNL     1      34.376 -17.422 -25.102  0.00  0.00    -0.270 OA
ATOM     23  N   UNL     1      34.360 -15.576 -23.689  0.00  0.00    -0.297 N 
ATOM     24  C   UNL     1      34.656 -16.883 -24.036  0.00  0.00    +0.246 C 
ATOM     25  H   UNL     1      34.636 -15.252 -22.801  0.00  0.00    +0.150 HD
BRANCH  24  26
ATOM     26  C   UNL     1      35.374 -17.597 -22.943  0.00  0.00    +0.058 C 
ATOM     27  C   UNL     1      34.730 -18.515 -22.207  0.00  0.00    +0.006 C 
BRANCH  27  29
ATOM     28  N   UNL     1      37.200 -19.611 -19.629  0.00  0.00    -0.242 NA
ATOM     29  C   UNL     1      35.342 -19.288 -21.111  0.00  0.00    +0.019 C 
ATOM     30  C   UNL     1      34.673 -20.359 -20.558  0.00  0.00    +0.003 C 
ATOM     31  C   UNL     1      36.583 -18.945 -20.631  0.00  0.00    +0.099 C 
ATOM     32  C   UNL     1      35.276 -21.070 -19.526  0.00  0.00    +0.021 C 
ATOM     33  C   UNL     1      36.528 -20.658 -19.101  0.00  0.00    +0.099 C 
ENDBRANCH  27  29
ENDBRANCH  24  26
ENDBRANCH  21  23
ENDBRANCH   1  21
TORSDOF 7
ENDMDL
