MODEL 1
REMARK VINA RESULT:     -10.8      0.000      0.000
REMARK  Name = 11790
REMARK  1 active torsions:
REMARK  status: ('A' for Active; 'I' for Inactive)
REMARK    1  A    between atoms: C_7  and  C_16
REMARK                            x       y       z     vdW  Elec       q    Type
REMARK                         _______ _______ _______ _____ _____    ______ ____
ROOT
ATOM      1  O   UNL     1      32.919 -22.741 -16.890  0.00  0.00    -0.453 OA
ATOM      2  O   UNL     1      36.216 -23.772 -14.743  0.00  0.00    -0.286 OA
ATOM      3  C   UNL     1      34.160 -22.340 -17.329  0.00  0.00    +0.148 C 
ATOM      4  C   UNL     1      34.221 -21.583 -18.522  0.00  0.00    +0.035 C 
ATOM      5  C   UNL     1      35.325 -22.663 -16.631  0.00  0.00    +0.074 C 
ATOM      6  C   UNL     1      35.489 -21.159 -18.994  0.00  0.00    +0.003 C 
ATOM      7  C   UNL     1      32.823 -23.480 -15.722  0.00  0.00    +0.148 C 
ATOM      8  C   UNL     1      36.569 -22.244 -17.100  0.00  0.00    +0.006 C 
ATOM      9  C   UNL     1      36.646 -21.496 -18.275  0.00  0.00    +0.000 C 
ATOM     10  C   UNL     1      35.230 -23.455 -15.395  0.00  0.00    +0.202 C 
ATOM     11  C   UNL     1      33.077 -21.229 -19.269  0.00  0.00    +0.003 C 
ATOM     12  C   UNL     1      33.873 -23.853 -14.976  0.00  0.00    +0.080 C 
ATOM     13  C   UNL     1      35.574 -20.407 -20.178  0.00  0.00    +0.000 C 
ATOM     14  C   UNL     1      33.180 -20.482 -20.443  0.00  0.00    +0.000 C 
ATOM     15  C   UNL     1      34.429 -20.071 -20.896  0.00  0.00    +0.000 C 
ENDROOT
BRANCH   7  16
ATOM     16  C   UNL     1      31.440 -23.855 -15.362  0.00  0.00    +0.035 C 
ATOM     17  C   UNL     1      30.359 -23.148 -15.894  0.00  0.00    +0.003 C 
ATOM     18  C   UNL     1      31.208 -24.918 -14.486  0.00  0.00    +0.003 C 
ATOM     19  C   UNL     1      29.054 -23.503 -15.555  0.00  0.00    +0.000 C 
ATOM     20  C   UNL     1      29.902 -25.273 -14.146  0.00  0.00    +0.000 C 
ATOM     21  C   UNL     1      28.825 -24.565 -14.680  0.00  0.00    +0.000 C 
ENDBRANCH   7  16
TORSDOF 1
ENDMDL
MODEL 2
REMARK VINA RESULT:     -10.7      0.067      1.056
REMARK  Name = 11790
REMARK  1 active torsions:
REMARK  status: ('A' for Active; 'I' for Inactive)
REMARK    1  A    between atoms: C_7  and  C_16
REMARK                            x       y       z     vdW  Elec       q    Type
REMARK                         _______ _______ _______ _____ _____    ______ ____
ROOT
ATOM      1  O   UNL     1      32.902 -22.762 -16.837  0.00  0.00    -0.453 OA
ATOM      2  O   UNL     1      36.182 -23.800 -14.668  0.00  0.00    -0.286 OA
ATOM      3  C   UNL     1      34.147 -22.366 -17.270  0.00  0.00    +0.148 C 
ATOM      4  C   UNL     1      34.217 -21.611 -18.463  0.00  0.00    +0.035 C 
ATOM      5  C   UNL     1      35.307 -22.691 -16.564  0.00  0.00    +0.074 C 
ATOM      6  C   UNL     1      35.489 -21.191 -18.929  0.00  0.00    +0.003 C 
ATOM      7  C   UNL     1      32.797 -23.498 -15.668  0.00  0.00    +0.148 C 
ATOM      8  C   UNL     1      36.555 -22.276 -17.026  0.00  0.00    +0.006 C 
ATOM      9  C   UNL     1      36.641 -21.531 -18.201  0.00  0.00    +0.000 C 
ATOM     10  C   UNL     1      35.202 -23.480 -15.327  0.00  0.00    +0.202 C 
ATOM     11  C   UNL     1      33.079 -21.255 -19.218  0.00  0.00    +0.003 C 
ATOM     12  C   UNL     1      33.841 -23.874 -14.915  0.00  0.00    +0.080 C 
ATOM     13  C   UNL     1      35.584 -20.442 -20.113  0.00  0.00    +0.000 C 
ATOM     14  C   UNL     1      33.192 -20.509 -20.392  0.00  0.00    +0.000 C 
ATOM     15  C   UNL     1      34.444 -20.103 -20.839  0.00  0.00    +0.000 C 
ENDROOT
BRANCH   7  16
ATOM     16  C   UNL     1      31.411 -23.868 -15.316  0.00  0.00    +0.035 C 
ATOM     17  C   UNL     1      31.168 -24.914 -14.422  0.00  0.00    +0.003 C 
ATOM     18  C   UNL     1      30.336 -23.173 -15.877  0.00  0.00    +0.003 C 
ATOM     19  C   UNL     1      29.859 -25.262 -14.090  0.00  0.00    +0.000 C 
ATOM     20  C   UNL     1      29.026 -23.522 -15.544  0.00  0.00    +0.000 C 
ATOM     21  C   UNL     1      28.788 -24.567 -14.651  0.00  0.00    +0.000 C 
ENDBRANCH   7  16
TORSDOF 1
ENDMDL
MODEL 3
REMARK VINA RESULT:     -10.7      0.561      6.032
REMARK  Name = 11790
REMARK  1 active torsions:
REMARK  status: ('A' for Active; 'I' for Inactive)
REMARK    1  A    between atoms: C_7  and  C_16
REMARK                            x       y       z     vdW  Elec       q    Type
REMARK                         _______ _______ _______ _____ _____    ______ ____
ROOT
ATOM      1  O   UNL     1      33.112 -22.757 -16.836  0.00  0.00    -0.453 OA
ATOM      2  O   UNL     1      36.329 -23.877 -14.613  0.00  0.00    -0.286 OA
ATOM      3  C   UNL     1      32.913 -23.480 -15.681  0.00  0.00    +0.148 C 
ATOM      4  C   UNL     1      31.581 -23.796 -15.326  0.00  0.00    +0.035 C 
ATOM      5  C   UNL     1      33.980 -23.893 -14.881  0.00  0.00    +0.074 C 
ATOM      6  C   UNL     1      31.352 -24.540 -14.141  0.00  0.00    +0.003 C 
ATOM      7  C   UNL     1      34.405 -22.435 -17.216  0.00  0.00    +0.148 C 
ATOM      8  C   UNL     1      33.749 -24.625 -13.718  0.00  0.00    +0.006 C 
ATOM      9  C   UNL     1      32.442 -24.944 -13.353  0.00  0.00    +0.000 C 
ATOM     10  C   UNL     1      35.355 -23.547 -15.276  0.00  0.00    +0.202 C 
ATOM     11  C   UNL     1      30.465 -23.403 -16.095  0.00  0.00    +0.003 C 
ATOM     12  C   UNL     1      35.502 -22.772 -16.523  0.00  0.00    +0.080 C 
ATOM     13  C   UNL     1      30.037 -24.864 -13.767  0.00  0.00    +0.000 C 
ATOM     14  C   UNL     1      29.166 -23.734 -15.709  0.00  0.00    +0.000 C 
ATOM     15  C   UNL     1      28.953 -24.465 -14.545  0.00  0.00    +0.000 C 
ENDROOT
BRANCH   7  16
ATOM     16  C   UNL     1      34.484 -21.652 -18.466  0.00  0.00    +0.035 C 
ATOM     17  C   UNL     1      33.316 -21.253 -19.120  0.00  0.00    +0.003 C 
ATOM     18  C   UNL     1      35.728 -21.308 -19.000  0.00  0.00    +0.003 C 
ATOM     19  C   UNL     1      33.392 -20.513 -20.300  0.00  0.00    +0.000 C 
ATOM     20  C   UNL     1      35.804 -20.568 -20.180  0.00  0.00    +0.000 C 
ATOM     21  C   UNL     1      34.636 -20.171 -20.831  0.00  0.00    +0.000 C 
ENDBRANCH   7  16
TORSDOF 1
ENDMDL
MODEL 4
REMARK VINA RESULT:     -10.3      2.426      5.101
REMARK  Name = 11790
REMARK  1 active torsions:
REMARK  status: ('A' for Active; 'I' for Inactive)
REMARK    1  A    between atoms: C_7  and  C_16
REMARK                            x       y       z     vdW  Elec       q    Type
REMARK                         _______ _______ _______ _____ _____    ______ ____
ROOT
ATOM      1  O   UNL     1      35.590 -23.574 -15.859  0.00  0.00    -0.453 OA
ATOM      2  O   UNL     1      32.045 -24.402 -14.045  0.00  0.00    -0.286 OA
ATOM      3  C   UNL     1      34.422 -23.115 -16.425  0.00  0.00    +0.148 C 
ATOM      4  C   UNL     1      34.522 -22.369 -17.622  0.00  0.00    +0.035 C 
ATOM      5  C   UNL     1      33.177 -23.372 -15.847  0.00  0.00    +0.074 C 
ATOM      6  C   UNL     1      33.332 -21.886 -18.222  0.00  0.00    +0.003 C 
ATOM      7  C   UNL     1      35.528 -24.313 -14.689  0.00  0.00    +0.148 C 
ATOM      8  C   UNL     1      32.010 -22.895 -16.443  0.00  0.00    +0.006 C 
ATOM      9  C   UNL     1      32.091 -22.157 -17.623  0.00  0.00    +0.000 C 
ATOM     10  C   UNL     1      33.106 -24.149 -14.600  0.00  0.00    +0.202 C 
ATOM     11  C   UNL     1      35.753 -22.078 -18.248  0.00  0.00    +0.003 C 
ATOM     12  C   UNL     1      34.391 -24.613 -14.044  0.00  0.00    +0.080 C 
ATOM     13  C   UNL     1      33.406 -21.140 -19.411  0.00  0.00    +0.000 C 
ATOM     14  C   UNL     1      35.808 -21.336 -19.429  0.00  0.00    +0.000 C 
ATOM     15  C   UNL     1      34.634 -20.868 -20.009  0.00  0.00    +0.000 C 
ENDROOT
BRANCH   7  16
ATOM     16  C   UNL     1      36.847 -24.740 -14.179  0.00  0.00    +0.035 C 
ATOM     17  C   UNL     1      38.015 -24.364 -14.848  0.00  0.00    +0.003 C 
ATOM     18  C   UNL     1      36.933 -25.523 -13.025  0.00  0.00    +0.003 C 
ATOM     19  C   UNL     1      39.260 -24.766 -14.366  0.00  0.00    +0.000 C 
ATOM     20  C   UNL     1      38.179 -25.926 -12.543  0.00  0.00    +0.000 C 
ATOM     21  C   UNL     1      39.342 -25.548 -13.214  0.00  0.00    +0.000 C 
ENDBRANCH   7  16
TORSDOF 1
ENDMDL
MODEL 5
REMARK VINA RESULT:     -10.2      5.843      9.476
REMARK  Name = 11790
REMARK  1 active torsions:
REMARK  status: ('A' for Active; 'I' for Inactive)
REMARK    1  A    between atoms: C_7  and  C_16
REMARK                            x       y       z     vdW  Elec       q    Type
REMARK                         _______ _______ _______ _____ _____    ______ ____
ROOT
ATOM      1  O   UNL     1      34.399 -16.397 -21.400  0.00  0.00    -0.453 OA
ATOM      2  O   UNL     1      34.975 -16.278 -25.425  0.00  0.00    -0.286 OA
ATOM      3  C   UNL     1      33.973 -15.295 -22.109  0.00  0.00    +0.148 C 
ATOM      4  C   UNL     1      33.348 -14.253 -21.387  0.00  0.00    +0.035 C 
ATOM      5  C   UNL     1      34.147 -15.200 -23.490  0.00  0.00    +0.074 C 
ATOM      6  C   UNL     1      32.900 -13.109 -22.095  0.00  0.00    +0.003 C 
ATOM      7  C   UNL     1      35.021 -17.434 -22.076  0.00  0.00    +0.148 C 
ATOM      8  C   UNL     1      33.706 -14.073 -24.182  0.00  0.00    +0.006 C 
ATOM      9  C   UNL     1      33.087 -13.036 -23.485  0.00  0.00    +0.000 C 
ATOM     10  C   UNL     1      34.799 -16.303 -24.214  0.00  0.00    +0.202 C 
ATOM     11  C   UNL     1      33.144 -14.297 -19.991  0.00  0.00    +0.003 C 
ATOM     12  C   UNL     1      35.234 -17.453 -23.400  0.00  0.00    +0.080 C 
ATOM     13  C   UNL     1      32.274 -12.061 -21.400  0.00  0.00    +0.000 C 
ATOM     14  C   UNL     1      32.521 -13.246 -19.316  0.00  0.00    +0.000 C 
ATOM     15  C   UNL     1      32.087 -12.129 -20.021  0.00  0.00    +0.000 C 
ENDROOT
BRANCH   7  16
ATOM     16  C   UNL     1      35.424 -18.558 -21.207  0.00  0.00    +0.035 C 
ATOM     17  C   UNL     1      36.758 -18.706 -20.821  0.00  0.00    +0.003 C 
ATOM     18  C   UNL     1      34.470 -19.480 -20.766  0.00  0.00    +0.003 C 
ATOM     19  C   UNL     1      37.138 -19.768 -20.001  0.00  0.00    +0.000 C 
ATOM     20  C   UNL     1      34.850 -20.543 -19.945  0.00  0.00    +0.000 C 
ATOM     21  C   UNL     1      36.184 -20.687 -19.562  0.00  0.00    +0.000 C 
ENDBRANCH   7  16
TORSDOF 1
ENDMDL
MODEL 6
REMARK VINA RESULT:     -10.2      2.284      5.009
REMARK  Name = 11790
REMARK  1 active torsions:
REMARK  status: ('A' for Active; 'I' for Inactive)
REMARK    1  A    between atoms: C_7  and  C_16
REMARK                            x       y       z     vdW  Elec       q    Type
REMARK                         _______ _______ _______ _____ _____    ______ ____
ROOT
ATOM      1  O   UNL     1      33.399 -23.622 -14.509  0.00  0.00    -0.453 OA
ATOM      2  O   UNL     1      35.154 -22.431 -17.979  0.00  0.00    -0.286 OA
ATOM      3  C   UNL     1      34.764 -23.445 -14.546  0.00  0.00    +0.148 C 
ATOM      4  C   UNL     1      35.490 -23.689 -13.357  0.00  0.00    +0.035 C 
ATOM      5  C   UNL     1      35.420 -23.041 -15.710  0.00  0.00    +0.074 C 
ATOM      6  C   UNL     1      36.896 -23.514 -13.372  0.00  0.00    +0.003 C 
ATOM      7  C   UNL     1      32.658 -23.397 -15.657  0.00  0.00    +0.148 C 
ATOM      8  C   UNL     1      36.803 -22.870 -15.719  0.00  0.00    +0.006 C 
ATOM      9  C   UNL     1      37.534 -23.106 -14.555  0.00  0.00    +0.000 C 
ATOM     10  C   UNL     1      34.636 -22.792 -16.930  0.00  0.00    +0.202 C 
ATOM     11  C   UNL     1      34.880 -24.098 -12.152  0.00  0.00    +0.003 C 
ATOM     12  C   UNL     1      33.179 -22.999 -16.827  0.00  0.00    +0.080 C 
ATOM     13  C   UNL     1      37.639 -23.748 -12.202  0.00  0.00    +0.000 C 
ATOM     14  C   UNL     1      35.633 -24.327 -11.000  0.00  0.00    +0.000 C 
ATOM     15  C   UNL     1      37.012 -24.152 -11.026  0.00  0.00    +0.000 C 
ENDROOT
BRANCH   7  16
ATOM     16  C   UNL     1      31.207 -23.613 -15.485  0.00  0.00    +0.035 C 
ATOM     17  C   UNL     1      30.741 -24.661 -14.688  0.00  0.00    +0.003 C 
ATOM     18  C   UNL     1      30.293 -22.768 -16.121  0.00  0.00    +0.003 C 
ATOM     19  C   UNL     1      29.372 -24.864 -14.526  0.00  0.00    +0.000 C 
ATOM     20  C   UNL     1      28.921 -22.971 -15.959  0.00  0.00    +0.000 C 
ATOM     21  C   UNL     1      28.461 -24.020 -15.162  0.00  0.00    +0.000 C 
ENDBRANCH   7  16
TORSDOF 1
ENDMDL
MODEL 7
REMARK VINA RESULT:     -10.1      2.824      6.582
REMARK  Name = 11790
REMARK  1 active torsions:
REMARK  status: ('A' for Active; 'I' for Inactive)
REMARK    1  A    between atoms: C_7  and  C_16
REMARK                            x       y       z     vdW  Elec       q    Type
REMARK                         _______ _______ _______ _____ _____    ______ ____
ROOT
ATOM      1  O   UNL     1      36.187 -23.406 -15.847  0.00  0.00    -0.453 OA
ATOM      2  O   UNL     1      32.881 -23.730 -13.500  0.00  0.00    -0.286 OA
ATOM      3  C   UNL     1      36.283 -24.052 -14.635  0.00  0.00    +0.148 C 
ATOM      4  C   UNL     1      37.544 -24.577 -14.270  0.00  0.00    +0.035 C 
ATOM      5  C   UNL     1      35.182 -24.190 -13.788  0.00  0.00    +0.074 C 
ATOM      6  C   UNL     1      37.667 -25.247 -13.027  0.00  0.00    +0.003 C 
ATOM      7  C   UNL     1      34.967 -22.875 -16.233  0.00  0.00    +0.148 C 
ATOM      8  C   UNL     1      35.309 -24.849 -12.567  0.00  0.00    +0.006 C 
ATOM      9  C   UNL     1      36.546 -25.373 -12.191  0.00  0.00    +0.000 C 
ATOM     10  C   UNL     1      33.882 -23.636 -14.197  0.00  0.00    +0.202 C 
ATOM     11  C   UNL     1      38.690 -24.468 -15.087  0.00  0.00    +0.003 C 
ATOM     12  C   UNL     1      33.844 -22.955 -15.506  0.00  0.00    +0.080 C 
ATOM     13  C   UNL     1      38.910 -25.779 -12.643  0.00  0.00    +0.000 C 
ATOM     14  C   UNL     1      39.917 -25.002 -14.690  0.00  0.00    +0.000 C 
ATOM     15  C   UNL     1      40.026 -25.656 -13.468  0.00  0.00    +0.000 C 
ENDROOT
BRANCH   7  16
ATOM     16  C   UNL     1      34.993 -22.216 -17.555  0.00  0.00    +0.035 C 
ATOM     17  C   UNL     1      36.192 -21.718 -18.069  0.00  0.00    +0.003 C 
ATOM     18  C   UNL     1      33.815 -22.085 -18.296  0.00  0.00    +0.003 C 
ATOM     19  C   UNL     1      36.216 -21.096 -19.317  0.00  0.00    +0.000 C 
ATOM     20  C   UNL     1      33.839 -21.462 -19.545  0.00  0.00    +0.000 C 
ATOM     21  C   UNL     1      35.039 -20.967 -20.055  0.00  0.00    +0.000 C 
ENDBRANCH   7  16
TORSDOF 1
ENDMDL
MODEL 8
REMARK VINA RESULT:     -10.0      1.755      6.303
REMARK  Name = 11790
REMARK  1 active torsions:
REMARK  status: ('A' for Active; 'I' for Inactive)
REMARK    1  A    between atoms: C_7  and  C_16
REMARK                            x       y       z     vdW  Elec       q    Type
REMARK                         _______ _______ _______ _____ _____    ______ ____
ROOT
ATOM      1  O   UNL     1      34.807 -22.761 -16.672  0.00  0.00    -0.453 OA
ATOM      2  O   UNL     1      30.937 -23.542 -15.694  0.00  0.00    -0.286 OA
ATOM      3  C   UNL     1      34.533 -23.464 -15.520  0.00  0.00    +0.148 C 
ATOM      4  C   UNL     1      35.629 -23.883 -14.732  0.00  0.00    +0.035 C 
ATOM      5  C   UNL     1      33.224 -23.758 -15.134  0.00  0.00    +0.074 C 
ATOM      6  C   UNL     1      35.372 -24.609 -13.541  0.00  0.00    +0.003 C 
ATOM      7  C   UNL     1      33.757 -22.330 -17.465  0.00  0.00    +0.148 C 
ATOM      8  C   UNL     1      32.977 -24.471 -13.963  0.00  0.00    +0.006 C 
ATOM      9  C   UNL     1      34.046 -24.892 -13.173  0.00  0.00    +0.000 C 
ATOM     10  C   UNL     1      32.105 -23.310 -15.978  0.00  0.00    +0.202 C 
ATOM     11  C   UNL     1      36.972 -23.616 -15.074  0.00  0.00    +0.003 C 
ATOM     12  C   UNL     1      32.463 -22.561 -17.197  0.00  0.00    +0.080 C 
ATOM     13  C   UNL     1      36.444 -25.038 -12.742  0.00  0.00    +0.000 C 
ATOM     14  C   UNL     1      38.026 -24.049 -14.268  0.00  0.00    +0.000 C 
ATOM     15  C   UNL     1      37.761 -24.760 -13.102  0.00  0.00    +0.000 C 
ENDROOT
BRANCH   7  16
ATOM     16  C   UNL     1      34.181 -21.595 -18.674  0.00  0.00    +0.035 C 
ATOM     17  C   UNL     1      33.235 -20.945 -19.470  0.00  0.00    +0.003 C 
ATOM     18  C   UNL     1      35.532 -21.548 -19.028  0.00  0.00    +0.003 C 
ATOM     19  C   UNL     1      33.636 -20.251 -20.611  0.00  0.00    +0.000 C 
ATOM     20  C   UNL     1      35.934 -20.854 -20.170  0.00  0.00    +0.000 C 
ATOM     21  C   UNL     1      34.986 -20.206 -20.962  0.00  0.00    +0.000 C 
ENDBRANCH   7  16
TORSDOF 1
ENDMDL
MODEL 9
REMARK VINA RESULT:      -9.9      4.256      7.581
REMARK  Name = 11790
REMARK  1 active torsions:
REMARK  status: ('A' for Active; 'I' for Inactive)
REMARK    1  A    between atoms: C_7  and  C_16
REMARK                            x       y       z     vdW  Elec       q    Type
REMARK                         _______ _______ _______ _____ _____    ______ ____
ROOT
ATOM      1  O   UNL     1      34.952 -18.391 -20.941  0.00  0.00    -0.453 OA
ATOM      2  O   UNL     1      34.818 -19.880 -24.724  0.00  0.00    -0.286 OA
ATOM      3  C   UNL     1      34.811 -17.524 -22.001  0.00  0.00    +0.148 C 
ATOM      4  C   UNL     1      34.717 -16.143 -21.711  0.00  0.00    +0.035 C 
ATOM      5  C   UNL     1      34.762 -17.978 -23.320  0.00  0.00    +0.074 C 
ATOM      6  C   UNL     1      34.571 -15.231 -22.786  0.00  0.00    +0.003 C 
ATOM      7  C   UNL     1      35.053 -19.750 -21.191  0.00  0.00    +0.148 C 
ATOM      8  C   UNL     1      34.619 -17.077 -24.374  0.00  0.00    +0.006 C 
ATOM      9  C   UNL     1      34.524 -15.712 -24.104  0.00  0.00    +0.000 C 
ATOM     10  C   UNL     1      34.859 -19.422 -23.590  0.00  0.00    +0.202 C 
ATOM     11  C   UNL     1      34.759 -15.627 -20.398  0.00  0.00    +0.003 C 
ATOM     12  C   UNL     1      35.010 -20.299 -22.414  0.00  0.00    +0.080 C 
ATOM     13  C   UNL     1      34.473 -13.854 -22.522  0.00  0.00    +0.000 C 
ATOM     14  C   UNL     1      34.661 -14.257 -20.154  0.00  0.00    +0.000 C 
ATOM     15  C   UNL     1      34.519 -13.371 -21.216  0.00  0.00    +0.000 C 
ENDROOT
BRANCH   7  16
ATOM     16  C   UNL     1      35.192 -20.574 -19.973  0.00  0.00    +0.035 C 
ATOM     17  C   UNL     1      36.427 -20.671 -19.327  0.00  0.00    +0.003 C 
ATOM     18  C   UNL     1      34.088 -21.261 -19.461  0.00  0.00    +0.003 C 
ATOM     19  C   UNL     1      36.558 -21.448 -18.177  0.00  0.00    +0.000 C 
ATOM     20  C   UNL     1      34.219 -22.039 -18.310  0.00  0.00    +0.000 C 
ATOM     21  C   UNL     1      35.454 -22.133 -17.668  0.00  0.00    +0.000 C 
ENDBRANCH   7  16
TORSDOF 1
ENDMDL
