MODEL 1
REMARK VINA RESULT:     -12.8      0.000      0.000
REMARK  Name = 445756
REMARK  6 active torsions:
REMARK  status: ('A' for Active; 'I' for Inactive)
REMARK    1  A    between atoms: C_3  and  C_11
REMARK    2  A    between atoms: C_6  and  C_22
REMARK    3  A    between atoms: C_11  and  N_12
REMARK    4  A    between atoms: C_22  and  N_23
REMARK    5  A    between atoms: N_23  and  C_25
REMARK    6  A    between atoms: C_30  and  C_33
REMARK                            x       y       z     vdW  Elec       q    Type
REMARK                         _______ _______ _______ _____ _____    ______ ____
ROOT
ATOM      1  N   UNL     1      34.416 -15.201 -22.402  0.00  0.00    -0.261 N 
ATOM      2  N   UNL     1      34.011 -15.146 -20.218  0.00  0.00    -0.392 NA
ATOM      3  C   UNL     1      31.860 -12.245 -21.181  0.00  0.00    -0.017 C 
ATOM      4  C   UNL     1      33.551 -14.154 -22.217  0.00  0.00    +0.079 C 
ATOM      5  C   UNL     1      33.314 -14.140 -20.845  0.00  0.00    +0.128 C 
ATOM      6  C   UNL     1      34.662 -15.762 -21.180  0.00  0.00    +0.183 C 
ATOM      7  C   UNL     1      32.451 -13.169 -20.309  0.00  0.00    +0.084 C 
ATOM      8  C   UNL     1      32.118 -12.285 -22.553  0.00  0.00    -0.005 C 
ATOM      9  C   UNL     1      32.973 -13.245 -23.104  0.00  0.00    +0.017 C 
ATOM     10  C   UNL     1      34.968 -15.633 -23.667  0.00  0.00    +0.120 C 
ENDROOT
BRANCH   3  11
ATOM     11  C   UNL     1      30.939 -11.205 -20.633  0.00  0.00    +0.120 C 
BRANCH  11  12
ATOM     12  N   UNL     1      31.655  -9.974 -20.284  0.00  0.00    -0.260 N 
ATOM     13  N   UNL     1      32.687  -8.468 -19.050  0.00  0.00    -0.394 NA
ATOM     14  C   UNL     1      32.003  -8.994 -21.160  0.00  0.00    +0.079 C 
ATOM     15  C   UNL     1      32.074  -9.632 -19.042  0.00  0.00    +0.164 C 
ATOM     16  C   UNL     1      32.652  -8.056 -20.362  0.00  0.00    +0.128 C 
ATOM     17  C   UNL     1      31.822  -8.837 -22.534  0.00  0.00    +0.017 C 
ATOM     18  C   UNL     1      31.852 -10.486 -17.858  0.00  0.00    +0.084 C 
ATOM     19  C   UNL     1      33.156  -6.885 -20.954  0.00  0.00    +0.086 C 
ATOM     20  C   UNL     1      32.329  -7.666 -23.106  0.00  0.00    -0.003 C 
ATOM     21  C   UNL     1      32.985  -6.706 -22.332  0.00  0.00    -0.019 C 
ENDBRANCH  11  12
ENDBRANCH   3  11
BRANCH   6  22
ATOM     22  C   UNL     1      35.560 -16.922 -21.013  0.00  0.00    +0.164 C 
BRANCH  22  23
ATOM     23  N   UNL     1      35.056 -18.179 -21.555  0.00  0.00    -0.326 N 
ATOM     24  H   UNL     1      34.848 -18.224 -22.516  0.00  0.00    +0.147 HD
BRANCH  23  25
ATOM     25  C   UNL     1      34.856 -19.306 -20.787  0.00  0.00    +0.045 C 
ATOM     26  C   UNL     1      33.556 -19.787 -20.521  0.00  0.00    +0.014 C 
ATOM     27  C   UNL     1      35.944 -20.017 -20.238  0.00  0.00    +0.014 C 
ATOM     28  C   UNL     1      33.354 -20.926 -19.742  0.00  0.00    +0.004 C 
ATOM     29  C   UNL     1      35.742 -21.156 -19.459  0.00  0.00    +0.004 C 
ATOM     30  C   UNL     1      34.447 -21.610 -19.211  0.00  0.00    +0.031 C 
BRANCH  30  33
ATOM     31  N   UNL     1      34.328 -22.750 -17.008  0.00  0.00    -0.343 N 
ATOM     32  N   UNL     1      33.955 -23.951 -18.977  0.00  0.00    -0.285 NA
ATOM     33  C   UNL     1      34.236 -22.797 -18.397  0.00  0.00    +0.117 C 
ATOM     34  H   UNL     1      34.181 -23.566 -16.476  0.00  0.00    +0.144 HD
ATOM     35  H   UNL     1      34.539 -21.900 -16.557  0.00  0.00    +0.144 HD
ATOM     36  H   UNL     1      33.812 -24.756 -18.428  0.00  0.00    +0.188 HD
ENDBRANCH  30  33
ENDBRANCH  23  25
ENDBRANCH  22  23
ENDBRANCH   6  22
TORSDOF 6
ENDMDL
MODEL 2
REMARK VINA RESULT:     -11.4      1.235      1.916
REMARK  Name = 445756
REMARK  6 active torsions:
REMARK  status: ('A' for Active; 'I' for Inactive)
REMARK    1  A    between atoms: C_3  and  C_11
REMARK    2  A    between atoms: C_6  and  C_22
REMARK    3  A    between atoms: C_11  and  N_12
REMARK    4  A    between atoms: C_22  and  N_23
REMARK    5  A    between atoms: N_23  and  C_25
REMARK    6  A    between atoms: C_30  and  C_33
REMARK                            x       y       z     vdW  Elec       q    Type
REMARK                         _______ _______ _______ _____ _____    ______ ____
ROOT
ATOM      1  N   UNL     1      34.391 -15.127 -21.392  0.00  0.00    -0.261 N 
ATOM      2  N   UNL     1      33.988 -14.256 -23.397  0.00  0.00    -0.392 NA
ATOM      3  C   UNL     1      31.854 -11.913 -21.416  0.00  0.00    -0.017 C 
ATOM      4  C   UNL     1      33.533 -14.081 -21.171  0.00  0.00    +0.079 C 
ATOM      5  C   UNL     1      33.297 -13.553 -22.438  0.00  0.00    +0.128 C 
ATOM      6  C   UNL     1      34.633 -15.192 -22.736  0.00  0.00    +0.183 C 
ATOM      7  C   UNL     1      32.441 -12.447 -22.571  0.00  0.00    +0.084 C 
ATOM      8  C   UNL     1      32.111 -12.464 -20.159  0.00  0.00    -0.005 C 
ATOM      9  C   UNL     1      32.960 -13.565 -20.008  0.00  0.00    +0.017 C 
ATOM     10  C   UNL     1      34.940 -16.002 -20.382  0.00  0.00    +0.120 C 
ENDROOT
BRANCH   3  11
ATOM     11  C   UNL     1      30.942 -10.736 -21.534  0.00  0.00    +0.120 C 
BRANCH  11  12
ATOM     12  N   UNL     1      31.626  -9.483 -21.197  0.00  0.00    -0.260 N 
ATOM     13  N   UNL     1      32.406  -7.824 -19.975  0.00  0.00    -0.394 NA
ATOM     14  C   UNL     1      32.250  -8.666 -22.087  0.00  0.00    +0.079 C 
ATOM     15  C   UNL     1      31.736  -8.955 -19.955  0.00  0.00    +0.164 C 
ATOM     16  C   UNL     1      32.735  -7.628 -21.297  0.00  0.00    +0.128 C 
ATOM     17  C   UNL     1      32.436  -8.730 -23.469  0.00  0.00    +0.017 C 
ATOM     18  C   UNL     1      31.163  -9.600 -18.756  0.00  0.00    +0.084 C 
ATOM     19  C   UNL     1      33.450  -6.582 -21.905  0.00  0.00    +0.086 C 
ATOM     20  C   UNL     1      33.149  -7.679 -24.056  0.00  0.00    -0.003 C 
ATOM     21  C   UNL     1      33.648  -6.624 -23.290  0.00  0.00    -0.019 C 
ENDBRANCH  11  12
ENDBRANCH   3  11
BRANCH   6  22
ATOM     22  C   UNL     1      35.522 -16.213 -23.326  0.00  0.00    +0.164 C 
BRANCH  22  23
ATOM     23  N   UNL     1      35.001 -17.575 -23.308  0.00  0.00    -0.326 N 
ATOM     24  H   UNL     1      34.458 -17.878 -24.072  0.00  0.00    +0.147 HD
BRANCH  23  25
ATOM     25  C   UNL     1      35.229 -18.458 -22.275  0.00  0.00    +0.045 C 
ATOM     26  C   UNL     1      34.206 -19.304 -21.798  0.00  0.00    +0.014 C 
ATOM     27  C   UNL     1      36.494 -18.544 -21.656  0.00  0.00    +0.014 C 
ATOM     28  C   UNL     1      34.437 -20.196 -20.751  0.00  0.00    +0.004 C 
ATOM     29  C   UNL     1      36.725 -19.436 -20.609  0.00  0.00    +0.004 C 
ATOM     30  C   UNL     1      35.697 -20.261 -20.156  0.00  0.00    +0.031 C 
BRANCH  30  33
ATOM     31  N   UNL     1      36.784 -20.863 -18.006  0.00  0.00    -0.343 N 
ATOM     32  N   UNL     1      35.349 -22.374 -19.064  0.00  0.00    -0.285 NA
ATOM     33  C   UNL     1      35.937 -21.190 -19.063  0.00  0.00    +0.117 C 
ATOM     34  H   UNL     1      36.932 -21.507 -17.276  0.00  0.00    +0.144 HD
ATOM     35  H   UNL     1      37.234 -19.987 -17.989  0.00  0.00    +0.144 HD
ATOM     36  H   UNL     1      35.511 -23.004 -18.325  0.00  0.00    +0.188 HD
ENDBRANCH  30  33
ENDBRANCH  23  25
ENDBRANCH  22  23
ENDBRANCH   6  22
TORSDOF 6
ENDMDL
MODEL 3
REMARK VINA RESULT:     -11.4      2.348      4.585
REMARK  Name = 445756
REMARK  6 active torsions:
REMARK  status: ('A' for Active; 'I' for Inactive)
REMARK    1  A    between atoms: C_3  and  C_11
REMARK    2  A    between atoms: C_6  and  C_22
REMARK    3  A    between atoms: C_11  and  N_12
REMARK    4  A    between atoms: C_22  and  N_23
REMARK    5  A    between atoms: N_23  and  C_25
REMARK    6  A    between atoms: C_30  and  C_33
REMARK                            x       y       z     vdW  Elec       q    Type
REMARK                         _______ _______ _______ _____ _____    ______ ____
ROOT
ATOM      1  N   UNL     1      32.154 -12.537 -21.168  0.00  0.00    -0.261 N 
ATOM      2  N   UNL     1      32.531 -11.280 -22.961  0.00  0.00    -0.392 NA
ATOM      3  C   UNL     1      32.123  -8.498 -20.499  0.00  0.00    -0.017 C 
ATOM      4  C   UNL     1      32.099 -11.241 -20.724  0.00  0.00    +0.079 C 
ATOM      5  C   UNL     1      32.339 -10.475 -21.862  0.00  0.00    +0.128 C 
ATOM      6  C   UNL     1      32.413 -12.508 -22.510  0.00  0.00    +0.183 C 
ATOM      7  C   UNL     1      32.353  -9.074 -21.755  0.00  0.00    +0.084 C 
ATOM      8  C   UNL     1      31.887  -9.293 -19.375  0.00  0.00    -0.005 C 
ATOM      9  C   UNL     1      31.870 -10.689 -19.463  0.00  0.00    +0.017 C 
ATOM     10  C   UNL     1      31.969 -13.720 -20.358  0.00  0.00    +0.120 C 
ENDROOT
BRANCH   3  11
ATOM     11  C   UNL     1      32.134  -7.011 -20.361  0.00  0.00    +0.120 C 
BRANCH  11  12
ATOM     12  N   UNL     1      32.257  -6.345 -21.662  0.00  0.00    -0.260 N 
ATOM     13  N   UNL     1      31.712  -5.121 -23.411  0.00  0.00    -0.394 NA
ATOM     14  C   UNL     1      33.347  -6.402 -22.473  0.00  0.00    +0.079 C 
ATOM     15  C   UNL     1      31.305  -5.579 -22.248  0.00  0.00    +0.164 C 
ATOM     16  C   UNL     1      32.983  -5.624 -23.568  0.00  0.00    +0.128 C 
ATOM     17  C   UNL     1      34.583  -7.038 -22.361  0.00  0.00    +0.017 C 
ATOM     18  C   UNL     1      29.993  -5.314 -21.624  0.00  0.00    +0.084 C 
ATOM     19  C   UNL     1      33.895  -5.461 -24.625  0.00  0.00    +0.086 C 
ATOM     20  C   UNL     1      35.478  -6.865 -23.422  0.00  0.00    -0.003 C 
ATOM     21  C   UNL     1      35.142  -6.090 -24.535  0.00  0.00    -0.019 C 
ENDBRANCH  11  12
ENDBRANCH   3  11
BRANCH   6  22
ATOM     22  C   UNL     1      32.537 -13.742 -23.313  0.00  0.00    +0.164 C 
BRANCH  22  23
ATOM     23  N   UNL     1      33.904 -14.197 -23.544  0.00  0.00    -0.326 N 
ATOM     24  H   UNL     1      34.462 -13.695 -24.183  0.00  0.00    +0.147 HD
BRANCH  23  25
ATOM     25  C   UNL     1      34.452 -15.293 -22.915  0.00  0.00    +0.045 C 
ATOM     26  C   UNL     1      34.800 -16.453 -23.641  0.00  0.00    +0.014 C 
ATOM     27  C   UNL     1      34.682 -15.296 -21.523  0.00  0.00    +0.014 C 
ATOM     28  C   UNL     1      35.353 -17.563 -23.004  0.00  0.00    +0.004 C 
ATOM     29  C   UNL     1      35.234 -16.407 -20.886  0.00  0.00    +0.004 C 
ATOM     30  C   UNL     1      35.569 -17.540 -21.626  0.00  0.00    +0.031 C 
BRANCH  30  33
ATOM     31  N   UNL     1      35.338 -19.698 -20.419  0.00  0.00    -0.343 N 
ATOM     32  N   UNL     1      37.457 -18.816 -20.859  0.00  0.00    -0.285 NA
ATOM     33  C   UNL     1      36.144 -18.699 -20.961  0.00  0.00    +0.117 C 
ATOM     34  H   UNL     1      35.749 -20.475 -19.974  0.00  0.00    +0.144 HD
ATOM     35  H   UNL     1      34.358 -19.629 -20.483  0.00  0.00    +0.144 HD
ATOM     36  H   UNL     1      37.848 -19.599 -20.409  0.00  0.00    +0.188 HD
ENDBRANCH  30  33
ENDBRANCH  23  25
ENDBRANCH  22  23
ENDBRANCH   6  22
TORSDOF 6
ENDMDL
MODEL 4
REMARK VINA RESULT:     -11.2      1.976      2.661
REMARK  Name = 445756
REMARK  6 active torsions:
REMARK  status: ('A' for Active; 'I' for Inactive)
REMARK    1  A    between atoms: C_3  and  C_11
REMARK    2  A    between atoms: C_6  and  C_22
REMARK    3  A    between atoms: C_11  and  N_12
REMARK    4  A    between atoms: C_22  and  N_23
REMARK    5  A    between atoms: N_23  and  C_25
REMARK    6  A    between atoms: C_30  and  C_33
REMARK                            x       y       z     vdW  Elec       q    Type
REMARK                         _______ _______ _______ _____ _____    ______ ____
ROOT
ATOM      1  N   UNL     1      34.241 -16.998 -23.964  0.00  0.00    -0.261 N 
ATOM      2  N   UNL     1      35.334 -16.370 -22.133  0.00  0.00    -0.392 NA
ATOM      3  C   UNL     1      34.124 -12.985 -23.157  0.00  0.00    -0.017 C 
ATOM      4  C   UNL     1      34.075 -15.639 -23.886  0.00  0.00    +0.079 C 
ATOM      5  C   UNL     1      34.766 -15.272 -22.734  0.00  0.00    +0.128 C 
ATOM      6  C   UNL     1      35.001 -17.387 -22.896  0.00  0.00    +0.183 C 
ATOM      7  C   UNL     1      34.795 -13.919 -22.356  0.00  0.00    +0.084 C 
ATOM      8  C   UNL     1      33.439 -13.385 -24.306  0.00  0.00    -0.005 C 
ATOM      9  C   UNL     1      33.398 -14.727 -24.698  0.00  0.00    +0.017 C 
ATOM     10  C   UNL     1      33.708 -17.861 -24.994  0.00  0.00    +0.120 C 
ENDROOT
BRANCH   3  11
ATOM     11  C   UNL     1      34.142 -11.542 -22.772  0.00  0.00    +0.120 C 
BRANCH  11  12
ATOM     12  N   UNL     1      32.787 -11.011 -22.595  0.00  0.00    -0.260 N 
ATOM     13  N   UNL     1      30.706 -10.863 -21.885  0.00  0.00    -0.394 NA
ATOM     14  C   UNL     1      32.313  -9.867 -23.158  0.00  0.00    +0.079 C 
ATOM     15  C   UNL     1      31.810 -11.577 -21.847  0.00  0.00    +0.164 C 
ATOM     16  C   UNL     1      31.001  -9.793 -22.698  0.00  0.00    +0.128 C 
ATOM     17  C   UNL     1      32.885  -8.914 -24.002  0.00  0.00    +0.017 C 
ATOM     18  C   UNL     1      32.002 -12.835 -21.098  0.00  0.00    +0.084 C 
ATOM     19  C   UNL     1      30.198  -8.710 -23.093  0.00  0.00    +0.086 C 
ATOM     20  C   UNL     1      32.070  -7.844 -24.385  0.00  0.00    -0.003 C 
ATOM     21  C   UNL     1      30.750  -7.742 -23.940  0.00  0.00    -0.019 C 
ENDBRANCH  11  12
ENDBRANCH   3  11
BRANCH   6  22
ATOM     22  C   UNL     1      35.375 -18.798 -22.671  0.00  0.00    +0.164 C 
BRANCH  22  23
ATOM     23  N   UNL     1      35.870 -19.103 -21.334  0.00  0.00    -0.326 N 
ATOM     24  H   UNL     1      36.692 -18.655 -21.026  0.00  0.00    +0.147 HD
BRANCH  23  25
ATOM     25  C   UNL     1      35.247 -19.988 -20.481  0.00  0.00    +0.045 C 
ATOM     26  C   UNL     1      35.994 -20.837 -19.636  0.00  0.00    +0.014 C 
ATOM     27  C   UNL     1      33.840 -20.077 -20.423  0.00  0.00    +0.014 C 
ATOM     28  C   UNL     1      35.363 -21.734 -18.774  0.00  0.00    +0.004 C 
ATOM     29  C   UNL     1      33.209 -20.974 -19.562  0.00  0.00    +0.004 C 
ATOM     30  C   UNL     1      33.971 -21.802 -18.738  0.00  0.00    +0.031 C 
BRANCH  30  33
ATOM     31  N   UNL     1      32.015 -22.516 -17.384  0.00  0.00    -0.343 N 
ATOM     32  N   UNL     1      33.950 -23.824 -17.438  0.00  0.00    -0.285 NA
ATOM     33  C   UNL     1      33.313 -22.739 -17.840  0.00  0.00    +0.117 C 
ATOM     34  H   UNL     1      31.588 -23.163 -16.777  0.00  0.00    +0.144 HD
ATOM     35  H   UNL     1      31.524 -21.711 -17.669  0.00  0.00    +0.144 HD
ATOM     36  H   UNL     1      33.506 -24.460 -16.831  0.00  0.00    +0.188 HD
ENDBRANCH  30  33
ENDBRANCH  23  25
ENDBRANCH  22  23
ENDBRANCH   6  22
TORSDOF 6
ENDMDL
MODEL 5
REMARK VINA RESULT:     -11.2      2.595      5.183
REMARK  Name = 445756
REMARK  6 active torsions:
REMARK  status: ('A' for Active; 'I' for Inactive)
REMARK    1  A    between atoms: C_3  and  C_11
REMARK    2  A    between atoms: C_6  and  C_22
REMARK    3  A    between atoms: C_11  and  N_12
REMARK    4  A    between atoms: C_22  and  N_23
REMARK    5  A    between atoms: N_23  and  C_25
REMARK    6  A    between atoms: C_30  and  C_33
REMARK                            x       y       z     vdW  Elec       q    Type
REMARK                         _______ _______ _______ _____ _____    ______ ____
ROOT
ATOM      1  N   UNL     1      32.177 -11.639 -21.645  0.00  0.00    -0.261 N 
ATOM      2  N   UNL     1      33.176 -10.798 -23.444  0.00  0.00    -0.392 NA
ATOM      3  C   UNL     1      32.703  -7.579 -21.605  0.00  0.00    -0.017 C 
ATOM      4  C   UNL     1      32.251 -10.288 -21.425  0.00  0.00    +0.079 C 
ATOM      5  C   UNL     1      32.878  -9.785 -22.562  0.00  0.00    +0.128 C 
ATOM      6  C   UNL     1      32.742 -11.895 -22.864  0.00  0.00    +0.183 C 
ATOM      7  C   UNL     1      33.113  -8.404 -22.661  0.00  0.00    +0.084 C 
ATOM      8  C   UNL     1      32.077  -8.113 -20.477  0.00  0.00    -0.005 C 
ATOM      9  C   UNL     1      31.836  -9.485 -20.361  0.00  0.00    +0.017 C 
ATOM     10  C   UNL     1      31.605 -12.616 -20.747  0.00  0.00    +0.120 C 
ENDROOT
BRANCH   3  11
ATOM     11  C   UNL     1      32.944  -6.107 -21.688  0.00  0.00    +0.120 C 
BRANCH  11  12
ATOM     12  N   UNL     1      32.204  -5.497 -22.797  0.00  0.00    -0.260 N 
ATOM     13  N   UNL     1      30.538  -4.570 -23.902  0.00  0.00    -0.394 NA
ATOM     14  C   UNL     1      32.703  -5.270 -24.042  0.00  0.00    +0.079 C 
ATOM     15  C   UNL     1      30.919  -5.072 -22.748  0.00  0.00    +0.164 C 
ATOM     16  C   UNL     1      31.637  -4.685 -24.721  0.00  0.00    +0.128 C 
ATOM     17  C   UNL     1      33.946  -5.509 -24.627  0.00  0.00    +0.017 C 
ATOM     18  C   UNL     1      30.087  -5.175 -21.532  0.00  0.00    +0.084 C 
ATOM     19  C   UNL     1      31.806  -4.311 -26.065  0.00  0.00    +0.086 C 
ATOM     20  C   UNL     1      34.095  -5.131 -25.965  0.00  0.00    -0.003 C 
ATOM     21  C   UNL     1      33.045  -4.542 -26.674  0.00  0.00    -0.019 C 
ENDBRANCH  11  12
ENDBRANCH   3  11
BRANCH   6  22
ATOM     22  C   UNL     1      32.830 -13.261 -23.418  0.00  0.00    +0.164 C 
BRANCH  22  23
ATOM     23  N   UNL     1      34.179 -13.809 -23.507  0.00  0.00    -0.326 N 
ATOM     24  H   UNL     1      34.854 -13.308 -24.020  0.00  0.00    +0.147 HD
BRANCH  23  25
ATOM     25  C   UNL     1      34.554 -14.993 -22.911  0.00  0.00    +0.045 C 
ATOM     26  C   UNL     1      34.662 -15.102 -21.508  0.00  0.00    +0.014 C 
ATOM     27  C   UNL     1      34.845 -16.138 -23.682  0.00  0.00    +0.014 C 
ATOM     28  C   UNL     1      35.044 -16.300 -20.905  0.00  0.00    +0.004 C 
ATOM     29  C   UNL     1      35.227 -17.336 -23.080  0.00  0.00    +0.004 C 
ATOM     30  C   UNL     1      35.327 -17.417 -21.691  0.00  0.00    +0.031 C 
BRANCH  30  33
ATOM     31  N   UNL     1      34.911 -19.795 -21.111  0.00  0.00    -0.343 N 
ATOM     32  N   UNL     1      36.881 -18.743 -20.425  0.00  0.00    -0.285 NA
ATOM     33  C   UNL     1      35.726 -18.666 -21.062  0.00  0.00    +0.117 C 
ATOM     34  H   UNL     1      35.202 -20.631 -20.679  0.00  0.00    +0.144 HD
ATOM     35  H   UNL     1      34.046 -19.758 -21.579  0.00  0.00    +0.144 HD
ATOM     36  H   UNL     1      37.154 -19.588 -19.999  0.00  0.00    +0.188 HD
ENDBRANCH  30  33
ENDBRANCH  23  25
ENDBRANCH  22  23
ENDBRANCH   6  22
TORSDOF 6
ENDMDL
MODEL 6
REMARK VINA RESULT:     -11.1      1.466      2.741
REMARK  Name = 445756
REMARK  6 active torsions:
REMARK  status: ('A' for Active; 'I' for Inactive)
REMARK    1  A    between atoms: C_3  and  C_11
REMARK    2  A    between atoms: C_6  and  C_22
REMARK    3  A    between atoms: C_11  and  N_12
REMARK    4  A    between atoms: C_22  and  N_23
REMARK    5  A    between atoms: N_23  and  C_25
REMARK    6  A    between atoms: C_30  and  C_33
REMARK                            x       y       z     vdW  Elec       q    Type
REMARK                         _______ _______ _______ _____ _____    ______ ____
ROOT
ATOM      1  N   UNL     1      34.325 -15.015 -21.250  0.00  0.00    -0.261 N 
ATOM      2  N   UNL     1      34.174 -14.457 -23.396  0.00  0.00    -0.392 NA
ATOM      3  C   UNL     1      31.871 -11.838 -22.053  0.00  0.00    -0.017 C 
ATOM      4  C   UNL     1      33.468 -13.946 -21.291  0.00  0.00    +0.079 C 
ATOM      5  C   UNL     1      33.390 -13.616 -22.641  0.00  0.00    +0.128 C 
ATOM      6  C   UNL     1      34.720 -15.283 -22.531  0.00  0.00    +0.183 C 
ATOM      7  C   UNL     1      32.577 -12.541 -23.038  0.00  0.00    +0.084 C 
ATOM      8  C   UNL     1      31.970 -12.192 -20.706  0.00  0.00    -0.005 C 
ATOM      9  C   UNL     1      32.775 -13.259 -20.293  0.00  0.00    +0.017 C 
ATOM     10  C   UNL     1      34.737 -15.728 -20.062  0.00  0.00    +0.120 C 
ENDROOT
BRANCH   3  11
ATOM     11  C   UNL     1      31.002 -10.690 -22.452  0.00  0.00    +0.120 C 
BRANCH  11  12
ATOM     12  N   UNL     1      31.751  -9.431 -22.498  0.00  0.00    -0.260 N 
ATOM     13  N   UNL     1      32.857  -7.719 -23.335  0.00  0.00    -0.394 NA
ATOM     14  C   UNL     1      32.076  -8.672 -21.417  0.00  0.00    +0.079 C 
ATOM     15  C   UNL     1      32.229  -8.838 -23.618  0.00  0.00    +0.164 C 
ATOM     16  C   UNL     1      32.772  -7.599 -21.967  0.00  0.00    +0.128 C 
ATOM     17  C   UNL     1      31.837  -8.811 -20.050  0.00  0.00    +0.017 C 
ATOM     18  C   UNL     1      32.045  -9.410 -24.968  0.00  0.00    +0.084 C 
ATOM     19  C   UNL     1      33.266  -6.596 -21.115  0.00  0.00    +0.086 C 
ATOM     20  C   UNL     1      32.338  -7.804 -19.218  0.00  0.00    -0.003 C 
ATOM     21  C   UNL     1      33.039  -6.715 -19.739  0.00  0.00    -0.019 C 
ENDBRANCH  11  12
ENDBRANCH   3  11
BRANCH   6  22
ATOM     22  C   UNL     1      35.652 -16.383 -22.853  0.00  0.00    +0.164 C 
BRANCH  22  23
ATOM     23  N   UNL     1      35.053 -17.712 -22.891  0.00  0.00    -0.326 N 
ATOM     24  H   UNL     1      34.495 -17.952 -23.666  0.00  0.00    +0.147 HD
BRANCH  23  25
ATOM     25  C   UNL     1      35.227 -18.648 -21.895  0.00  0.00    +0.045 C 
ATOM     26  C   UNL     1      36.468 -18.792 -21.237  0.00  0.00    +0.014 C 
ATOM     27  C   UNL     1      34.172 -19.497 -21.499  0.00  0.00    +0.014 C 
ATOM     28  C   UNL     1      36.645 -19.741 -20.231  0.00  0.00    +0.004 C 
ATOM     29  C   UNL     1      34.349 -20.446 -20.492  0.00  0.00    +0.004 C 
ATOM     30  C   UNL     1      35.585 -20.568 -19.859  0.00  0.00    +0.031 C 
BRANCH  30  33
ATOM     31  N   UNL     1      36.761 -21.413 -17.842  0.00  0.00    -0.343 N 
ATOM     32  N   UNL     1      34.990 -22.625 -18.766  0.00  0.00    -0.285 NA
ATOM     33  C   UNL     1      35.770 -21.559 -18.810  0.00  0.00    +0.117 C 
ATOM     34  H   UNL     1      36.869 -22.096 -17.140  0.00  0.00    +0.144 HD
ATOM     35  H   UNL     1      37.354 -20.627 -17.858  0.00  0.00    +0.144 HD
ATOM     36  H   UNL     1      35.114 -23.297 -18.057  0.00  0.00    +0.188 HD
ENDBRANCH  30  33
ENDBRANCH  23  25
ENDBRANCH  22  23
ENDBRANCH   6  22
TORSDOF 6
ENDMDL
MODEL 7
REMARK VINA RESULT:     -11.1      1.650      2.450
REMARK  Name = 445756
REMARK  6 active torsions:
REMARK  status: ('A' for Active; 'I' for Inactive)
REMARK    1  A    between atoms: C_3  and  C_11
REMARK    2  A    between atoms: C_6  and  C_22
REMARK    3  A    between atoms: C_11  and  N_12
REMARK    4  A    between atoms: C_22  and  N_23
REMARK    5  A    between atoms: N_23  and  C_25
REMARK    6  A    between atoms: C_30  and  C_33
REMARK                            x       y       z     vdW  Elec       q    Type
REMARK                         _______ _______ _______ _____ _____    ______ ____
ROOT
ATOM      1  N   UNL     1      34.864 -16.013 -21.723  0.00  0.00    -0.261 N 
ATOM      2  N   UNL     1      34.533 -16.100 -23.919  0.00  0.00    -0.392 NA
ATOM      3  C   UNL     1      33.368 -12.588 -23.393  0.00  0.00    -0.017 C 
ATOM      4  C   UNL     1      34.368 -14.782 -22.067  0.00  0.00    +0.079 C 
ATOM      5  C   UNL     1      34.170 -14.862 -23.443  0.00  0.00    +0.128 C 
ATOM      6  C   UNL     1      34.944 -16.765 -22.862  0.00  0.00    +0.183 C 
ATOM      7  C   UNL     1      33.660 -13.745 -24.127  0.00  0.00    +0.084 C 
ATOM      8  C   UNL     1      33.578 -12.539 -22.014  0.00  0.00    -0.005 C 
ATOM      9  C   UNL     1      34.085 -13.640 -21.317  0.00  0.00    +0.017 C 
ATOM     10  C   UNL     1      35.235 -16.437 -20.391  0.00  0.00    +0.120 C 
ENDROOT
BRANCH   3  11
ATOM     11  C   UNL     1      32.826 -11.389 -24.101  0.00  0.00    +0.120 C 
BRANCH  11  12
ATOM     12  N   UNL     1      32.722 -10.231 -23.207  0.00  0.00    -0.260 N 
ATOM     13  N   UNL     1      31.909  -8.882 -21.667  0.00  0.00    -0.394 NA
ATOM     14  C   UNL     1      33.621  -9.214 -23.134  0.00  0.00    +0.079 C 
ATOM     15  C   UNL     1      31.719 -10.004 -22.325  0.00  0.00    +0.164 C 
ATOM     16  C   UNL     1      33.090  -8.375 -22.158  0.00  0.00    +0.128 C 
ATOM     17  C   UNL     1      34.815  -8.949 -23.806  0.00  0.00    +0.017 C 
ATOM     18  C   UNL     1      30.578 -10.925 -22.154  0.00  0.00    +0.084 C 
ATOM     19  C   UNL     1      33.779  -7.198 -21.819  0.00  0.00    +0.086 C 
ATOM     20  C   UNL     1      35.486  -7.773 -23.456  0.00  0.00    -0.003 C 
ATOM     21  C   UNL     1      34.979  -6.911 -22.481  0.00  0.00    -0.019 C 
ENDBRANCH  11  12
ENDBRANCH   3  11
BRANCH   6  22
ATOM     22  C   UNL     1      35.440 -18.156 -22.852  0.00  0.00    +0.164 C 
BRANCH  22  23
ATOM     23  N   UNL     1      34.451 -19.165 -22.491  0.00  0.00    -0.326 N 
ATOM     24  H   UNL     1      33.687 -19.309 -23.097  0.00  0.00    +0.147 HD
BRANCH  23  25
ATOM     25  C   UNL     1      34.530 -19.925 -21.344  0.00  0.00    +0.045 C 
ATOM     26  C   UNL     1      33.369 -20.297 -20.633  0.00  0.00    +0.014 C 
ATOM     27  C   UNL     1      35.775 -20.355 -20.839  0.00  0.00    +0.014 C 
ATOM     28  C   UNL     1      33.450 -21.064 -19.471  0.00  0.00    +0.004 C 
ATOM     29  C   UNL     1      35.856 -21.122 -19.677  0.00  0.00    +0.004 C 
ATOM     30  C   UNL     1      34.694 -21.476 -18.993  0.00  0.00    +0.031 C 
BRANCH  30  33
ATOM     31  N   UNL     1      33.670 -22.957 -17.283  0.00  0.00    -0.343 N 
ATOM     32  N   UNL     1      35.924 -22.359 -17.127  0.00  0.00    -0.285 NA
ATOM     33  C   UNL     1      34.778 -22.274 -17.781  0.00  0.00    +0.117 C 
ATOM     34  H   UNL     1      33.750 -23.492 -16.460  0.00  0.00    +0.144 HD
ATOM     35  H   UNL     1      32.807 -22.904 -17.754  0.00  0.00    +0.144 HD
ATOM     36  H   UNL     1      35.983 -22.899 -16.305  0.00  0.00    +0.188 HD
ENDBRANCH  30  33
ENDBRANCH  23  25
ENDBRANCH  22  23
ENDBRANCH   6  22
TORSDOF 6
ENDMDL
MODEL 8
REMARK VINA RESULT:     -11.0      4.839      8.501
REMARK  Name = 445756
REMARK  6 active torsions:
REMARK  status: ('A' for Active; 'I' for Inactive)
REMARK    1  A    between atoms: C_3  and  C_11
REMARK    2  A    between atoms: C_6  and  C_22
REMARK    3  A    between atoms: C_11  and  N_12
REMARK    4  A    between atoms: C_22  and  N_23
REMARK    5  A    between atoms: N_23  and  C_25
REMARK    6  A    between atoms: C_30  and  C_33
REMARK                            x       y       z     vdW  Elec       q    Type
REMARK                         _______ _______ _______ _____ _____    ______ ____
ROOT
ATOM      1  N   UNL     1      33.162 -22.002 -18.177  0.00  0.00    -0.261 N 
ATOM      2  N   UNL     1      35.356 -22.356 -18.229  0.00  0.00    -0.392 NA
ATOM      3  C   UNL     1      35.221 -19.769 -20.923  0.00  0.00    -0.017 C 
ATOM      4  C   UNL     1      33.645 -21.166 -19.150  0.00  0.00    +0.079 C 
ATOM      5  C   UNL     1      35.017 -21.405 -19.163  0.00  0.00    +0.128 C 
ATOM      6  C   UNL     1      34.221 -22.693 -17.657  0.00  0.00    +0.183 C 
ATOM      7  C   UNL     1      35.828 -20.696 -20.065  0.00  0.00    +0.084 C 
ATOM      8  C   UNL     1      33.842 -19.551 -20.886  0.00  0.00    -0.005 C 
ATOM      9  C   UNL     1      33.020 -20.247 -19.995  0.00  0.00    +0.017 C 
ATOM     10  C   UNL     1      31.779 -22.129 -17.776  0.00  0.00    +0.120 C 
ENDROOT
BRANCH   3  11
ATOM     11  C   UNL     1      36.064 -19.004 -21.889  0.00  0.00    +0.120 C 
BRANCH  11  12
ATOM     12  N   UNL     1      35.255 -18.381 -22.942  0.00  0.00    -0.260 N 
ATOM     13  N   UNL     1      34.047 -18.194 -24.776  0.00  0.00    -0.394 NA
ATOM     14  C   UNL     1      34.923 -17.064 -23.000  0.00  0.00    +0.079 C 
ATOM     15  C   UNL     1      34.721 -19.022 -24.010  0.00  0.00    +0.164 C 
ATOM     16  C   UNL     1      34.162 -16.967 -24.162  0.00  0.00    +0.128 C 
ATOM     17  C   UNL     1      35.202 -15.974 -22.174  0.00  0.00    +0.017 C 
ATOM     18  C   UNL     1      34.897 -20.470 -24.244  0.00  0.00    +0.084 C 
ATOM     19  C   UNL     1      33.642 -15.717 -24.537  0.00  0.00    +0.086 C 
ATOM     20  C   UNL     1      34.677 -14.738 -22.564  0.00  0.00    -0.003 C 
ATOM     21  C   UNL     1      33.910 -14.610 -23.724  0.00  0.00    -0.019 C 
ENDBRANCH  11  12
ENDBRANCH   3  11
BRANCH   6  22
ATOM     22  C   UNL     1      34.057 -23.689 -16.579  0.00  0.00    +0.164 C 
BRANCH  22  23
ATOM     23  N   UNL     1      34.759 -23.382 -15.338  0.00  0.00    -0.326 N 
ATOM     24  H   UNL     1      34.316 -22.795 -14.683  0.00  0.00    +0.147 HD
BRANCH  23  25
ATOM     25  C   UNL     1      36.012 -23.871 -15.038  0.00  0.00    +0.045 C 
ATOM     26  C   UNL     1      37.169 -23.089 -15.241  0.00  0.00    +0.014 C 
ATOM     27  C   UNL     1      36.181 -25.173 -14.520  0.00  0.00    +0.014 C 
ATOM     28  C   UNL     1      38.437 -23.585 -14.939  0.00  0.00    +0.004 C 
ATOM     29  C   UNL     1      37.449 -25.669 -14.218  0.00  0.00    +0.004 C 
ATOM     30  C   UNL     1      38.577 -24.876 -14.428  0.00  0.00    +0.031 C 
BRANCH  30  33
ATOM     31  N   UNL     1      40.064 -26.616 -13.467  0.00  0.00    -0.343 N 
ATOM     32  N   UNL     1      40.973 -24.698 -14.443  0.00  0.00    -0.285 NA
ATOM     33  C   UNL     1      39.899 -25.394 -14.115  0.00  0.00    +0.117 C 
ATOM     34  H   UNL     1      40.969 -26.948 -13.265  0.00  0.00    +0.144 HD
ATOM     35  H   UNL     1      39.276 -27.149 -13.212  0.00  0.00    +0.144 HD
ATOM     36  H   UNL     1      41.870 -25.047 -14.231  0.00  0.00    +0.188 HD
ENDBRANCH  30  33
ENDBRANCH  23  25
ENDBRANCH  22  23
ENDBRANCH   6  22
TORSDOF 6
ENDMDL
MODEL 9
REMARK VINA RESULT:     -10.9      1.777      2.646
REMARK  Name = 445756
REMARK  6 active torsions:
REMARK  status: ('A' for Active; 'I' for Inactive)
REMARK    1  A    between atoms: C_3  and  C_11
REMARK    2  A    between atoms: C_6  and  C_22
REMARK    3  A    between atoms: C_11  and  N_12
REMARK    4  A    between atoms: C_22  and  N_23
REMARK    5  A    between atoms: N_23  and  C_25
REMARK    6  A    between atoms: C_30  and  C_33
REMARK                            x       y       z     vdW  Elec       q    Type
REMARK                         _______ _______ _______ _____ _____    ______ ____
ROOT
ATOM      1  N   UNL     1      34.197 -14.911 -21.176  0.00  0.00    -0.261 N 
ATOM      2  N   UNL     1      35.029 -14.771 -23.232  0.00  0.00    -0.392 NA
ATOM      3  C   UNL     1      33.114 -11.562 -23.267  0.00  0.00    -0.017 C 
ATOM      4  C   UNL     1      33.716 -13.733 -21.686  0.00  0.00    +0.079 C 
ATOM      5  C   UNL     1      34.250 -13.669 -22.971  0.00  0.00    +0.128 C 
ATOM      6  C   UNL     1      34.976 -15.495 -22.136  0.00  0.00    +0.183 C 
ATOM      7  C   UNL     1      33.947 -12.563 -23.783  0.00  0.00    +0.084 C 
ATOM      8  C   UNL     1      32.594 -11.655 -21.975  0.00  0.00    -0.005 C 
ATOM      9  C   UNL     1      32.885 -12.747 -21.151  0.00  0.00    +0.017 C 
ATOM     10  C   UNL     1      33.927 -15.438 -19.857  0.00  0.00    +0.120 C 
ENDROOT
BRANCH   3  11
ATOM     11  C   UNL     1      32.780 -10.378 -24.114  0.00  0.00    +0.120 C 
BRANCH  11  12
ATOM     12  N   UNL     1      33.289  -9.132 -23.531  0.00  0.00    -0.260 N 
ATOM     13  N   UNL     1      34.732  -7.601 -22.876  0.00  0.00    -0.394 NA
ATOM     14  C   UNL     1      32.523  -8.151 -22.986  0.00  0.00    +0.079 C 
ATOM     15  C   UNL     1      34.594  -8.776 -23.450  0.00  0.00    +0.164 C 
ATOM     16  C   UNL     1      33.451  -7.196 -22.579  0.00  0.00    +0.128 C 
ATOM     17  C   UNL     1      31.146  -8.004 -22.812  0.00  0.00    +0.017 C 
ATOM     18  C   UNL     1      35.690  -9.627 -23.955  0.00  0.00    +0.084 C 
ATOM     19  C   UNL     1      32.996  -6.019 -21.961  0.00  0.00    +0.086 C 
ATOM     20  C   UNL     1      30.712  -6.827 -22.193  0.00  0.00    -0.003 C 
ATOM     21  C   UNL     1      31.619  -5.850 -21.775  0.00  0.00    -0.019 C 
ENDBRANCH  11  12
ENDBRANCH   3  11
BRANCH   6  22
ATOM     22  C   UNL     1      35.655 -16.788 -21.917  0.00  0.00    +0.164 C 
BRANCH  22  23
ATOM     23  N   UNL     1      34.823 -17.968 -22.120  0.00  0.00    -0.326 N 
ATOM     24  H   UNL     1      34.259 -18.010 -22.926  0.00  0.00    +0.147 HD
BRANCH  23  25
ATOM     25  C   UNL     1      34.785 -19.027 -21.238  0.00  0.00    +0.045 C 
ATOM     26  C   UNL     1      33.560 -19.614 -20.854  0.00  0.00    +0.014 C 
ATOM     27  C   UNL     1      35.969 -19.558 -20.685  0.00  0.00    +0.014 C 
ATOM     28  C   UNL     1      33.522 -20.683 -19.960  0.00  0.00    +0.004 C 
ATOM     29  C   UNL     1      35.931 -20.627 -19.791  0.00  0.00    +0.004 C 
ATOM     30  C   UNL     1      34.707 -21.190 -19.428  0.00  0.00    +0.031 C 
BRANCH  30  33
ATOM     31  N   UNL     1      33.681 -23.285 -18.578  0.00  0.00    -0.343 N 
ATOM     32  N   UNL     1      35.578 -22.397 -17.542  0.00  0.00    -0.285 NA
ATOM     33  C   UNL     1      34.668 -22.304 -18.495  0.00  0.00    +0.117 C 
ATOM     34  H   UNL     1      33.673 -24.031 -17.935  0.00  0.00    +0.144 HD
ATOM     35  H   UNL     1      32.992 -23.232 -19.279  0.00  0.00    +0.144 HD
ATOM     36  H   UNL     1      35.553 -23.151 -16.908  0.00  0.00    +0.188 HD
ENDBRANCH  30  33
ENDBRANCH  23  25
ENDBRANCH  22  23
ENDBRANCH   6  22
TORSDOF 6
ENDMDL
