MODEL 1
REMARK VINA RESULT:     -11.4      0.000      0.000
REMARK  Name = 2754
REMARK  7 active torsions:
REMARK  status: ('A' for Active; 'I' for Inactive)
REMARK    1  A    between atoms: C_1  and  C_2
REMARK    2  A    between atoms: C_1  and  C_15
REMARK    3  A    between atoms: C_2  and  C_3
REMARK    4  A    between atoms: C_3  and  C_8
REMARK    5  A    between atoms: N_4  and  C_9
REMARK    6  A    between atoms: C_15  and  O_16
REMARK    7  A    between atoms: O_16  and  C_23
REMARK                            x       y       z     vdW  Elec       q    Type
REMARK                         _______ _______ _______ _____ _____    ______ ____
ROOT
ATOM      1  C   UNL     1      33.824 -22.644 -18.918  0.00  0.00    +0.048 C 
ENDROOT
BRANCH   1   2
ATOM      2  C   UNL     1      33.306 -21.215 -19.077  0.00  0.00    +0.012 C 
BRANCH   2   3
ATOM      3  C   UNL     1      33.801 -20.588 -20.382  0.00  0.00    +0.068 C 
BRANCH   3   8
ATOM      4  N   UNL     1      35.597 -18.950 -20.949  0.00  0.00    -0.219 N 
ATOM      5  N   UNL     1      36.851 -18.653 -20.583  0.00  0.00    -0.043 NA
ATOM      6  N   UNL     1      36.097 -20.390 -19.406  0.00  0.00    -0.113 NA
ATOM      7  N   UNL     1      37.152 -19.536 -19.639  0.00  0.00    -0.023 NA
ATOM      8  C   UNL     1      35.179 -19.994 -20.223  0.00  0.00    +0.161 A 
BRANCH   4   9
ATOM      9  C   UNL     1      34.907 -18.176 -21.988  0.00  0.00    +0.108 C 
ATOM     10  C   UNL     1      34.867 -18.915 -23.337  0.00  0.00    +0.024 C 
ATOM     11  C   UNL     1      35.485 -16.757 -22.139  0.00  0.00    +0.024 C 
ATOM     12  C   UNL     1      34.119 -18.105 -24.393  0.00  0.00    +0.002 C 
ATOM     13  C   UNL     1      34.732 -15.961 -23.203  0.00  0.00    +0.002 C 
ATOM     14  C   UNL     1      34.697 -16.700 -24.539  0.00  0.00    +0.000 C 
ENDBRANCH   4   9
ENDBRANCH   3   8
ENDBRANCH   2   3
ENDBRANCH   1   2
BRANCH   1  15
ATOM     15  C   UNL     1      33.678 -23.138 -17.486  0.00  0.00    +0.205 C 
BRANCH  15  16
ATOM     16  O   UNL     1      34.913 -22.937 -16.801  0.00  0.00    -0.475 OA
BRANCH  16  23
ATOM     17  O   UNL     1      36.154 -24.391  -9.404  0.00  0.00    -0.275 OA
ATOM     18  N   UNL     1      35.055 -24.300 -11.418  0.00  0.00    -0.284 N 
ATOM     19  C   UNL     1      36.173 -23.436 -13.397  0.00  0.00    -0.005 C 
ATOM     20  C   UNL     1      37.452 -23.349 -12.616  0.00  0.00    +0.037 C 
ATOM     21  C   UNL     1      35.024 -23.947 -12.779  0.00  0.00    +0.046 C 
ATOM     22  C   UNL     1      37.171 -23.093 -11.143  0.00  0.00    +0.090 C 
ATOM     23  C   UNL     1      34.954 -23.284 -15.485  0.00  0.00    +0.138 C 
ATOM     24  C   UNL     1      36.133 -23.112 -14.757  0.00  0.00    +0.034 C 
ATOM     25  C   UNL     1      36.110 -24.013 -10.573  0.00  0.00    +0.226 C 
ATOM     26  C   UNL     1      33.851 -24.138 -13.512  0.00  0.00    +0.017 C 
ATOM     27  C   UNL     1      33.817 -23.798 -14.865  0.00  0.00    +0.038 C 
ATOM     28  H   UNL     1      34.280 -24.780 -11.046  0.00  0.00    +0.155 HD
ENDBRANCH  16  23
ENDBRANCH  15  16
ENDBRANCH   1  15
TORSDOF 7
ENDMDL
MODEL 2
REMARK VINA RESULT:     -11.2      2.163      2.575
REMARK  Name = 2754
REMARK  7 active torsions:
REMARK  status: ('A' for Active; 'I' for Inactive)
REMARK    1  A    between atoms: C_1  and  C_2
REMARK    2  A    between atoms: C_1  and  C_15
REMARK    3  A    between atoms: C_2  and  C_3
REMARK    4  A    between atoms: C_3  and  C_8
REMARK    5  A    between atoms: N_4  and  C_9
REMARK    6  A    between atoms: C_15  and  O_16
REMARK    7  A    between atoms: O_16  and  C_23
REMARK                            x       y       z     vdW  Elec       q    Type
REMARK                         _______ _______ _______ _____ _____    ______ ____
ROOT
ATOM      1  C   UNL     1      33.118 -22.086 -18.055  0.00  0.00    +0.048 C 
ENDROOT
BRANCH   1   2
ATOM      2  C   UNL     1      34.030 -22.123 -19.280  0.00  0.00    +0.012 C 
BRANCH   2   3
ATOM      3  C   UNL     1      34.042 -20.774 -20.004  0.00  0.00    +0.068 C 
BRANCH   3   8
ATOM      4  N   UNL     1      35.763 -19.165 -20.826  0.00  0.00    -0.219 N 
ATOM      5  N   UNL     1      37.034 -18.823 -20.574  0.00  0.00    -0.043 NA
ATOM      6  N   UNL     1      36.396 -20.467 -19.211  0.00  0.00    -0.113 NA
ATOM      7  N   UNL     1      37.416 -19.622 -19.585  0.00  0.00    -0.023 NA
ATOM      8  C   UNL     1      35.416 -20.152 -19.990  0.00  0.00    +0.161 A 
BRANCH   4   9
ATOM      9  C   UNL     1      34.989 -18.487 -21.874  0.00  0.00    +0.108 C 
ATOM     10  C   UNL     1      34.877 -19.332 -23.155  0.00  0.00    +0.024 C 
ATOM     11  C   UNL     1      35.523 -17.075 -22.172  0.00  0.00    +0.024 C 
ATOM     12  C   UNL     1      34.043 -18.621 -24.218  0.00  0.00    +0.002 C 
ATOM     13  C   UNL     1      34.684 -16.380 -23.242  0.00  0.00    +0.002 C 
ATOM     14  C   UNL     1      34.578 -17.221 -24.511  0.00  0.00    +0.000 C 
ENDBRANCH   4   9
ENDBRANCH   3   8
ENDBRANCH   2   3
ENDBRANCH   1   2
BRANCH   1  15
ATOM     15  C   UNL     1      33.341 -23.292 -17.153  0.00  0.00    +0.205 C 
BRANCH  15  16
ATOM     16  O   UNL     1      33.852 -22.842 -15.900  0.00  0.00    -0.475 OA
BRANCH  16  23
ATOM     17  O   UNL     1      40.653 -25.657 -13.850  0.00  0.00    -0.275 OA
ATOM     18  N   UNL     1      39.110 -24.208 -14.740  0.00  0.00    -0.284 N 
ATOM     19  C   UNL     1      36.731 -24.685 -14.582  0.00  0.00    -0.005 C 
ATOM     20  C   UNL     1      37.045 -25.868 -13.711  0.00  0.00    +0.037 C 
ATOM     21  C   UNL     1      37.777 -23.871 -15.036  0.00  0.00    +0.046 C 
ATOM     22  C   UNL     1      38.403 -26.455 -14.061  0.00  0.00    +0.090 C 
ATOM     23  C   UNL     1      35.140 -23.171 -15.602  0.00  0.00    +0.138 C 
ATOM     24  C   UNL     1      35.410 -24.324 -14.864  0.00  0.00    +0.034 C 
ATOM     25  C   UNL     1      39.492 -25.407 -14.169  0.00  0.00    +0.226 C 
ATOM     26  C   UNL     1      37.507 -22.707 -15.758  0.00  0.00    +0.017 C 
ATOM     27  C   UNL     1      36.186 -22.363 -16.046  0.00  0.00    +0.038 C 
ATOM     28  H   UNL     1      39.813 -23.551 -14.953  0.00  0.00    +0.155 HD
ENDBRANCH  16  23
ENDBRANCH  15  16
ENDBRANCH   1  15
TORSDOF 7
ENDMDL
MODEL 3
REMARK VINA RESULT:     -11.1      3.607      5.604
REMARK  Name = 2754
REMARK  7 active torsions:
REMARK  status: ('A' for Active; 'I' for Inactive)
REMARK    1  A    between atoms: C_1  and  C_2
REMARK    2  A    between atoms: C_1  and  C_15
REMARK    3  A    between atoms: C_2  and  C_3
REMARK    4  A    between atoms: C_3  and  C_8
REMARK    5  A    between atoms: N_4  and  C_9
REMARK    6  A    between atoms: C_15  and  O_16
REMARK    7  A    between atoms: O_16  and  C_23
REMARK                            x       y       z     vdW  Elec       q    Type
REMARK                         _______ _______ _______ _____ _____    ______ ____
ROOT
ATOM      1  C   UNL     1      35.406 -17.880 -21.151  0.00  0.00    +0.048 C 
ENDROOT
BRANCH   1   2
ATOM      2  C   UNL     1      35.471 -17.331 -22.576  0.00  0.00    +0.012 C 
BRANCH   2   3
ATOM      3  C   UNL     1      35.032 -15.865 -22.626  0.00  0.00    +0.068 C 
BRANCH   3   8
ATOM      4  N   UNL     1      33.629 -14.401 -24.080  0.00  0.00    -0.219 N 
ATOM      5  N   UNL     1      33.065 -14.420 -25.296  0.00  0.00    -0.043 NA
ATOM      6  N   UNL     1      34.167 -16.323 -24.929  0.00  0.00    -0.113 NA
ATOM      7  N   UNL     1      33.398 -15.597 -25.811  0.00  0.00    -0.023 NA
ATOM      8  C   UNL     1      34.280 -15.557 -23.896  0.00  0.00    +0.161 A 
BRANCH   4   9
ATOM      9  C   UNL     1      33.481 -13.240 -23.194  0.00  0.00    +0.108 C 
ATOM     10  C   UNL     1      32.294 -13.391 -22.228  0.00  0.00    +0.024 C 
ATOM     11  C   UNL     1      33.411 -11.916 -23.975  0.00  0.00    +0.024 C 
ATOM     12  C   UNL     1      32.179 -12.185 -21.296  0.00  0.00    +0.002 C 
ATOM     13  C   UNL     1      33.289 -10.721 -23.031  0.00  0.00    +0.002 C 
ATOM     14  C   UNL     1      32.108 -10.875 -22.076  0.00  0.00    +0.000 C 
ENDBRANCH   4   9
ENDBRANCH   3   8
ENDBRANCH   2   3
ENDBRANCH   1   2
BRANCH   1  15
ATOM     15  C   UNL     1      34.790 -19.271 -21.113  0.00  0.00    +0.205 C 
BRANCH  15  16
ATOM     16  O   UNL     1      35.758 -20.191 -20.614  0.00  0.00    -0.475 OA
BRANCH  16  23
ATOM     17  O   UNL     1      34.662 -24.262 -14.241  0.00  0.00    -0.275 OA
ATOM     18  N   UNL     1      34.219 -23.314 -16.285  0.00  0.00    -0.284 N 
ATOM     19  C   UNL     1      35.920 -22.016 -17.441  0.00  0.00    -0.005 C 
ATOM     20  C   UNL     1      36.911 -22.406 -16.382  0.00  0.00    +0.037 C 
ATOM     21  C   UNL     1      34.613 -22.518 -17.376  0.00  0.00    +0.046 C 
ATOM     22  C   UNL     1      36.219 -22.626 -15.046  0.00  0.00    +0.090 C 
ATOM     23  C   UNL     1      35.387 -20.968 -19.559  0.00  0.00    +0.138 C 
ATOM     24  C   UNL     1      36.303 -21.245 -18.543  0.00  0.00    +0.034 C 
ATOM     25  C   UNL     1      34.989 -23.504 -15.154  0.00  0.00    +0.226 C 
ATOM     26  C   UNL     1      33.702 -22.259 -18.402  0.00  0.00    +0.017 C 
ATOM     27  C   UNL     1      34.091 -21.476 -19.490  0.00  0.00    +0.038 C 
ATOM     28  H   UNL     1      33.344 -23.763 -16.332  0.00  0.00    +0.155 HD
ENDBRANCH  16  23
ENDBRANCH  15  16
ENDBRANCH   1  15
TORSDOF 7
ENDMDL
MODEL 4
REMARK VINA RESULT:     -11.1      3.880      7.186
REMARK  Name = 2754
REMARK  7 active torsions:
REMARK  status: ('A' for Active; 'I' for Inactive)
REMARK    1  A    between atoms: C_1  and  C_2
REMARK    2  A    between atoms: C_1  and  C_15
REMARK    3  A    between atoms: C_2  and  C_3
REMARK    4  A    between atoms: C_3  and  C_8
REMARK    5  A    between atoms: N_4  and  C_9
REMARK    6  A    between atoms: C_15  and  O_16
REMARK    7  A    between atoms: O_16  and  C_23
REMARK                            x       y       z     vdW  Elec       q    Type
REMARK                         _______ _______ _______ _____ _____    ______ ____
ROOT
ATOM      1  C   UNL     1      34.163 -17.439 -24.651  0.00  0.00    +0.048 C 
ENDROOT
BRANCH   1   2
ATOM      2  C   UNL     1      34.931 -16.190 -24.220  0.00  0.00    +0.012 C 
BRANCH   2   3
ATOM      3  C   UNL     1      33.976 -15.070 -23.799  0.00  0.00    +0.068 C 
BRANCH   3   8
ATOM      4  N   UNL     1      33.523 -13.690 -21.769  0.00  0.00    -0.219 N 
ATOM      5  N   UNL     1      33.813 -13.685 -20.461  0.00  0.00    -0.043 NA
ATOM      6  N   UNL     1      34.756 -15.446 -21.450  0.00  0.00    -0.113 NA
ATOM      7  N   UNL     1      34.567 -14.761 -20.271  0.00  0.00    -0.023 NA
ATOM      8  C   UNL     1      34.104 -14.759 -22.328  0.00  0.00    +0.161 A 
BRANCH   4   9
ATOM      9  C   UNL     1      32.691 -12.638 -22.365  0.00  0.00    +0.108 C 
ATOM     10  C   UNL     1      33.529 -11.581 -23.105  0.00  0.00    +0.024 C 
ATOM     11  C   UNL     1      31.744 -11.992 -21.338  0.00  0.00    +0.024 C 
ATOM     12  C   UNL     1      32.640 -10.514 -23.742  0.00  0.00    +0.002 C 
ATOM     13  C   UNL     1      30.868 -10.923 -21.988  0.00  0.00    +0.002 C 
ATOM     14  C   UNL     1      31.704  -9.875 -22.719  0.00  0.00    +0.000 C 
ENDBRANCH   4   9
ENDBRANCH   3   8
ENDBRANCH   2   3
ENDBRANCH   1   2
BRANCH   1  15
ATOM     15  C   UNL     1      34.449 -18.617 -23.732  0.00  0.00    +0.205 C 
BRANCH  15  16
ATOM     16  O   UNL     1      35.482 -18.252 -22.819  0.00  0.00    -0.475 OA
BRANCH  16  23
ATOM     17  O   UNL     1      35.249 -22.934 -16.786  0.00  0.00    -0.275 OA
ATOM     18  N   UNL     1      36.090 -21.431 -18.305  0.00  0.00    -0.284 N 
ATOM     19  C   UNL     1      34.679 -20.543 -20.076  0.00  0.00    -0.005 C 
ATOM     20  C   UNL     1      33.499 -21.238 -19.460  0.00  0.00    +0.037 C 
ATOM     21  C   UNL     1      35.931 -20.633 -19.452  0.00  0.00    +0.046 C 
ATOM     22  C   UNL     1      33.931 -22.508 -18.743  0.00  0.00    +0.090 C 
ATOM     23  C   UNL     1      35.625 -19.020 -21.705  0.00  0.00    +0.138 C 
ATOM     24  C   UNL     1      34.532 -19.727 -21.202  0.00  0.00    +0.034 C 
ATOM     25  C   UNL     1      35.123 -22.297 -17.831  0.00  0.00    +0.226 C 
ATOM     26  C   UNL     1      37.020 -19.911 -19.943  0.00  0.00    +0.017 C 
ATOM     27  C   UNL     1      36.866 -19.110 -21.075  0.00  0.00    +0.038 C 
ATOM     28  H   UNL     1      36.940 -21.369 -17.812  0.00  0.00    +0.155 HD
ENDBRANCH  16  23
ENDBRANCH  15  16
ENDBRANCH   1  15
TORSDOF 7
ENDMDL
MODEL 5
REMARK VINA RESULT:     -11.0      6.627     12.094
REMARK  Name = 2754
REMARK  7 active torsions:
REMARK  status: ('A' for Active; 'I' for Inactive)
REMARK    1  A    between atoms: C_1  and  C_2
REMARK    2  A    between atoms: C_1  and  C_15
REMARK    3  A    between atoms: C_2  and  C_3
REMARK    4  A    between atoms: C_3  and  C_8
REMARK    5  A    between atoms: N_4  and  C_9
REMARK    6  A    between atoms: C_15  and  O_16
REMARK    7  A    between atoms: O_16  and  C_23
REMARK                            x       y       z     vdW  Elec       q    Type
REMARK                         _______ _______ _______ _____ _____    ______ ____
ROOT
ATOM      1  C   UNL     1      34.185 -14.181 -20.816  0.00  0.00    +0.048 C 
ENDROOT
BRANCH   1   2
ATOM      2  C   UNL     1      34.080 -14.608 -22.280  0.00  0.00    +0.012 C 
BRANCH   2   3
ATOM      3  C   UNL     1      35.236 -15.533 -22.672  0.00  0.00    +0.068 C 
BRANCH   3   8
ATOM      4  N   UNL     1      34.756 -17.953 -23.047  0.00  0.00    -0.219 N 
ATOM      5  N   UNL     1      34.275 -18.755 -24.007  0.00  0.00    -0.043 NA
ATOM      6  N   UNL     1      34.300 -16.640 -24.711  0.00  0.00    -0.113 NA
ATOM      7  N   UNL     1      33.997 -17.947 -25.022  0.00  0.00    -0.023 NA
ATOM      8  C   UNL     1      34.755 -16.695 -23.505  0.00  0.00    +0.161 A 
BRANCH   4   9
ATOM      9  C   UNL     1      35.179 -18.494 -21.749  0.00  0.00    +0.108 C 
ATOM     10  C   UNL     1      36.704 -18.669 -21.658  0.00  0.00    +0.024 C 
ATOM     11  C   UNL     1      34.438 -19.794 -21.389  0.00  0.00    +0.024 C 
ATOM     12  C   UNL     1      37.122 -19.203 -20.289  0.00  0.00    +0.002 C 
ATOM     13  C   UNL     1      34.871 -20.320 -20.022  0.00  0.00    +0.002 C 
ATOM     14  C   UNL     1      36.386 -20.493 -19.939  0.00  0.00    +0.000 C 
ENDBRANCH   4   9
ENDBRANCH   3   8
ENDBRANCH   2   3
ENDBRANCH   1   2
BRANCH   1  15
ATOM     15  C   UNL     1      32.826 -14.188 -20.131  0.00  0.00    +0.205 C 
BRANCH  15  16
ATOM     16  O   UNL     1      31.921 -13.393 -20.894  0.00  0.00    -0.475 OA
BRANCH  16  23
ATOM     17  O   UNL     1      31.826  -5.754 -20.769  0.00  0.00    -0.275 OA
ATOM     18  N   UNL     1      31.950  -7.911 -19.993  0.00  0.00    -0.284 N 
ATOM     19  C   UNL     1      31.887  -9.787 -21.540  0.00  0.00    -0.005 C 
ATOM     20  C   UNL     1      31.934  -8.819 -22.687  0.00  0.00    +0.037 C 
ATOM     21  C   UNL     1      31.936  -9.299 -20.228  0.00  0.00    +0.046 C 
ATOM     22  C   UNL     1      31.272  -7.501 -22.313  0.00  0.00    +0.090 C 
ATOM     23  C   UNL     1      31.942 -12.049 -20.676  0.00  0.00    +0.138 C 
ATOM     24  C   UNL     1      31.897 -11.168 -21.758  0.00  0.00    +0.034 C 
ATOM     25  C   UNL     1      31.738  -6.963 -20.975  0.00  0.00    +0.226 C 
ATOM     26  C   UNL     1      32.002 -10.179 -19.146  0.00  0.00    +0.017 C 
ATOM     27  C   UNL     1      31.997 -11.555 -19.373  0.00  0.00    +0.038 C 
ATOM     28  H   UNL     1      32.122  -7.599 -19.075  0.00  0.00    +0.155 HD
ENDBRANCH  16  23
ENDBRANCH  15  16
ENDBRANCH   1  15
TORSDOF 7
ENDMDL
MODEL 6
REMARK VINA RESULT:     -11.0      2.584      9.428
REMARK  Name = 2754
REMARK  7 active torsions:
REMARK  status: ('A' for Active; 'I' for Inactive)
REMARK    1  A    between atoms: C_1  and  C_2
REMARK    2  A    between atoms: C_1  and  C_15
REMARK    3  A    between atoms: C_2  and  C_3
REMARK    4  A    between atoms: C_3  and  C_8
REMARK    5  A    between atoms: N_4  and  C_9
REMARK    6  A    between atoms: C_15  and  O_16
REMARK    7  A    between atoms: O_16  and  C_23
REMARK                            x       y       z     vdW  Elec       q    Type
REMARK                         _______ _______ _______ _____ _____    ______ ____
ROOT
ATOM      1  C   UNL     1      32.622 -23.081 -15.349  0.00  0.00    +0.048 C 
ENDROOT
BRANCH   1   2
ATOM      2  C   UNL     1      33.086 -23.751 -14.056  0.00  0.00    +0.012 C 
BRANCH   2   3
ATOM      3  C   UNL     1      34.602 -23.963 -14.054  0.00  0.00    +0.068 C 
BRANCH   3   8
ATOM      4  N   UNL     1      36.306 -25.004 -12.557  0.00  0.00    -0.219 N 
ATOM      5  N   UNL     1      36.444 -25.363 -11.273  0.00  0.00    -0.043 NA
ATOM      6  N   UNL     1      34.428 -24.474 -11.610  0.00  0.00    -0.113 NA
ATOM      7  N   UNL     1      35.293 -25.036 -10.699  0.00  0.00    -0.023 NA
ATOM      8  C   UNL     1      35.087 -24.475 -12.721  0.00  0.00    +0.161 A 
BRANCH   4   9
ATOM      9  C   UNL     1      37.392 -25.211 -13.523  0.00  0.00    +0.108 C 
ATOM     10  C   UNL     1      38.572 -25.990 -12.917  0.00  0.00    +0.024 C 
ATOM     11  C   UNL     1      37.856 -23.894 -14.169  0.00  0.00    +0.024 C 
ATOM     12  C   UNL     1      39.675 -26.219 -13.948  0.00  0.00    +0.002 C 
ATOM     13  C   UNL     1      38.964 -24.138 -15.192  0.00  0.00    +0.002 C 
ATOM     14  C   UNL     1      40.133 -24.909 -14.585  0.00  0.00    +0.000 C 
ENDBRANCH   4   9
ENDBRANCH   3   8
ENDBRANCH   2   3
ENDBRANCH   1   2
BRANCH   1  15
ATOM     15  C   UNL     1      33.229 -23.747 -16.575  0.00  0.00    +0.205 C 
BRANCH  15  16
ATOM     16  O   UNL     1      32.936 -22.954 -17.723  0.00  0.00    -0.475 OA
BRANCH  16  23
ATOM     17  O   UNL     1      37.913 -18.436 -21.358  0.00  0.00    -0.275 OA
ATOM     18  N   UNL     1      37.119 -19.996 -19.871  0.00  0.00    -0.284 N 
ATOM     19  C   UNL     1      34.777 -20.649 -19.897  0.00  0.00    -0.005 C 
ATOM     20  C   UNL     1      34.579 -19.823 -21.135  0.00  0.00    +0.037 C 
ATOM     21  C   UNL     1      36.054 -20.737 -19.328  0.00  0.00    +0.046 C 
ATOM     22  C   UNL     1      35.532 -18.638 -21.156  0.00  0.00    +0.090 C 
ATOM     23  C   UNL     1      33.963 -22.239 -18.260  0.00  0.00    +0.138 C 
ATOM     24  C   UNL     1      33.734 -21.410 -19.360  0.00  0.00    +0.034 C 
ATOM     25  C   UNL     1      36.964 -19.025 -20.841  0.00  0.00    +0.226 C 
ATOM     26  C   UNL     1      36.289 -21.582 -18.241  0.00  0.00    +0.017 C 
ATOM     27  C   UNL     1      35.238 -22.326 -17.704  0.00  0.00    +0.038 C 
ATOM     28  H   UNL     1      38.028 -20.180 -19.540  0.00  0.00    +0.155 HD
ENDBRANCH  16  23
ENDBRANCH  15  16
ENDBRANCH   1  15
TORSDOF 7
ENDMDL
MODEL 7
REMARK VINA RESULT:     -10.8      2.445      9.284
REMARK  Name = 2754
REMARK  7 active torsions:
REMARK  status: ('A' for Active; 'I' for Inactive)
REMARK    1  A    between atoms: C_1  and  C_2
REMARK    2  A    between atoms: C_1  and  C_15
REMARK    3  A    between atoms: C_2  and  C_3
REMARK    4  A    between atoms: C_3  and  C_8
REMARK    5  A    between atoms: N_4  and  C_9
REMARK    6  A    between atoms: C_15  and  O_16
REMARK    7  A    between atoms: O_16  and  C_23
REMARK                            x       y       z     vdW  Elec       q    Type
REMARK                         _______ _______ _______ _____ _____    ______ ____
ROOT
ATOM      1  C   UNL     1      36.895 -22.570 -15.153  0.00  0.00    +0.048 C 
ENDROOT
BRANCH   1   2
ATOM      2  C   UNL     1      37.445 -23.977 -14.923  0.00  0.00    +0.012 C 
BRANCH   2   3
ATOM      3  C   UNL     1      36.332 -24.951 -14.528  0.00  0.00    +0.068 C 
BRANCH   3   8
ATOM      4  N   UNL     1      34.388 -24.322 -13.096  0.00  0.00    -0.219 N 
ATOM      5  N   UNL     1      34.128 -24.007 -11.819  0.00  0.00    -0.043 NA
ATOM      6  N   UNL     1      36.302 -24.422 -12.083  0.00  0.00    -0.113 NA
ATOM      7  N   UNL     1      35.302 -24.070 -11.203  0.00  0.00    -0.023 NA
ATOM      8  C   UNL     1      35.699 -24.564 -13.215  0.00  0.00    +0.161 A 
BRANCH   4   9
ATOM      9  C   UNL     1      33.317 -24.360 -14.099  0.00  0.00    +0.108 C 
ATOM     10  C   UNL     1      33.265 -23.077 -14.946  0.00  0.00    +0.024 C 
ATOM     11  C   UNL     1      31.947 -24.683 -13.478  0.00  0.00    +0.024 C 
ATOM     12  C   UNL     1      32.164 -23.153 -16.003  0.00  0.00    +0.002 C 
ATOM     13  C   UNL     1      30.855 -24.749 -14.545  0.00  0.00    +0.002 C 
ATOM     14  C   UNL     1      30.807 -23.472 -15.381  0.00  0.00    +0.000 C 
ENDBRANCH   4   9
ENDBRANCH   3   8
ENDBRANCH   2   3
ENDBRANCH   1   2
BRANCH   1  15
ATOM     15  C   UNL     1      37.056 -22.135 -16.602  0.00  0.00    +0.205 C 
BRANCH  15  16
ATOM     16  O   UNL     1      35.900 -22.535 -17.335  0.00  0.00    -0.475 OA
BRANCH  16  23
ATOM     17  O   UNL     1      34.847 -17.825 -23.259  0.00  0.00    -0.275 OA
ATOM     18  N   UNL     1      34.348 -19.337 -21.604  0.00  0.00    -0.284 N 
ATOM     19  C   UNL     1      36.067 -20.086 -20.055  0.00  0.00    -0.005 C 
ATOM     20  C   UNL     1      37.016 -19.087 -20.653  0.00  0.00    +0.037 C 
ATOM     21  C   UNL     1      34.749 -20.149 -20.527  0.00  0.00    +0.046 C 
ATOM     22  C   UNL     1      36.694 -18.844 -22.119  0.00  0.00    +0.090 C 
ATOM     23  C   UNL     1      35.518 -21.740 -18.372  0.00  0.00    +0.138 C 
ATOM     24  C   UNL     1      36.444 -20.882 -18.969  0.00  0.00    +0.034 C 
ATOM     25  C   UNL     1      35.221 -18.586 -22.367  0.00  0.00    +0.226 C 
ATOM     26  C   UNL     1      33.817 -20.991 -19.918  0.00  0.00    +0.017 C 
ATOM     27  C   UNL     1      34.207 -21.792 -18.844  0.00  0.00    +0.038 C 
ATOM     28  H   UNL     1      33.389 -19.301 -21.825  0.00  0.00    +0.155 HD
ENDBRANCH  16  23
ENDBRANCH  15  16
ENDBRANCH   1  15
TORSDOF 7
ENDMDL
MODEL 8
REMARK VINA RESULT:     -10.8      7.437     11.887
REMARK  Name = 2754
REMARK  7 active torsions:
REMARK  status: ('A' for Active; 'I' for Inactive)
REMARK    1  A    between atoms: C_1  and  C_2
REMARK    2  A    between atoms: C_1  and  C_15
REMARK    3  A    between atoms: C_2  and  C_3
REMARK    4  A    between atoms: C_3  and  C_8
REMARK    5  A    between atoms: N_4  and  C_9
REMARK    6  A    between atoms: C_15  and  O_16
REMARK    7  A    between atoms: O_16  and  C_23
REMARK                            x       y       z     vdW  Elec       q    Type
REMARK                         _______ _______ _______ _____ _____    ______ ____
ROOT
ATOM      1  C   UNL     1      33.145 -10.642 -23.856  0.00  0.00    +0.048 C 
ENDROOT
BRANCH   1   2
ATOM      2  C   UNL     1      32.358 -10.631 -22.547  0.00  0.00    +0.012 C 
BRANCH   2   3
ATOM      3  C   UNL     1      31.725  -9.261 -22.291  0.00  0.00    +0.068 C 
BRANCH   3   8
ATOM      4  N   UNL     1      32.962  -7.606 -20.891  0.00  0.00    -0.219 N 
ATOM      5  N   UNL     1      33.181  -7.335 -19.597  0.00  0.00    -0.043 NA
ATOM      6  N   UNL     1      31.867  -9.125 -19.796  0.00  0.00    -0.113 NA
ATOM      7  N   UNL     1      32.509  -8.266 -18.932  0.00  0.00    -0.023 NA
ATOM      8  C   UNL     1      32.171  -8.684 -20.971  0.00  0.00    +0.161 A 
BRANCH   4   9
ATOM      9  C   UNL     1      33.551  -6.777 -21.949  0.00  0.00    +0.108 C 
ATOM     10  C   UNL     1      32.494  -6.250 -22.935  0.00  0.00    +0.024 C 
ATOM     11  C   UNL     1      34.699  -7.493 -22.681  0.00  0.00    +0.024 C 
ATOM     12  C   UNL     1      33.126  -5.366 -24.008  0.00  0.00    +0.002 C 
ATOM     13  C   UNL     1      35.316  -6.600 -23.755  0.00  0.00    +0.002 C 
ATOM     14  C   UNL     1      34.263  -6.082 -24.732  0.00  0.00    +0.000 C 
ENDBRANCH   4   9
ENDBRANCH   3   8
ENDBRANCH   2   3
ENDBRANCH   1   2
BRANCH   1  15
ATOM     15  C   UNL     1      34.218 -11.722 -23.857  0.00  0.00    +0.205 C 
BRANCH  15  16
ATOM     16  O   UNL     1      33.591 -12.994 -24.013  0.00  0.00    -0.475 OA
BRANCH  16  23
ATOM     17  O   UNL     1      36.117 -19.178 -20.304  0.00  0.00    -0.275 OA
ATOM     18  N   UNL     1      35.329 -17.047 -20.635  0.00  0.00    -0.284 N 
ATOM     19  C   UNL     1      34.758 -16.273 -22.869  0.00  0.00    -0.005 C 
ATOM     20  C   UNL     1      34.996 -17.661 -23.391  0.00  0.00    +0.037 C 
ATOM     21  C   UNL     1      34.896 -16.023 -21.497  0.00  0.00    +0.046 C 
ATOM     22  C   UNL     1      36.051 -18.378 -22.563  0.00  0.00    +0.090 C 
ATOM     23  C   UNL     1      34.004 -13.993 -23.185  0.00  0.00    +0.138 C 
ATOM     24  C   UNL     1      34.303 -15.252 -23.709  0.00  0.00    +0.034 C 
ATOM     25  C   UNL     1      35.810 -18.266 -21.071  0.00  0.00    +0.226 C 
ATOM     26  C   UNL     1      34.577 -14.770 -20.969  0.00  0.00    +0.017 C 
ATOM     27  C   UNL     1      34.138 -13.753 -21.818  0.00  0.00    +0.038 C 
ATOM     28  H   UNL     1      35.287 -16.884 -19.665  0.00  0.00    +0.155 HD
ENDBRANCH  16  23
ENDBRANCH  15  16
ENDBRANCH   1  15
TORSDOF 7
ENDMDL
MODEL 9
REMARK VINA RESULT:     -10.7      3.824     10.530
REMARK  Name = 2754
REMARK  7 active torsions:
REMARK  status: ('A' for Active; 'I' for Inactive)
REMARK    1  A    between atoms: C_1  and  C_2
REMARK    2  A    between atoms: C_1  and  C_15
REMARK    3  A    between atoms: C_2  and  C_3
REMARK    4  A    between atoms: C_3  and  C_8
REMARK    5  A    between atoms: N_4  and  C_9
REMARK    6  A    between atoms: C_15  and  O_16
REMARK    7  A    between atoms: O_16  and  C_23
REMARK                            x       y       z     vdW  Elec       q    Type
REMARK                         _______ _______ _______ _____ _____    ______ ____
ROOT
ATOM      1  C   UNL     1      36.620 -20.389 -19.584  0.00  0.00    +0.048 C 
ENDROOT
BRANCH   1   2
ATOM      2  C   UNL     1      35.165 -20.850 -19.654  0.00  0.00    +0.012 C 
BRANCH   2   3
ATOM      3  C   UNL     1      35.016 -22.294 -19.169  0.00  0.00    +0.068 C 
BRANCH   3   8
ATOM      4  N   UNL     1      33.987 -22.899 -16.978  0.00  0.00    -0.219 N 
ATOM      5  N   UNL     1      32.780 -22.917 -16.394  0.00  0.00    -0.043 NA
ATOM      6  N   UNL     1      32.612 -22.167 -18.486  0.00  0.00    -0.113 NA
ATOM      7  N   UNL     1      31.943 -22.468 -17.321  0.00  0.00    -0.023 NA
ATOM      8  C   UNL     1      33.846 -22.444 -18.229  0.00  0.00    +0.161 A 
BRANCH   4   9
ATOM      9  C   UNL     1      35.186 -23.333 -16.251  0.00  0.00    +0.108 C 
ATOM     10  C   UNL     1      34.843 -24.083 -14.953  0.00  0.00    +0.024 C 
ATOM     11  C   UNL     1      36.163 -22.173 -15.993  0.00  0.00    +0.024 C 
ATOM     12  C   UNL     1      36.105 -24.551 -14.231  0.00  0.00    +0.002 C 
ATOM     13  C   UNL     1      37.417 -22.654 -15.265  0.00  0.00    +0.002 C 
ATOM     14  C   UNL     1      37.070 -23.396 -13.976  0.00  0.00    +0.000 C 
ENDBRANCH   4   9
ENDBRANCH   3   8
ENDBRANCH   2   3
ENDBRANCH   1   2
BRANCH   1  15
ATOM     15  C   UNL     1      36.895 -19.249 -20.554  0.00  0.00    +0.205 C 
BRANCH  15  16
ATOM     16  O   UNL     1      35.779 -19.110 -21.431  0.00  0.00    -0.475 OA
BRANCH  16  23
ATOM     17  O   UNL     1      33.374 -12.403 -24.191  0.00  0.00    -0.275 OA
ATOM     18  N   UNL     1      34.132 -13.953 -22.675  0.00  0.00    -0.284 N 
ATOM     19  C   UNL     1      34.666 -16.216 -23.384  0.00  0.00    -0.005 C 
ATOM     20  C   UNL     1      34.438 -15.805 -24.810  0.00  0.00    +0.037 C 
ATOM     21  C   UNL     1      34.542 -15.262 -22.366  0.00  0.00    +0.046 C 
ATOM     22  C   UNL     1      33.402 -14.694 -24.895  0.00  0.00    +0.090 C 
ATOM     23  C   UNL     1      35.388 -17.843 -21.740  0.00  0.00    +0.138 C 
ATOM     24  C   UNL     1      35.098 -17.508 -23.063  0.00  0.00    +0.034 C 
ATOM     25  C   UNL     1      33.660 -13.567 -23.915  0.00  0.00    +0.226 C 
ATOM     26  C   UNL     1      34.852 -15.591 -21.044  0.00  0.00    +0.017 C 
ATOM     27  C   UNL     1      35.269 -16.886 -20.733  0.00  0.00    +0.038 C 
ATOM     28  H   UNL     1      34.184 -13.271 -21.966  0.00  0.00    +0.155 HD
ENDBRANCH  16  23
ENDBRANCH  15  16
ENDBRANCH   1  15
TORSDOF 7
ENDMDL
