MODEL 1
REMARK VINA RESULT:     -11.3      0.000      0.000
REMARK  Name = 25134248
REMARK  7 active torsions:
REMARK  status: ('A' for Active; 'I' for Inactive)
REMARK    1  A    between atoms: N_2  and  C_20
REMARK    2  A    between atoms: C_3  and  C_7
REMARK    3  A    between atoms: C_11  and  C_12
REMARK    4  A    between atoms: C_12  and  C_13
REMARK    5  A    between atoms: C_13  and  C_14
REMARK    6  A    between atoms: C_20  and  C_21
REMARK    7  A    between atoms: C_26  and  C_29
REMARK                            x       y       z     vdW  Elec       q    Type
REMARK                         _______ _______ _______ _____ _____    ______ ____
ROOT
ATOM      1  O   UNL     1      35.082 -23.844 -12.695  0.00  0.00    -0.273 OA
ATOM      2  N   UNL     1      33.563 -25.079 -13.954  0.00  0.00    -0.299 N 
ATOM      3  C   UNL     1      34.803 -24.531 -13.673  0.00  0.00    +0.241 C 
ATOM      4  H   UNL     1      33.462 -25.615 -14.774  0.00  0.00    +0.150 HD
ENDROOT
BRANCH   3   7
ATOM      5  O   UNL     1      37.006 -21.734 -16.177  0.00  0.00    -0.275 OA
ATOM      6  N   UNL     1      36.601 -23.688 -15.012  0.00  0.00    -0.273 N 
ATOM      7  C   UNL     1      35.828 -24.889 -14.708  0.00  0.00    +0.152 C 
ATOM      8  C   UNL     1      36.851 -25.866 -14.136  0.00  0.00    +0.031 C 
ATOM      9  C   UNL     1      37.931 -23.756 -14.420  0.00  0.00    +0.094 C 
ATOM     10  C   UNL     1      37.888 -24.954 -13.486  0.00  0.00    +0.024 C 
ATOM     11  C   UNL     1      36.247 -22.653 -15.863  0.00  0.00    +0.226 C 
BRANCH  11  12
ATOM     12  C   UNL     1      34.843 -22.695 -16.411  0.00  0.00    +0.085 C 
BRANCH  12  13
ATOM     13  C   UNL     1      34.868 -22.843 -17.923  0.00  0.00    +0.010 C 
BRANCH  13  14
ATOM     14  C   UNL     1      34.699 -21.512 -18.652  0.00  0.00    +0.000 C 
ATOM     15  C   UNL     1      35.878 -21.261 -19.602  0.00  0.00    +0.000 C 
ATOM     16  C   UNL     1      33.367 -21.476 -19.414  0.00  0.00    +0.000 C 
ATOM     17  C   UNL     1      35.706 -19.960 -20.383  0.00  0.00    +0.000 C 
ATOM     18  C   UNL     1      33.200 -20.175 -20.195  0.00  0.00    +0.000 C 
ATOM     19  C   UNL     1      34.378 -19.924 -21.131  0.00  0.00    +0.000 C 
ENDBRANCH  13  14
ENDBRANCH  12  13
ENDBRANCH  11  12
ENDBRANCH   3   7
BRANCH   2  20
ATOM     20  C   UNL     1      32.410 -24.903 -13.101  0.00  0.00    +0.116 C 
BRANCH  20  21
ATOM     21  C   UNL     1      31.211 -24.425 -13.868  0.00  0.00    -0.003 C 
ATOM     22  C   UNL     1      30.140 -25.290 -14.096  0.00  0.00    -0.003 C 
ATOM     23  C   UNL     1      31.165 -23.118 -14.351  0.00  0.00    -0.003 C 
ATOM     24  C   UNL     1      29.025 -24.847 -14.808  0.00  0.00    +0.002 C 
ATOM     25  C   UNL     1      30.051 -22.675 -15.063  0.00  0.00    +0.002 C 
ATOM     26  C   UNL     1      28.980 -23.539 -15.291  0.00  0.00    +0.031 C 
BRANCH  26  29
ATOM     27  N   UNL     1      26.825 -22.313 -15.421  0.00  0.00    -0.343 N 
ATOM     28  N   UNL     1      27.686 -23.385 -17.310  0.00  0.00    -0.285 NA
ATOM     29  C   UNL     1      27.817 -23.077 -16.032  0.00  0.00    +0.117 C 
ATOM     30  H   UNL     1      26.046 -22.011 -15.941  0.00  0.00    +0.144 HD
ATOM     31  H   UNL     1      26.903 -22.076 -14.468  0.00  0.00    +0.144 HD
ATOM     32  H   UNL     1      26.900 -23.073 -17.814  0.00  0.00    +0.188 HD
ENDBRANCH  26  29
ENDBRANCH  20  21
ENDBRANCH   2  20
TORSDOF 7
ENDMDL
MODEL 2
REMARK VINA RESULT:     -11.2      2.707      6.520
REMARK  Name = 25134248
REMARK  7 active torsions:
REMARK  status: ('A' for Active; 'I' for Inactive)
REMARK    1  A    between atoms: N_2  and  C_20
REMARK    2  A    between atoms: C_3  and  C_7
REMARK    3  A    between atoms: C_11  and  C_12
REMARK    4  A    between atoms: C_12  and  C_13
REMARK    5  A    between atoms: C_13  and  C_14
REMARK    6  A    between atoms: C_20  and  C_21
REMARK    7  A    between atoms: C_26  and  C_29
REMARK                            x       y       z     vdW  Elec       q    Type
REMARK                         _______ _______ _______ _____ _____    ______ ____
ROOT
ATOM      1  O   UNL     1      35.066 -24.882 -15.649  0.00  0.00    -0.273 OA
ATOM      2  N   UNL     1      34.776 -22.703 -16.415  0.00  0.00    -0.299 N 
ATOM      3  C   UNL     1      35.169 -23.667 -15.503  0.00  0.00    +0.241 C 
ATOM      4  H   UNL     1      34.911 -21.756 -16.184  0.00  0.00    +0.150 HD
ENDROOT
BRANCH   3   7
ATOM      5  O   UNL     1      34.686 -25.115 -11.426  0.00  0.00    -0.275 OA
ATOM      6  N   UNL     1      35.718 -24.061 -13.205  0.00  0.00    -0.273 N 
ATOM      7  C   UNL     1      35.783 -23.067 -14.273  0.00  0.00    +0.152 C 
ATOM      8  C   UNL     1      37.276 -22.826 -14.479  0.00  0.00    +0.031 C 
ATOM      9  C   UNL     1      37.030 -24.639 -12.946  0.00  0.00    +0.094 C 
ATOM     10  C   UNL     1      37.907 -24.160 -14.091  0.00  0.00    +0.024 C 
ATOM     11  C   UNL     1      34.631 -24.358 -12.398  0.00  0.00    +0.226 C 
BRANCH  11  12
ATOM     12  C   UNL     1      33.328 -23.696 -12.768  0.00  0.00    +0.085 C 
BRANCH  12  13
ATOM     13  C   UNL     1      32.263 -24.741 -13.053  0.00  0.00    +0.010 C 
BRANCH  13  14
ATOM     14  C   UNL     1      31.492 -24.466 -14.343  0.00  0.00    +0.000 C 
ATOM     15  C   UNL     1      30.015 -24.846 -14.182  0.00  0.00    +0.000 C 
ATOM     16  C   UNL     1      31.636 -22.996 -14.758  0.00  0.00    +0.000 C 
ATOM     17  C   UNL     1      29.211 -24.530 -15.442  0.00  0.00    +0.000 C 
ATOM     18  C   UNL     1      30.831 -22.684 -16.016  0.00  0.00    +0.000 C 
ATOM     19  C   UNL     1      29.364 -23.071 -15.856  0.00  0.00    +0.000 C 
ENDBRANCH  13  14
ENDBRANCH  12  13
ENDBRANCH  11  12
ENDBRANCH   3   7
BRANCH   2  20
ATOM     20  C   UNL     1      34.178 -23.021 -17.692  0.00  0.00    +0.116 C 
BRANCH  20  21
ATOM     21  C   UNL     1      34.402 -21.935 -18.704  0.00  0.00    -0.003 C 
ATOM     22  C   UNL     1      35.701 -21.541 -19.027  0.00  0.00    -0.003 C 
ATOM     23  C   UNL     1      33.314 -21.321 -19.323  0.00  0.00    -0.003 C 
ATOM     24  C   UNL     1      35.911 -20.532 -19.967  0.00  0.00    +0.002 C 
ATOM     25  C   UNL     1      33.523 -20.312 -20.263  0.00  0.00    +0.002 C 
ATOM     26  C   UNL     1      34.822 -19.918 -20.586  0.00  0.00    +0.031 C 
BRANCH  26  29
ATOM     27  N   UNL     1      35.410 -17.580 -21.181  0.00  0.00    -0.343 N 
ATOM     28  N   UNL     1      34.887 -19.126 -22.854  0.00  0.00    -0.285 NA
ATOM     29  C   UNL     1      35.041 -18.868 -21.567  0.00  0.00    +0.117 C 
ATOM     30  H   UNL     1      35.553 -16.885 -21.862  0.00  0.00    +0.144 HD
ATOM     31  H   UNL     1      35.526 -17.367 -20.227  0.00  0.00    +0.144 HD
ATOM     32  H   UNL     1      35.036 -18.417 -23.520  0.00  0.00    +0.188 HD
ENDBRANCH  26  29
ENDBRANCH  20  21
ENDBRANCH   2  20
TORSDOF 7
ENDMDL
MODEL 3
REMARK VINA RESULT:     -10.3      8.135     11.990
REMARK  Name = 25134248
REMARK  7 active torsions:
REMARK  status: ('A' for Active; 'I' for Inactive)
REMARK    1  A    between atoms: N_2  and  C_20
REMARK    2  A    between atoms: C_3  and  C_7
REMARK    3  A    between atoms: C_11  and  C_12
REMARK    4  A    between atoms: C_12  and  C_13
REMARK    5  A    between atoms: C_13  and  C_14
REMARK    6  A    between atoms: C_20  and  C_21
REMARK    7  A    between atoms: C_26  and  C_29
REMARK                            x       y       z     vdW  Elec       q    Type
REMARK                         _______ _______ _______ _____ _____    ______ ____
ROOT
ATOM      1  O   UNL     1      33.855 -14.969 -23.461  0.00  0.00    -0.273 OA
ATOM      2  N   UNL     1      35.142 -15.998 -21.817  0.00  0.00    -0.299 N 
ATOM      3  C   UNL     1      34.381 -14.972 -22.352  0.00  0.00    +0.241 C 
ATOM      4  H   UNL     1      35.514 -15.882 -20.912  0.00  0.00    +0.150 HD
ENDROOT
BRANCH   3   7
ATOM      5  O   UNL     1      31.395 -11.814 -22.595  0.00  0.00    -0.275 OA
ATOM      6  N   UNL     1      32.902 -13.250 -21.590  0.00  0.00    -0.273 N 
ATOM      7  C   UNL     1      34.232 -13.822 -21.402  0.00  0.00    +0.152 C 
ATOM      8  C   UNL     1      34.235 -14.312 -19.957  0.00  0.00    +0.031 C 
ATOM      9  C   UNL     1      32.018 -13.601 -20.486  0.00  0.00    +0.094 C 
ATOM     10  C   UNL     1      32.772 -14.660 -19.698  0.00  0.00    +0.024 C 
ATOM     11  C   UNL     1      32.499 -12.361 -22.575  0.00  0.00    +0.226 C 
BRANCH  11  12
ATOM     12  C   UNL     1      33.504 -12.077 -23.663  0.00  0.00    +0.085 C 
BRANCH  12  13
ATOM     13  C   UNL     1      33.299 -10.680 -24.224  0.00  0.00    +0.010 C 
BRANCH  13  14
ATOM     14  C   UNL     1      33.792  -9.584 -23.281  0.00  0.00    +0.000 C 
ATOM     15  C   UNL     1      34.902  -8.758 -23.944  0.00  0.00    +0.000 C 
ATOM     16  C   UNL     1      32.630  -8.684 -22.841  0.00  0.00    +0.000 C 
ATOM     17  C   UNL     1      35.375  -7.622 -23.041  0.00  0.00    +0.000 C 
ATOM     18  C   UNL     1      33.107  -7.548 -21.940  0.00  0.00    +0.000 C 
ATOM     19  C   UNL     1      34.217  -6.735 -22.599  0.00  0.00    +0.000 C 
ENDBRANCH  13  14
ENDBRANCH  12  13
ENDBRANCH  11  12
ENDBRANCH   3   7
BRANCH   2  20
ATOM     20  C   UNL     1      35.416 -17.229 -22.522  0.00  0.00    +0.116 C 
BRANCH  20  21
ATOM     21  C   UNL     1      35.494 -18.404 -21.590  0.00  0.00    -0.003 C 
ATOM     22  C   UNL     1      36.708 -18.735 -20.986  0.00  0.00    -0.003 C 
ATOM     23  C   UNL     1      34.355 -19.164 -21.327  0.00  0.00    -0.003 C 
ATOM     24  C   UNL     1      36.781 -19.825 -20.120  0.00  0.00    +0.002 C 
ATOM     25  C   UNL     1      34.428 -20.255 -20.461  0.00  0.00    +0.002 C 
ATOM     26  C   UNL     1      35.641 -20.585 -19.857  0.00  0.00    +0.031 C 
BRANCH  26  29
ATOM     27  N   UNL     1      36.656 -21.767 -17.923  0.00  0.00    -0.343 N 
ATOM     28  N   UNL     1      34.889 -22.740 -19.103  0.00  0.00    -0.285 NA
ATOM     29  C   UNL     1      35.718 -21.722 -18.953  0.00  0.00    +0.117 C 
ATOM     30  H   UNL     1      36.691 -22.546 -17.323  0.00  0.00    +0.144 HD
ATOM     31  H   UNL     1      37.285 -21.020 -17.798  0.00  0.00    +0.144 HD
ATOM     32  H   UNL     1      34.939 -23.510 -18.492  0.00  0.00    +0.188 HD
ENDBRANCH  26  29
ENDBRANCH  20  21
ENDBRANCH   2  20
TORSDOF 7
ENDMDL
MODEL 4
REMARK VINA RESULT:     -10.2      8.376     12.196
REMARK  Name = 25134248
REMARK  7 active torsions:
REMARK  status: ('A' for Active; 'I' for Inactive)
REMARK    1  A    between atoms: N_2  and  C_20
REMARK    2  A    between atoms: C_3  and  C_7
REMARK    3  A    between atoms: C_11  and  C_12
REMARK    4  A    between atoms: C_12  and  C_13
REMARK    5  A    between atoms: C_13  and  C_14
REMARK    6  A    between atoms: C_20  and  C_21
REMARK    7  A    between atoms: C_26  and  C_29
REMARK                            x       y       z     vdW  Elec       q    Type
REMARK                         _______ _______ _______ _____ _____    ______ ____
ROOT
ATOM      1  O   UNL     1      34.228 -15.182 -20.650  0.00  0.00    -0.273 OA
ATOM      2  N   UNL     1      32.961 -13.756 -21.983  0.00  0.00    -0.299 N 
ATOM      3  C   UNL     1      33.994 -14.640 -21.727  0.00  0.00    +0.241 C 
ATOM      4  H   UNL     1      32.876 -13.385 -22.892  0.00  0.00    +0.150 HD
ENDROOT
BRANCH   3   7
ATOM      5  O   UNL     1      34.467 -18.484 -23.716  0.00  0.00    -0.275 OA
ATOM      6  N   UNL     1      34.396 -16.183 -23.515  0.00  0.00    -0.273 N 
ATOM      7  C   UNL     1      34.827 -14.909 -22.945  0.00  0.00    +0.152 C 
ATOM      8  C   UNL     1      34.532 -13.884 -24.036  0.00  0.00    +0.031 C 
ATOM      9  C   UNL     1      33.617 -15.977 -24.729  0.00  0.00    +0.094 C 
ATOM     10  C   UNL     1      33.337 -14.484 -24.773  0.00  0.00    +0.024 C 
ATOM     11  C   UNL     1      34.762 -17.455 -23.105  0.00  0.00    +0.226 C 
BRANCH  11  12
ATOM     12  C   UNL     1      35.568 -17.535 -21.833  0.00  0.00    +0.085 C 
BRANCH  12  13
ATOM     13  C   UNL     1      36.049 -18.958 -21.598  0.00  0.00    +0.010 C 
BRANCH  13  14
ATOM     14  C   UNL     1      35.372 -19.623 -20.401  0.00  0.00    +0.000 C 
ATOM     15  C   UNL     1      33.947 -20.064 -20.760  0.00  0.00    +0.000 C 
ATOM     16  C   UNL     1      36.202 -20.812 -19.900  0.00  0.00    +0.000 C 
ATOM     17  C   UNL     1      33.268 -20.780 -19.595  0.00  0.00    +0.000 C 
ATOM     18  C   UNL     1      35.520 -21.526 -18.737  0.00  0.00    +0.000 C 
ATOM     19  C   UNL     1      34.101 -21.955 -19.094  0.00  0.00    +0.000 C 
ENDBRANCH  13  14
ENDBRANCH  12  13
ENDBRANCH  11  12
ENDBRANCH   3   7
BRANCH   2  20
ATOM     20  C   UNL     1      32.001 -13.350 -20.982  0.00  0.00    +0.116 C 
BRANCH  20  21
ATOM     21  C   UNL     1      32.062 -11.874 -20.711  0.00  0.00    -0.003 C 
ATOM     22  C   UNL     1      32.095 -11.408 -19.396  0.00  0.00    -0.003 C 
ATOM     23  C   UNL     1      32.088 -10.969 -21.772  0.00  0.00    -0.003 C 
ATOM     24  C   UNL     1      32.153 -10.038 -19.143  0.00  0.00    +0.002 C 
ATOM     25  C   UNL     1      32.146  -9.599 -21.519  0.00  0.00    +0.002 C 
ATOM     26  C   UNL     1      32.179  -9.133 -20.205  0.00  0.00    +0.031 C 
BRANCH  26  29
ATOM     27  N   UNL     1      31.303  -6.826 -20.482  0.00  0.00    -0.343 N 
ATOM     28  N   UNL     1      33.200  -7.217 -19.175  0.00  0.00    -0.285 NA
ATOM     29  C   UNL     1      32.240  -7.704 -19.941  0.00  0.00    +0.117 C 
ATOM     30  H   UNL     1      31.363  -5.863 -20.290  0.00  0.00    +0.144 HD
ATOM     31  H   UNL     1      30.582  -7.169 -21.058  0.00  0.00    +0.144 HD
ATOM     32  H   UNL     1      33.243  -6.250 -18.995  0.00  0.00    +0.188 HD
ENDBRANCH  26  29
ENDBRANCH  20  21
ENDBRANCH   2  20
TORSDOF 7
ENDMDL
MODEL 5
REMARK VINA RESULT:      -9.8      3.119      7.734
REMARK  Name = 25134248
REMARK  7 active torsions:
REMARK  status: ('A' for Active; 'I' for Inactive)
REMARK    1  A    between atoms: N_2  and  C_20
REMARK    2  A    between atoms: C_3  and  C_7
REMARK    3  A    between atoms: C_11  and  C_12
REMARK    4  A    between atoms: C_12  and  C_13
REMARK    5  A    between atoms: C_13  and  C_14
REMARK    6  A    between atoms: C_20  and  C_21
REMARK    7  A    between atoms: C_26  and  C_29
REMARK                            x       y       z     vdW  Elec       q    Type
REMARK                         _______ _______ _______ _____ _____    ______ ____
ROOT
ATOM      1  O   UNL     1      35.442 -22.077 -15.321  0.00  0.00    -0.273 OA
ATOM      2  N   UNL     1      35.545 -22.479 -17.611  0.00  0.00    -0.299 N 
ATOM      3  C   UNL     1      35.080 -22.686 -16.323  0.00  0.00    +0.241 C 
ATOM      4  H   UNL     1      35.177 -23.034 -18.337  0.00  0.00    +0.150 HD
ENDROOT
BRANCH   3   7
ATOM      5  O   UNL     1      33.472 -24.505 -12.710  0.00  0.00    -0.275 OA
ATOM      6  N   UNL     1      33.493 -23.786 -14.906  0.00  0.00    -0.273 N 
ATOM      7  C   UNL     1      34.031 -23.756 -16.264  0.00  0.00    +0.152 C 
ATOM      8  C   UNL     1      32.836 -23.387 -17.139  0.00  0.00    +0.031 C 
ATOM      9  C   UNL     1      32.160 -23.200 -14.856  0.00  0.00    +0.094 C 
ATOM     10  C   UNL     1      31.966 -22.541 -16.213  0.00  0.00    +0.024 C 
ATOM     11  C   UNL     1      34.046 -24.405 -13.796  0.00  0.00    +0.226 C 
BRANCH  11  12
ATOM     12  C   UNL     1      35.431 -24.973 -13.974  0.00  0.00    +0.085 C 
BRANCH  12  13
ATOM     13  C   UNL     1      36.319 -24.585 -12.804  0.00  0.00    +0.010 C 
BRANCH  13  14
ATOM     14  C   UNL     1      37.803 -24.563 -13.167  0.00  0.00    +0.000 C 
ATOM     15  C   UNL     1      38.456 -25.916 -12.859  0.00  0.00    +0.000 C 
ATOM     16  C   UNL     1      37.995 -24.186 -14.642  0.00  0.00    +0.000 C 
ATOM     17  C   UNL     1      39.928 -25.937 -13.263  0.00  0.00    +0.000 C 
ATOM     18  C   UNL     1      39.468 -24.209 -15.043  0.00  0.00    +0.000 C 
ATOM     19  C   UNL     1      40.116 -25.554 -14.727  0.00  0.00    +0.000 C 
ENDBRANCH  13  14
ENDBRANCH  12  13
ENDBRANCH  11  12
ENDBRANCH   3   7
BRANCH   2  20
ATOM     20  C   UNL     1      36.542 -21.488 -17.941  0.00  0.00    +0.116 C 
BRANCH  20  21
ATOM     21  C   UNL     1      36.169 -20.700 -19.164  0.00  0.00    -0.003 C 
ATOM     22  C   UNL     1      37.102 -19.850 -19.757  0.00  0.00    -0.003 C 
ATOM     23  C   UNL     1      34.891 -20.821 -19.709  0.00  0.00    -0.003 C 
ATOM     24  C   UNL     1      36.757 -19.119 -20.894  0.00  0.00    +0.002 C 
ATOM     25  C   UNL     1      34.545 -20.090 -20.845  0.00  0.00    +0.002 C 
ATOM     26  C   UNL     1      35.478 -19.239 -21.438  0.00  0.00    +0.031 C 
BRANCH  26  29
ATOM     27  N   UNL     1      34.275 -19.009 -23.598  0.00  0.00    -0.343 N 
ATOM     28  N   UNL     1      35.597 -17.258 -22.793  0.00  0.00    -0.285 NA
ATOM     29  C   UNL     1      35.118 -18.478 -22.624  0.00  0.00    +0.117 C 
ATOM     30  H   UNL     1      34.045 -18.476 -24.393  0.00  0.00    +0.144 HD
ATOM     31  H   UNL     1      33.911 -19.917 -23.492  0.00  0.00    +0.144 HD
ATOM     32  H   UNL     1      35.354 -16.741 -23.595  0.00  0.00    +0.188 HD
ENDBRANCH  26  29
ENDBRANCH  20  21
ENDBRANCH   2  20
TORSDOF 7
ENDMDL
MODEL 6
REMARK VINA RESULT:      -9.7      2.283      6.445
REMARK  Name = 25134248
REMARK  7 active torsions:
REMARK  status: ('A' for Active; 'I' for Inactive)
REMARK    1  A    between atoms: N_2  and  C_20
REMARK    2  A    between atoms: C_3  and  C_7
REMARK    3  A    between atoms: C_11  and  C_12
REMARK    4  A    between atoms: C_12  and  C_13
REMARK    5  A    between atoms: C_13  and  C_14
REMARK    6  A    between atoms: C_20  and  C_21
REMARK    7  A    between atoms: C_26  and  C_29
REMARK                            x       y       z     vdW  Elec       q    Type
REMARK                         _______ _______ _______ _____ _____    ______ ____
ROOT
ATOM      1  O   UNL     1      32.987 -25.026 -13.823  0.00  0.00    -0.273 OA
ATOM      2  N   UNL     1      34.187 -23.476 -12.567  0.00  0.00    -0.299 N 
ATOM      3  C   UNL     1      33.264 -23.868 -13.521  0.00  0.00    +0.241 C 
ATOM      4  H   UNL     1      34.323 -22.513 -12.414  0.00  0.00    +0.150 HD
ENDROOT
BRANCH   3   7
ATOM      5  O   UNL     1      32.431 -23.407 -17.769  0.00  0.00    -0.275 OA
ATOM      6  N   UNL     1      32.140 -23.110 -15.496  0.00  0.00    -0.273 N 
ATOM      7  C   UNL     1      32.584 -22.698 -14.167  0.00  0.00    +0.152 C 
ATOM      8  C   UNL     1      31.296 -22.348 -13.427  0.00  0.00    +0.031 C 
ATOM      9  C   UNL     1      30.697 -23.305 -15.530  0.00  0.00    +0.094 C 
ATOM     10  C   UNL     1      30.255 -23.256 -14.076  0.00  0.00    +0.024 C 
ATOM     11  C   UNL     1      32.901 -23.180 -16.652  0.00  0.00    +0.226 C 
BRANCH  11  12
ATOM     12  C   UNL     1      34.383 -22.959 -16.486  0.00  0.00    +0.085 C 
BRANCH  12  13
ATOM     13  C   UNL     1      35.076 -22.964 -17.839  0.00  0.00    +0.010 C 
BRANCH  13  14
ATOM     14  C   UNL     1      35.122 -21.581 -18.486  0.00  0.00    +0.000 C 
ATOM     15  C   UNL     1      36.492 -21.329 -19.129  0.00  0.00    +0.000 C 
ATOM     16  C   UNL     1      33.998 -21.428 -19.519  0.00  0.00    +0.000 C 
ATOM     17  C   UNL     1      36.546 -19.974 -19.829  0.00  0.00    +0.000 C 
ATOM     18  C   UNL     1      34.055 -20.072 -20.218  0.00  0.00    +0.000 C 
ATOM     19  C   UNL     1      35.422 -19.822 -20.848  0.00  0.00    +0.000 C 
ENDBRANCH  13  14
ENDBRANCH  12  13
ENDBRANCH  11  12
ENDBRANCH   3   7
BRANCH   2  20
ATOM     20  C   UNL     1      34.961 -24.413 -11.785  0.00  0.00    +0.116 C 
BRANCH  20  21
ATOM     21  C   UNL     1      36.246 -24.787 -12.466  0.00  0.00    -0.003 C 
ATOM     22  C   UNL     1      37.034 -25.817 -11.950  0.00  0.00    -0.003 C 
ATOM     23  C   UNL     1      36.651 -24.109 -13.615  0.00  0.00    -0.003 C 
ATOM     24  C   UNL     1      38.227 -26.166 -12.583  0.00  0.00    +0.002 C 
ATOM     25  C   UNL     1      37.844 -24.457 -14.248  0.00  0.00    +0.002 C 
ATOM     26  C   UNL     1      38.632 -25.486 -13.732  0.00  0.00    +0.031 C 
BRANCH  26  29
ATOM     27  N   UNL     1      40.811 -26.677 -13.770  0.00  0.00    -0.343 N 
ATOM     28  N   UNL     1      40.136 -25.396 -15.604  0.00  0.00    -0.285 NA
ATOM     29  C   UNL     1      39.875 -25.852 -14.391  0.00  0.00    +0.117 C 
ATOM     30  H   UNL     1      41.646 -26.911 -14.235  0.00  0.00    +0.144 HD
ATOM     31  H   UNL     1      40.637 -27.023 -12.865  0.00  0.00    +0.144 HD
ATOM     32  H   UNL     1      40.977 -25.642 -16.053  0.00  0.00    +0.188 HD
ENDBRANCH  26  29
ENDBRANCH  20  21
ENDBRANCH   2  20
TORSDOF 7
ENDMDL
MODEL 7
REMARK VINA RESULT:      -9.5      5.030      8.568
REMARK  Name = 25134248
REMARK  7 active torsions:
REMARK  status: ('A' for Active; 'I' for Inactive)
REMARK    1  A    between atoms: N_2  and  C_20
REMARK    2  A    between atoms: C_3  and  C_7
REMARK    3  A    between atoms: C_11  and  C_12
REMARK    4  A    between atoms: C_12  and  C_13
REMARK    5  A    between atoms: C_13  and  C_14
REMARK    6  A    between atoms: C_20  and  C_21
REMARK    7  A    between atoms: C_26  and  C_29
REMARK                            x       y       z     vdW  Elec       q    Type
REMARK                         _______ _______ _______ _____ _____    ______ ____
ROOT
ATOM      1  O   UNL     1      36.752 -18.174 -20.629  0.00  0.00    -0.273 OA
ATOM      2  N   UNL     1      35.630 -20.158 -20.158  0.00  0.00    -0.299 N 
ATOM      3  C   UNL     1      35.765 -18.899 -20.718  0.00  0.00    +0.241 C 
ATOM      4  H   UNL     1      34.786 -20.645 -20.299  0.00  0.00    +0.150 HD
ENDROOT
BRANCH   3   7
ATOM      5  O   UNL     1      35.289 -15.213 -22.984  0.00  0.00    -0.275 OA
ATOM      6  N   UNL     1      34.942 -17.426 -22.418  0.00  0.00    -0.273 N 
ATOM      7  C   UNL     1      34.552 -18.492 -21.500  0.00  0.00    +0.152 C 
ATOM      8  C   UNL     1      34.090 -19.629 -22.408  0.00  0.00    +0.031 C 
ATOM      9  C   UNL     1      35.021 -17.917 -23.788  0.00  0.00    +0.094 C 
ATOM     10  C   UNL     1      34.920 -19.430 -23.674  0.00  0.00    +0.024 C 
ATOM     11  C   UNL     1      35.088 -16.079 -22.130  0.00  0.00    +0.226 C 
BRANCH  11  12
ATOM     12  C   UNL     1      34.985 -15.696 -20.675  0.00  0.00    +0.085 C 
BRANCH  12  13
ATOM     13  C   UNL     1      33.562 -15.287 -20.333  0.00  0.00    +0.010 C 
BRANCH  13  14
ATOM     14  C   UNL     1      33.300 -13.800 -20.563  0.00  0.00    +0.000 C 
ATOM     15  C   UNL     1      32.665 -13.568 -21.940  0.00  0.00    +0.000 C 
ATOM     16  C   UNL     1      32.414 -13.227 -19.449  0.00  0.00    +0.000 C 
ATOM     17  C   UNL     1      32.344 -12.094 -22.172  0.00  0.00    +0.000 C 
ATOM     18  C   UNL     1      32.095 -11.753 -19.685  0.00  0.00    +0.000 C 
ATOM     19  C   UNL     1      31.472 -11.525 -21.059  0.00  0.00    +0.000 C 
ENDBRANCH  13  14
ENDBRANCH  12  13
ENDBRANCH  11  12
ENDBRANCH   3   7
BRANCH   2  20
ATOM     20  C   UNL     1      36.667 -20.791 -19.375  0.00  0.00    +0.116 C 
BRANCH  20  21
ATOM     21  C   UNL     1      36.108 -21.533 -18.196  0.00  0.00    -0.003 C 
ATOM     22  C   UNL     1      34.833 -22.095 -18.267  0.00  0.00    -0.003 C 
ATOM     23  C   UNL     1      36.862 -21.663 -17.031  0.00  0.00    -0.003 C 
ATOM     24  C   UNL     1      34.313 -22.786 -17.173  0.00  0.00    +0.002 C 
ATOM     25  C   UNL     1      36.343 -22.353 -15.936  0.00  0.00    +0.002 C 
ATOM     26  C   UNL     1      35.068 -22.915 -16.007  0.00  0.00    +0.031 C 
BRANCH  26  29
ATOM     27  N   UNL     1      33.489 -23.107 -14.100  0.00  0.00    -0.343 N 
ATOM     28  N   UNL     1      35.020 -24.817 -14.539  0.00  0.00    -0.285 NA
ATOM     29  C   UNL     1      34.526 -23.636 -14.867  0.00  0.00    +0.117 C 
ATOM     30  H   UNL     1      33.138 -23.612 -13.332  0.00  0.00    +0.144 HD
ATOM     31  H   UNL     1      33.111 -22.226 -14.326  0.00  0.00    +0.144 HD
ATOM     32  H   UNL     1      34.654 -25.307 -13.767  0.00  0.00    +0.188 HD
ENDBRANCH  26  29
ENDBRANCH  20  21
ENDBRANCH   2  20
TORSDOF 7
ENDMDL
MODEL 8
REMARK VINA RESULT:      -9.5      3.056      7.386
REMARK  Name = 25134248
REMARK  7 active torsions:
REMARK  status: ('A' for Active; 'I' for Inactive)
REMARK    1  A    between atoms: N_2  and  C_20
REMARK    2  A    between atoms: C_3  and  C_7
REMARK    3  A    between atoms: C_11  and  C_12
REMARK    4  A    between atoms: C_12  and  C_13
REMARK    5  A    between atoms: C_13  and  C_14
REMARK    6  A    between atoms: C_20  and  C_21
REMARK    7  A    between atoms: C_26  and  C_29
REMARK                            x       y       z     vdW  Elec       q    Type
REMARK                         _______ _______ _______ _____ _____    ______ ____
ROOT
ATOM      1  O   UNL     1      37.192 -19.789 -18.473  0.00  0.00    -0.273 OA
ATOM      2  N   UNL     1      36.670 -21.775 -17.376  0.00  0.00    -0.299 N 
ATOM      3  C   UNL     1      36.642 -20.886 -18.438  0.00  0.00    +0.241 C 
ATOM      4  H   UNL     1      36.187 -22.628 -17.467  0.00  0.00    +0.150 HD
ENDROOT
BRANCH   3   7
ATOM      5  O   UNL     1      32.315 -21.309 -18.654  0.00  0.00    -0.275 OA
ATOM      6  N   UNL     1      34.469 -21.016 -19.437  0.00  0.00    -0.273 N 
ATOM      7  C   UNL     1      35.863 -21.419 -19.603  0.00  0.00    +0.152 C 
ATOM      8  C   UNL     1      36.303 -20.744 -20.899  0.00  0.00    +0.031 C 
ATOM      9  C   UNL     1      34.120 -19.943 -20.359  0.00  0.00    +0.094 C 
ATOM     10  C   UNL     1      35.442 -19.485 -20.954  0.00  0.00    +0.024 C 
ATOM     11  C   UNL     1      33.507 -21.621 -18.643  0.00  0.00    +0.226 C 
BRANCH  11  12
ATOM     12  C   UNL     1      33.994 -22.719 -17.732  0.00  0.00    +0.085 C 
BRANCH  12  13
ATOM     13  C   UNL     1      32.825 -23.553 -17.235  0.00  0.00    +0.010 C 
BRANCH  13  14
ATOM     14  C   UNL     1      32.293 -23.084 -15.883  0.00  0.00    +0.000 C 
ATOM     15  C   UNL     1      30.759 -23.113 -15.865  0.00  0.00    +0.000 C 
ATOM     16  C   UNL     1      32.868 -23.940 -14.747  0.00  0.00    +0.000 C 
ATOM     17  C   UNL     1      30.203 -22.699 -14.504  0.00  0.00    +0.000 C 
ATOM     18  C   UNL     1      32.310 -23.524 -13.389  0.00  0.00    +0.000 C 
ATOM     19  C   UNL     1      30.784 -23.545 -13.377  0.00  0.00    +0.000 C 
ENDBRANCH  13  14
ENDBRANCH  12  13
ENDBRANCH  11  12
ENDBRANCH   3   7
BRANCH   2  20
ATOM     20  C   UNL     1      37.373 -21.510 -16.142  0.00  0.00    +0.116 C 
BRANCH  20  21
ATOM     21  C   UNL     1      37.292 -22.667 -15.190  0.00  0.00    -0.003 C 
ATOM     22  C   UNL     1      36.193 -22.795 -14.340  0.00  0.00    -0.003 C 
ATOM     23  C   UNL     1      38.313 -23.616 -15.155  0.00  0.00    -0.003 C 
ATOM     24  C   UNL     1      36.115 -23.871 -13.456  0.00  0.00    +0.002 C 
ATOM     25  C   UNL     1      38.237 -24.692 -14.270  0.00  0.00    +0.002 C 
ATOM     26  C   UNL     1      37.138 -24.819 -13.421  0.00  0.00    +0.031 C 
BRANCH  26  29
ATOM     27  N   UNL     1      37.130 -27.258 -12.951  0.00  0.00    -0.343 N 
ATOM     28  N   UNL     1      36.907 -25.721 -11.205  0.00  0.00    -0.285 NA
ATOM     29  C   UNL     1      37.056 -25.941 -12.499  0.00  0.00    +0.117 C 
ATOM     30  H   UNL     1      37.073 -28.002 -12.309  0.00  0.00    +0.144 HD
ATOM     31  H   UNL     1      37.238 -27.443 -13.912  0.00  0.00    +0.144 HD
ATOM     32  H   UNL     1      36.852 -26.479 -10.579  0.00  0.00    +0.188 HD
ENDBRANCH  26  29
ENDBRANCH  20  21
ENDBRANCH   2  20
TORSDOF 7
ENDMDL
MODEL 9
REMARK VINA RESULT:      -9.5     11.400     15.282
REMARK  Name = 25134248
REMARK  7 active torsions:
REMARK  status: ('A' for Active; 'I' for Inactive)
REMARK    1  A    between atoms: N_2  and  C_20
REMARK    2  A    between atoms: C_3  and  C_7
REMARK    3  A    between atoms: C_11  and  C_12
REMARK    4  A    between atoms: C_12  and  C_13
REMARK    5  A    between atoms: C_13  and  C_14
REMARK    6  A    between atoms: C_20  and  C_21
REMARK    7  A    between atoms: C_26  and  C_29
REMARK                            x       y       z     vdW  Elec       q    Type
REMARK                         _______ _______ _______ _____ _____    ______ ____
ROOT
ATOM      1  O   UNL     1      33.738 -11.456 -23.686  0.00  0.00    -0.273 OA
ATOM      2  N   UNL     1      32.640  -9.783 -22.497  0.00  0.00    -0.299 N 
ATOM      3  C   UNL     1      32.869 -11.087 -22.900  0.00  0.00    +0.241 C 
ATOM      4  H   UNL     1      31.909  -9.612 -21.859  0.00  0.00    +0.150 HD
ENDROOT
BRANCH   3   7
ATOM      5  O   UNL     1      34.010 -14.463 -20.400  0.00  0.00    -0.275 OA
ATOM      6  N   UNL     1      32.670 -12.757 -21.195  0.00  0.00    -0.273 N 
ATOM      7  C   UNL     1      31.933 -12.057 -22.244  0.00  0.00    +0.152 C 
ATOM      8  C   UNL     1      30.823 -11.318 -21.502  0.00  0.00    +0.031 C 
ATOM      9  C   UNL     1      32.277 -12.284 -19.874  0.00  0.00    +0.094 C 
ATOM     10  C   UNL     1      31.434 -11.045 -20.130  0.00  0.00    +0.024 C 
ATOM     11  C   UNL     1      33.526 -13.836 -21.344  0.00  0.00    +0.226 C 
BRANCH  11  12
ATOM     12  C   UNL     1      33.856 -14.230 -22.762  0.00  0.00    +0.085 C 
BRANCH  12  13
ATOM     13  C   UNL     1      35.027 -15.197 -22.786  0.00  0.00    +0.010 C 
BRANCH  13  14
ATOM     14  C   UNL     1      34.589 -16.660 -22.754  0.00  0.00    +0.000 C 
ATOM     15  C   UNL     1      34.569 -17.251 -24.170  0.00  0.00    +0.000 C 
ATOM     16  C   UNL     1      35.503 -17.480 -21.833  0.00  0.00    +0.000 C 
ATOM     17  C   UNL     1      34.186 -18.729 -24.159  0.00  0.00    +0.000 C 
ATOM     18  C   UNL     1      35.118 -18.957 -21.826  0.00  0.00    +0.000 C 
ATOM     19  C   UNL     1      35.090 -19.538 -23.236  0.00  0.00    +0.000 C 
ENDBRANCH  13  14
ENDBRANCH  12  13
ENDBRANCH  11  12
ENDBRANCH   3   7
BRANCH   2  20
ATOM     20  C   UNL     1      33.421  -8.662 -22.965  0.00  0.00    +0.116 C 
BRANCH  20  21
ATOM     21  C   UNL     1      32.762  -7.349 -22.656  0.00  0.00    -0.003 C 
ATOM     22  C   UNL     1      32.992  -6.725 -21.429  0.00  0.00    -0.003 C 
ATOM     23  C   UNL     1      31.921  -6.751 -23.594  0.00  0.00    -0.003 C 
ATOM     24  C   UNL     1      32.381  -5.505 -21.141  0.00  0.00    +0.002 C 
ATOM     25  C   UNL     1      31.309  -5.531 -23.307  0.00  0.00    +0.002 C 
ATOM     26  C   UNL     1      31.539  -4.908 -22.081  0.00  0.00    +0.031 C 
BRANCH  26  29
ATOM     27  N   UNL     1      31.609  -2.436 -21.855  0.00  0.00    -0.343 N 
ATOM     28  N   UNL     1      29.630  -3.603 -21.426  0.00  0.00    -0.285 NA
ATOM     29  C   UNL     1      30.903  -3.635 -21.780  0.00  0.00    +0.117 C 
ATOM     30  H   UNL     1      31.158  -1.586 -21.647  0.00  0.00    +0.144 HD
ATOM     31  H   UNL     1      32.559  -2.440 -22.114  0.00  0.00    +0.144 HD
ATOM     32  H   UNL     1      29.197  -2.742 -21.223  0.00  0.00    +0.188 HD
ENDBRANCH  26  29
ENDBRANCH  20  21
ENDBRANCH   2  20
TORSDOF 7
ENDMDL
