MODEL 1
REMARK VINA RESULT:     -12.0      0.000      0.000
REMARK  Name = 11961293
REMARK  7 active torsions:
REMARK  status: ('A' for Active; 'I' for Inactive)
REMARK    1  A    between atoms: C_1  and  C_3
REMARK    2  A    between atoms: C_1  and  N_21
REMARK    3  A    between atoms: N_2  and  C_9
REMARK    4  A    between atoms: C_9  and  C_12
REMARK    5  A    between atoms: C_17  and  O_18
REMARK    6  A    between atoms: C_22  and  C_26
REMARK    7  A    between atoms: C_30  and  C_35
REMARK                            x       y       z     vdW  Elec       q    Type
REMARK                         _______ _______ _______ _____ _____    ______ ____
ROOT
ATOM      1  C   UNL     1      33.830 -14.974 -24.361  0.00  0.00    +0.089 C 
ENDROOT
BRANCH   1   3
ATOM      2  N   UNL     1      35.196 -17.990 -21.588  0.00  0.00    +0.387 N 
ATOM      3  C   UNL     1      34.778 -15.847 -23.544  0.00  0.00    +0.015 C 
ATOM      4  C   UNL     1      35.479 -18.218 -23.010  0.00  0.00    -0.077 C 
ATOM      5  C   UNL     1      35.434 -16.589 -21.218  0.00  0.00    -0.077 C 
ATOM      6  C   UNL     1      34.604 -17.328 -23.897  0.00  0.00    -0.021 C 
ATOM      7  C   UNL     1      34.556 -15.644 -22.042  0.00  0.00    -0.021 C 
ATOM      8  H   UNL     1      34.210 -18.195 -21.426  0.00  0.00    -0.080 HD
BRANCH   2   9
ATOM      9  C   UNL     1      36.003 -18.884 -20.756  0.00  0.00    -0.077 C 
BRANCH   9  12
ATOM     10  O   UNL     1      32.042 -22.400 -17.472  0.00  0.00    -0.226 OA
ATOM     11  N   UNL     1      33.866 -22.113 -18.884  0.00  0.00    -0.246 N 
ATOM     12  C   UNL     1      35.294 -20.220 -20.546  0.00  0.00    -0.017 C 
ATOM     13  C   UNL     1      33.825 -20.004 -20.154  0.00  0.00    +0.020 C 
ATOM     14  C   UNL     1      36.012 -21.056 -19.475  0.00  0.00    +0.020 C 
ATOM     15  C   UNL     1      33.126 -21.332 -19.874  0.00  0.00    +0.097 C 
ATOM     16  C   UNL     1      35.274 -22.366 -19.207  0.00  0.00    +0.097 C 
ATOM     17  C   UNL     1      33.223 -22.608 -17.746  0.00  0.00    +0.405 C 
BRANCH  17  18
ATOM     18  O   UNL     1      34.051 -23.363 -16.957  0.00  0.00    -0.430 OA
ATOM     19  C   UNL     1      33.720 -23.415 -15.564  0.00  0.00    +0.257 C 
ENDBRANCH  17  18
ENDBRANCH   9  12
ENDBRANCH   2   9
ENDBRANCH   1   3
BRANCH   1  21
ATOM     20  O   UNL     1      34.304 -12.146 -24.221  0.00  0.00    -0.270 OA
ATOM     21  N   UNL     1      33.138 -14.018 -23.509  0.00  0.00    -0.301 N 
ATOM     22  C   UNL     1      33.444 -12.672 -23.519  0.00  0.00    +0.247 C 
ATOM     23  H   UNL     1      32.429 -14.342 -22.907  0.00  0.00    +0.150 HD
BRANCH  22  26
ATOM     24  N   UNL     1      32.336  -8.295 -21.939  0.00  0.00    -0.318 N 
ATOM     25  N   UNL     1      33.495  -9.568 -23.343  0.00  0.00    -0.318 N 
ATOM     26  C   UNL     1      32.666 -11.832 -22.573  0.00  0.00    +0.068 C 
ATOM     27  C   UNL     1      32.763 -10.439 -22.579  0.00  0.00    +0.063 C 
ATOM     28  C   UNL     1      31.798 -12.399 -21.634  0.00  0.00    +0.006 C 
ATOM     29  C   UNL     1      32.046  -9.620 -21.710  0.00  0.00    +0.059 C 
ATOM     30  C   UNL     1      33.207  -8.300 -22.923  0.00  0.00    +0.144 C 
ATOM     31  C   UNL     1      31.067 -11.602 -20.749  0.00  0.00    +0.001 C 
ATOM     32  C   UNL     1      31.179 -10.207 -20.773  0.00  0.00    +0.016 C 
ATOM     33  H   UNL     1      31.970  -7.511 -21.468  0.00  0.00    +0.148 HD
ATOM     34  H   UNL     1      34.119  -9.813 -24.065  0.00  0.00    +0.148 HD
BRANCH  30  35
ATOM     35  C   UNL     1      33.777  -7.059 -23.477  0.00  0.00    +0.037 C 
ATOM     36  C   UNL     1      33.113  -5.777 -22.917  0.00  0.00    +0.003 C 
ATOM     37  C   UNL     1      35.312  -6.957 -23.297  0.00  0.00    +0.003 C 
ENDBRANCH  30  35
ENDBRANCH  22  26
ENDBRANCH   1  21
TORSDOF 7
ENDMDL
MODEL 2
REMARK VINA RESULT:     -11.7      2.844      5.412
REMARK  Name = 11961293
REMARK  7 active torsions:
REMARK  status: ('A' for Active; 'I' for Inactive)
REMARK    1  A    between atoms: C_1  and  C_3
REMARK    2  A    between atoms: C_1  and  N_21
REMARK    3  A    between atoms: N_2  and  C_9
REMARK    4  A    between atoms: C_9  and  C_12
REMARK    5  A    between atoms: C_17  and  O_18
REMARK    6  A    between atoms: C_22  and  C_26
REMARK    7  A    between atoms: C_30  and  C_35
REMARK                            x       y       z     vdW  Elec       q    Type
REMARK                         _______ _______ _______ _____ _____    ______ ____
ROOT
ATOM      1  C   UNL     1      36.602 -18.721 -20.997  0.00  0.00    +0.089 C 
ENDROOT
BRANCH   1   3
ATOM      2  N   UNL     1      34.213 -21.524 -18.741  0.00  0.00    +0.387 N 
ATOM      3  C   UNL     1      35.796 -19.972 -20.659  0.00  0.00    +0.015 C 
ATOM      4  C   UNL     1      33.559 -20.852 -19.871  0.00  0.00    -0.077 C 
ATOM      5  C   UNL     1      35.578 -21.942 -19.090  0.00  0.00    -0.077 C 
ATOM      6  C   UNL     1      34.347 -19.615 -20.308  0.00  0.00    -0.021 C 
ATOM      7  C   UNL     1      36.435 -20.741 -19.499  0.00  0.00    -0.021 C 
ATOM      8  H   UNL     1      34.276 -20.858 -17.971  0.00  0.00    -0.080 HD
BRANCH   2   9
ATOM      9  C   UNL     1      33.422 -22.674 -18.301  0.00  0.00    -0.077 C 
BRANCH   9  12
ATOM     10  O   UNL     1      32.242 -25.399 -12.823  0.00  0.00    -0.226 OA
ATOM     11  N   UNL     1      32.034 -23.661 -14.352  0.00  0.00    -0.246 N 
ATOM     12  C   UNL     1      33.058 -22.551 -16.824  0.00  0.00    -0.017 C 
ATOM     13  C   UNL     1      33.882 -23.531 -15.974  0.00  0.00    +0.020 C 
ATOM     14  C   UNL     1      31.556 -22.798 -16.611  0.00  0.00    +0.020 C 
ATOM     15  C   UNL     1      33.475 -23.465 -14.505  0.00  0.00    +0.097 C 
ATOM     16  C   UNL     1      31.190 -22.746 -15.128  0.00  0.00    +0.097 C 
ATOM     17  C   UNL     1      31.538 -24.631 -13.476  0.00  0.00    +0.405 C 
BRANCH  17  18
ATOM     18  O   UNL     1      30.170 -24.639 -13.417  0.00  0.00    -0.430 OA
ATOM     19  C   UNL     1      29.509 -25.638 -14.203  0.00  0.00    +0.257 C 
ENDBRANCH  17  18
ENDBRANCH   9  12
ENDBRANCH   2   9
ENDBRANCH   1   3
BRANCH   1  21
ATOM     20  O   UNL     1      35.273 -16.212 -20.570  0.00  0.00    -0.270 OA
ATOM     21  N   UNL     1      35.920 -17.917 -22.000  0.00  0.00    -0.301 N 
ATOM     22  C   UNL     1      35.309 -16.719 -21.689  0.00  0.00    +0.247 C 
ATOM     23  H   UNL     1      35.893 -18.238 -22.931  0.00  0.00    +0.150 HD
BRANCH  22  26
ATOM     24  N   UNL     1      32.639 -13.048 -23.200  0.00  0.00    -0.318 N 
ATOM     25  N   UNL     1      33.652 -14.093 -21.521  0.00  0.00    -0.318 N 
ATOM     26  C   UNL     1      34.634 -16.031 -22.819  0.00  0.00    +0.068 C 
ATOM     27  C   UNL     1      33.913 -14.850 -22.633  0.00  0.00    +0.063 C 
ATOM     28  C   UNL     1      34.692 -16.535 -24.122  0.00  0.00    +0.006 C 
ATOM     29  C   UNL     1      33.270 -14.177 -23.669  0.00  0.00    +0.059 C 
ATOM     30  C   UNL     1      32.889 -13.028 -21.910  0.00  0.00    +0.144 C 
ATOM     31  C   UNL     1      34.057 -15.882 -25.181  0.00  0.00    +0.001 C 
ATOM     32  C   UNL     1      33.339 -14.698 -24.972  0.00  0.00    +0.016 C 
ATOM     33  H   UNL     1      32.115 -12.396 -23.718  0.00  0.00    +0.148 HD
ATOM     34  H   UNL     1      33.961 -14.283 -20.604  0.00  0.00    +0.148 HD
BRANCH  30  35
ATOM     35  C   UNL     1      32.385 -11.962 -21.026  0.00  0.00    +0.037 C 
ATOM     36  C   UNL     1      31.062 -11.330 -21.523  0.00  0.00    +0.003 C 
ATOM     37  C   UNL     1      32.210 -12.417 -19.556  0.00  0.00    +0.003 C 
ENDBRANCH  30  35
ENDBRANCH  22  26
ENDBRANCH   1  21
TORSDOF 7
ENDMDL
MODEL 3
REMARK VINA RESULT:     -11.2      2.727     12.418
REMARK  Name = 11961293
REMARK  7 active torsions:
REMARK  status: ('A' for Active; 'I' for Inactive)
REMARK    1  A    between atoms: C_1  and  C_3
REMARK    2  A    between atoms: C_1  and  N_21
REMARK    3  A    between atoms: N_2  and  C_9
REMARK    4  A    between atoms: C_9  and  C_12
REMARK    5  A    between atoms: C_17  and  O_18
REMARK    6  A    between atoms: C_22  and  C_26
REMARK    7  A    between atoms: C_30  and  C_35
REMARK                            x       y       z     vdW  Elec       q    Type
REMARK                         _______ _______ _______ _____ _____    ______ ____
ROOT
ATOM      1  C   UNL     1      36.893 -21.356 -18.741  0.00  0.00    +0.089 C 
ENDROOT
BRANCH   1   3
ATOM      2  N   UNL     1      35.484 -18.274 -21.419  0.00  0.00    +0.387 N 
ATOM      3  C   UNL     1      36.488 -20.656 -20.035  0.00  0.00    +0.015 C 
ATOM      4  C   UNL     1      36.897 -18.659 -21.532  0.00  0.00    -0.077 C 
ATOM      5  C   UNL     1      34.626 -19.454 -21.251  0.00  0.00    -0.077 C 
ATOM      6  C   UNL     1      37.362 -19.423 -20.291  0.00  0.00    -0.021 C 
ATOM      7  C   UNL     1      35.012 -20.245 -19.999  0.00  0.00    -0.021 C 
ATOM      8  H   UNL     1      35.382 -17.690 -20.589  0.00  0.00    -0.080 HD
BRANCH   2   9
ATOM      9  C   UNL     1      35.069 -17.500 -22.589  0.00  0.00    -0.077 C 
BRANCH   9  12
ATOM     10  O   UNL     1      32.231 -12.591 -20.006  0.00  0.00    -0.226 OA
ATOM     11  N   UNL     1      33.664 -13.570 -21.552  0.00  0.00    -0.246 N 
ATOM     12  C   UNL     1      35.053 -16.006 -22.276  0.00  0.00    -0.017 C 
ATOM     13  C   UNL     1      34.556 -15.753 -20.844  0.00  0.00    +0.020 C 
ATOM     14  C   UNL     1      34.175 -15.247 -23.284  0.00  0.00    +0.020 C 
ATOM     15  C   UNL     1      34.470 -14.259 -20.546  0.00  0.00    +0.097 C 
ATOM     16  C   UNL     1      34.095 -13.761 -22.941  0.00  0.00    +0.097 C 
ATOM     17  C   UNL     1      32.595 -12.754 -21.169  0.00  0.00    +0.405 C 
BRANCH  17  18
ATOM     18  O   UNL     1      31.987 -12.145 -22.235  0.00  0.00    -0.430 OA
ATOM     19  C   UNL     1      31.125 -11.043 -21.925  0.00  0.00    +0.257 C 
ENDBRANCH  17  18
ENDBRANCH   9  12
ENDBRANCH   2   9
ENDBRANCH   1   3
BRANCH   1  21
ATOM     20  O   UNL     1      36.858 -22.571 -16.140  0.00  0.00    -0.270 OA
ATOM     21  N   UNL     1      35.724 -21.848 -18.028  0.00  0.00    -0.301 N 
ATOM     22  C   UNL     1      35.816 -22.419 -16.774  0.00  0.00    +0.247 C 
ATOM     23  H   UNL     1      34.839 -21.772 -18.453  0.00  0.00    +0.150 HD
BRANCH  22  26
ATOM     24  N   UNL     1      33.546 -24.516 -13.123  0.00  0.00    -0.318 N 
ATOM     25  N   UNL     1      35.452 -23.802 -14.013  0.00  0.00    -0.318 N 
ATOM     26  C   UNL     1      34.536 -22.895 -16.191  0.00  0.00    +0.068 C 
ATOM     27  C   UNL     1      34.483 -23.505 -14.936  0.00  0.00    +0.063 C 
ATOM     28  C   UNL     1      33.323 -22.750 -16.872  0.00  0.00    +0.006 C 
ATOM     29  C   UNL     1      33.302 -23.960 -14.357  0.00  0.00    +0.059 C 
ATOM     30  C   UNL     1      34.844 -24.405 -12.948  0.00  0.00    +0.144 C 
ATOM     31  C   UNL     1      32.122 -23.197 -16.316  0.00  0.00    +0.001 C 
ATOM     32  C   UNL     1      32.093 -23.807 -15.056  0.00  0.00    +0.016 C 
ATOM     33  H   UNL     1      32.890 -24.912 -12.504  0.00  0.00    +0.148 HD
ATOM     34  H   UNL     1      36.415 -23.615 -14.102  0.00  0.00    +0.148 HD
BRANCH  30  35
ATOM     35  C   UNL     1      35.519 -24.887 -11.730  0.00  0.00    +0.037 C 
ATOM     36  C   UNL     1      36.848 -25.627 -12.020  0.00  0.00    +0.003 C 
ATOM     37  C   UNL     1      35.776 -23.769 -10.690  0.00  0.00    +0.003 C 
ENDBRANCH  30  35
ENDBRANCH  22  26
ENDBRANCH   1  21
TORSDOF 7
ENDMDL
MODEL 4
REMARK VINA RESULT:     -11.1      1.603      2.676
REMARK  Name = 11961293
REMARK  7 active torsions:
REMARK  status: ('A' for Active; 'I' for Inactive)
REMARK    1  A    between atoms: C_1  and  C_3
REMARK    2  A    between atoms: C_1  and  N_21
REMARK    3  A    between atoms: N_2  and  C_9
REMARK    4  A    between atoms: C_9  and  C_12
REMARK    5  A    between atoms: C_17  and  O_18
REMARK    6  A    between atoms: C_22  and  C_26
REMARK    7  A    between atoms: C_30  and  C_35
REMARK                            x       y       z     vdW  Elec       q    Type
REMARK                         _______ _______ _______ _____ _____    ______ ____
ROOT
ATOM      1  C   UNL     1      33.245 -13.112 -23.793  0.00  0.00    +0.089 C 
ENDROOT
BRANCH   1   3
ATOM      2  N   UNL     1      35.343 -16.875 -23.486  0.00  0.00    +0.387 N 
ATOM      3  C   UNL     1      33.516 -14.582 -23.487  0.00  0.00    +0.015 C 
ATOM      4  C   UNL     1      34.992 -16.205 -22.227  0.00  0.00    -0.077 C 
ATOM      5  C   UNL     1      34.237 -16.806 -24.450  0.00  0.00    -0.077 C 
ATOM      6  C   UNL     1      34.647 -14.733 -22.463  0.00  0.00    -0.021 C 
ATOM      7  C   UNL     1      33.867 -15.354 -24.763  0.00  0.00    -0.021 C 
ATOM      8  H   UNL     1      36.143 -16.387 -23.890  0.00  0.00    -0.080 HD
BRANCH   2   9
ATOM      9  C   UNL     1      35.720 -18.267 -23.237  0.00  0.00    -0.077 C 
BRANCH   9  12
ATOM     10  O   UNL     1      36.797 -22.104 -18.447  0.00  0.00    -0.226 OA
ATOM     11  N   UNL     1      35.505 -20.555 -19.601  0.00  0.00    -0.246 N 
ATOM     12  C   UNL     1      35.490 -18.640 -21.775  0.00  0.00    -0.017 C 
ATOM     13  C   UNL     1      36.798 -19.109 -21.118  0.00  0.00    +0.020 C 
ATOM     14  C   UNL     1      34.415 -19.731 -21.652  0.00  0.00    +0.020 C 
ATOM     15  C   UNL     1      36.566 -19.550 -19.676  0.00  0.00    +0.097 C 
ATOM     16  C   UNL     1      34.225 -20.162 -20.199  0.00  0.00    +0.097 C 
ATOM     17  C   UNL     1      35.726 -21.772 -18.951  0.00  0.00    +0.405 C 
BRANCH  17  18
ATOM     18  O   UNL     1      34.611 -22.567 -18.927  0.00  0.00    -0.430 OA
ATOM     19  C   UNL     1      33.998 -22.758 -17.646  0.00  0.00    +0.257 C 
ENDBRANCH  17  18
ENDBRANCH   9  12
ENDBRANCH   2   9
ENDBRANCH   1   3
BRANCH   1  21
ATOM     20  O   UNL     1      32.343 -10.391 -23.632  0.00  0.00    -0.270 OA
ATOM     21  N   UNL     1      32.879 -12.388 -22.585  0.00  0.00    -0.301 N 
ATOM     22  C   UNL     1      32.455 -11.075 -22.617  0.00  0.00    +0.247 C 
ATOM     23  H   UNL     1      32.936 -12.850 -21.717  0.00  0.00    +0.150 HD
BRANCH  22  26
ATOM     24  N   UNL     1      31.891  -7.114 -19.994  0.00  0.00    -0.318 N 
ATOM     25  N   UNL     1      32.360  -8.037 -21.960  0.00  0.00    -0.318 N 
ATOM     26  C   UNL     1      32.144 -10.470 -21.297  0.00  0.00    +0.068 C 
ATOM     27  C   UNL     1      32.127  -9.086 -21.109  0.00  0.00    +0.063 C 
ATOM     28  C   UNL     1      31.850 -11.259 -20.181  0.00  0.00    +0.006 C 
ATOM     29  C   UNL     1      31.835  -8.484 -19.888  0.00  0.00    +0.059 C 
ATOM     30  C   UNL     1      32.208  -6.880 -21.248  0.00  0.00    +0.144 C 
ATOM     31  C   UNL     1      31.554 -10.684 -18.942  0.00  0.00    +0.001 C 
ATOM     32  C   UNL     1      31.543  -9.293 -18.778  0.00  0.00    +0.016 C 
ATOM     33  H   UNL     1      31.729  -6.451 -19.284  0.00  0.00    +0.148 HD
ATOM     34  H   UNL     1      32.596  -8.105 -22.914  0.00  0.00    +0.148 HD
BRANCH  30  35
ATOM     35  C   UNL     1      32.368  -5.515 -21.779  0.00  0.00    +0.037 C 
ATOM     36  C   UNL     1      32.812  -5.484 -23.262  0.00  0.00    +0.003 C 
ATOM     37  C   UNL     1      31.102  -4.640 -21.609  0.00  0.00    +0.003 C 
ENDBRANCH  30  35
ENDBRANCH  22  26
ENDBRANCH   1  21
TORSDOF 7
ENDMDL
MODEL 5
REMARK VINA RESULT:     -11.0      2.391      4.518
REMARK  Name = 11961293
REMARK  7 active torsions:
REMARK  status: ('A' for Active; 'I' for Inactive)
REMARK    1  A    between atoms: C_1  and  C_3
REMARK    2  A    between atoms: C_1  and  N_21
REMARK    3  A    between atoms: N_2  and  C_9
REMARK    4  A    between atoms: C_9  and  C_12
REMARK    5  A    between atoms: C_17  and  O_18
REMARK    6  A    between atoms: C_22  and  C_26
REMARK    7  A    between atoms: C_30  and  C_35
REMARK                            x       y       z     vdW  Elec       q    Type
REMARK                         _______ _______ _______ _____ _____    ______ ____
ROOT
ATOM      1  C   UNL     1      35.949 -18.278 -21.389  0.00  0.00    +0.089 C 
ENDROOT
BRANCH   1   3
ATOM      2  N   UNL     1      34.476 -21.444 -18.846  0.00  0.00    +0.387 N 
ATOM      3  C   UNL     1      35.473 -19.659 -20.948  0.00  0.00    +0.015 C 
ATOM      4  C   UNL     1      33.576 -20.969 -19.905  0.00  0.00    -0.077 C 
ATOM      5  C   UNL     1      35.854 -21.572 -19.339  0.00  0.00    -0.077 C 
ATOM      6  C   UNL     1      34.027 -19.608 -20.443  0.00  0.00    -0.021 C 
ATOM      7  C   UNL     1      36.382 -20.232 -19.856  0.00  0.00    -0.021 C 
ATOM      8  H   UNL     1      34.473 -20.751 -18.097  0.00  0.00    -0.080 HD
BRANCH   2   9
ATOM      9  C   UNL     1      34.004 -22.719 -18.307  0.00  0.00    -0.077 C 
BRANCH   9  12
ATOM     10  O   UNL     1      32.490 -25.253 -12.819  0.00  0.00    -0.226 OA
ATOM     11  N   UNL     1      32.316 -23.608 -14.452  0.00  0.00    -0.246 N 
ATOM     12  C   UNL     1      33.495 -22.551 -16.878  0.00  0.00    -0.017 C 
ATOM     13  C   UNL     1      34.296 -23.430 -15.905  0.00  0.00    +0.020 C 
ATOM     14  C   UNL     1      31.998 -22.890 -16.788  0.00  0.00    +0.020 C 
ATOM     15  C   UNL     1      33.749 -23.322 -14.484  0.00  0.00    +0.097 C 
ATOM     16  C   UNL     1      31.492 -22.792 -15.350  0.00  0.00    +0.097 C 
ATOM     17  C   UNL     1      31.803 -24.567 -13.574  0.00  0.00    +0.405 C 
BRANCH  17  18
ATOM     18  O   UNL     1      30.438 -24.666 -13.639  0.00  0.00    -0.430 OA
ATOM     19  C   UNL     1      29.919 -25.679 -14.509  0.00  0.00    +0.257 C 
ENDBRANCH  17  18
ENDBRANCH   9  12
ENDBRANCH   2   9
ENDBRANCH   1   3
BRANCH   1  21
ATOM     20  O   UNL     1      35.576 -15.694 -22.582  0.00  0.00    -0.270 OA
ATOM     21  N   UNL     1      35.023 -17.245 -20.951  0.00  0.00    -0.301 N 
ATOM     22  C   UNL     1      34.921 -16.030 -21.598  0.00  0.00    +0.247 C 
ATOM     23  H   UNL     1      34.451 -17.418 -20.168  0.00  0.00    +0.150 HD
BRANCH  22  26
ATOM     24  N   UNL     1      32.656 -11.828 -21.926  0.00  0.00    -0.318 N 
ATOM     25  N   UNL     1      34.112 -13.271 -22.784  0.00  0.00    -0.318 N 
ATOM     26  C   UNL     1      33.948 -15.072 -21.013  0.00  0.00    +0.068 C 
ATOM     27  C   UNL     1      33.655 -13.855 -21.631  0.00  0.00    +0.063 C 
ATOM     28  C   UNL     1      33.278 -15.348 -19.817  0.00  0.00    +0.006 C 
ATOM     29  C   UNL     1      32.746 -12.935 -21.113  0.00  0.00    +0.059 C 
ATOM     30  C   UNL     1      33.487 -12.063 -22.917  0.00  0.00    +0.144 C 
ATOM     31  C   UNL     1      32.362 -14.445 -19.273  0.00  0.00    +0.001 C 
ATOM     32  C   UNL     1      32.083 -13.229 -19.910  0.00  0.00    +0.016 C 
ATOM     33  H   UNL     1      32.091 -11.033 -21.794  0.00  0.00    +0.148 HD
ATOM     34  H   UNL     1      34.773 -13.655 -23.405  0.00  0.00    +0.148 HD
BRANCH  30  35
ATOM     35  C   UNL     1      33.687 -11.107 -24.021  0.00  0.00    +0.037 C 
ATOM     36  C   UNL     1      32.581 -10.026 -24.101  0.00  0.00    +0.003 C 
ATOM     37  C   UNL     1      35.072 -10.417 -23.989  0.00  0.00    +0.003 C 
ENDBRANCH  30  35
ENDBRANCH  22  26
ENDBRANCH   1  21
TORSDOF 7
ENDMDL
MODEL 6
REMARK VINA RESULT:     -11.0      2.620      4.238
REMARK  Name = 11961293
REMARK  7 active torsions:
REMARK  status: ('A' for Active; 'I' for Inactive)
REMARK    1  A    between atoms: C_1  and  C_3
REMARK    2  A    between atoms: C_1  and  N_21
REMARK    3  A    between atoms: N_2  and  C_9
REMARK    4  A    between atoms: C_9  and  C_12
REMARK    5  A    between atoms: C_17  and  O_18
REMARK    6  A    between atoms: C_22  and  C_26
REMARK    7  A    between atoms: C_30  and  C_35
REMARK                            x       y       z     vdW  Elec       q    Type
REMARK                         _______ _______ _______ _____ _____    ______ ____
ROOT
ATOM      1  C   UNL     1      36.101 -17.683 -21.998  0.00  0.00    +0.089 C 
ENDROOT
BRANCH   1   3
ATOM      2  N   UNL     1      35.339 -20.832 -19.142  0.00  0.00    +0.387 N 
ATOM      3  C   UNL     1      35.875 -19.082 -21.432  0.00  0.00    +0.015 C 
ATOM      4  C   UNL     1      34.291 -20.567 -20.136  0.00  0.00    -0.077 C 
ATOM      5  C   UNL     1      36.673 -20.799 -19.757  0.00  0.00    -0.077 C 
ATOM      6  C   UNL     1      34.487 -19.200 -20.794  0.00  0.00    -0.021 C 
ATOM      7  C   UNL     1      36.950 -19.438 -20.401  0.00  0.00    -0.021 C 
ATOM      8  H   UNL     1      35.299 -20.094 -18.438  0.00  0.00    -0.080 HD
BRANCH   2   9
ATOM      9  C   UNL     1      35.110 -22.119 -18.486  0.00  0.00    -0.077 C 
BRANCH   9  12
ATOM     10  O   UNL     1      38.577 -24.198 -13.744  0.00  0.00    -0.226 OA
ATOM     11  N   UNL     1      36.670 -23.208 -14.628  0.00  0.00    -0.246 N 
ATOM     12  C   UNL     1      35.492 -22.053 -17.009  0.00  0.00    -0.017 C 
ATOM     13  C   UNL     1      37.014 -22.168 -16.833  0.00  0.00    +0.020 C 
ATOM     14  C   UNL     1      34.781 -23.157 -16.211  0.00  0.00    +0.020 C 
ATOM     15  C   UNL     1      37.401 -22.173 -15.357  0.00  0.00    +0.097 C 
ATOM     16  C   UNL     1      35.209 -23.145 -14.745  0.00  0.00    +0.097 C 
ATOM     17  C   UNL     1      37.353 -24.143 -13.845  0.00  0.00    +0.405 C 
BRANCH  17  18
ATOM     18  O   UNL     1      36.510 -25.001 -13.191  0.00  0.00    -0.430 OA
ATOM     19  C   UNL     1      37.130 -26.103 -12.516  0.00  0.00    +0.257 C 
ENDBRANCH  17  18
ENDBRANCH   9  12
ENDBRANCH   2   9
ENDBRANCH   1   3
BRANCH   1  21
ATOM     20  O   UNL     1      35.373 -15.133 -23.099  0.00  0.00    -0.270 OA
ATOM     21  N   UNL     1      35.149 -16.735 -21.439  0.00  0.00    -0.301 N 
ATOM     22  C   UNL     1      34.869 -15.530 -22.051  0.00  0.00    +0.247 C 
ATOM     23  H   UNL     1      34.690 -16.961 -20.598  0.00  0.00    +0.150 HD
BRANCH  22  26
ATOM     24  N   UNL     1      32.509 -11.372 -21.868  0.00  0.00    -0.318 N 
ATOM     25  N   UNL     1      33.969 -12.681 -22.913  0.00  0.00    -0.318 N 
ATOM     26  C   UNL     1      33.894 -14.663 -21.341  0.00  0.00    +0.068 C 
ATOM     27  C   UNL     1      33.558 -13.394 -21.817  0.00  0.00    +0.063 C 
ATOM     28  C   UNL     1      33.265 -15.080 -20.163  0.00  0.00    +0.006 C 
ATOM     29  C   UNL     1      32.646 -12.556 -21.181  0.00  0.00    +0.059 C 
ATOM     30  C   UNL     1      33.315 -11.481 -22.900  0.00  0.00    +0.144 C 
ATOM     31  C   UNL     1      32.346 -14.261 -19.502  0.00  0.00    +0.001 C 
ATOM     32  C   UNL     1      32.024 -12.991 -19.998  0.00  0.00    +0.016 C 
ATOM     33  H   UNL     1      31.932 -10.609 -21.637  0.00  0.00    +0.148 HD
ATOM     34  H   UNL     1      34.619 -12.981 -23.590  0.00  0.00    +0.148 HD
BRANCH  30  35
ATOM     35  C   UNL     1      33.463 -10.409 -23.901  0.00  0.00    +0.037 C 
ATOM     36  C   UNL     1      32.233  -9.472 -23.979  0.00  0.00    +0.003 C 
ATOM     37  C   UNL     1      34.740  -9.557 -23.701  0.00  0.00    +0.003 C 
ENDBRANCH  30  35
ENDBRANCH  22  26
ENDBRANCH   1  21
TORSDOF 7
ENDMDL
MODEL 7
REMARK VINA RESULT:     -10.9      2.677     12.704
REMARK  Name = 11961293
REMARK  7 active torsions:
REMARK  status: ('A' for Active; 'I' for Inactive)
REMARK    1  A    between atoms: C_1  and  C_3
REMARK    2  A    between atoms: C_1  and  N_21
REMARK    3  A    between atoms: N_2  and  C_9
REMARK    4  A    between atoms: C_9  and  C_12
REMARK    5  A    between atoms: C_17  and  O_18
REMARK    6  A    between atoms: C_22  and  C_26
REMARK    7  A    between atoms: C_30  and  C_35
REMARK                            x       y       z     vdW  Elec       q    Type
REMARK                         _______ _______ _______ _____ _____    ______ ____
ROOT
ATOM      1  C   UNL     1      34.312 -22.666 -19.160  0.00  0.00    +0.089 C 
ENDROOT
BRANCH   1   3
ATOM      2  N   UNL     1      35.776 -19.084 -21.078  0.00  0.00    +0.387 N 
ATOM      3  C   UNL     1      34.718 -21.208 -19.357  0.00  0.00    +0.015 C 
ATOM      4  C   UNL     1      34.349 -19.117 -20.732  0.00  0.00    -0.077 C 
ATOM      5  C   UNL     1      36.597 -19.643 -19.996  0.00  0.00    -0.077 C 
ATOM      6  C   UNL     1      33.881 -20.549 -20.459  0.00  0.00    -0.021 C 
ATOM      7  C   UNL     1      36.207 -21.092 -19.699  0.00  0.00    -0.021 C 
ATOM      8  H   UNL     1      35.913 -19.662 -21.907  0.00  0.00    -0.080 HD
BRANCH   2   9
ATOM      9  C   UNL     1      36.197 -17.717 -21.386  0.00  0.00    -0.077 C 
BRANCH   9  12
ATOM     10  O   UNL     1      33.987 -12.724 -24.389  0.00  0.00    -0.226 OA
ATOM     11  N   UNL     1      33.861 -14.376 -22.759  0.00  0.00    -0.246 N 
ATOM     12  C   UNL     1      35.006 -16.867 -21.825  0.00  0.00    -0.017 C 
ATOM     13  C   UNL     1      35.180 -16.390 -23.275  0.00  0.00    +0.020 C 
ATOM     14  C   UNL     1      34.822 -15.662 -20.889  0.00  0.00    +0.020 C 
ATOM     15  C   UNL     1      34.030 -15.482 -23.700  0.00  0.00    +0.097 C 
ATOM     16  C   UNL     1      33.676 -14.766 -21.357  0.00  0.00    +0.097 C 
ATOM     17  C   UNL     1      33.834 -13.055 -23.215  0.00  0.00    +0.405 C 
BRANCH  17  18
ATOM     18  O   UNL     1      33.613 -12.154 -22.207  0.00  0.00    -0.430 OA
ATOM     19  C   UNL     1      32.438 -11.342 -22.332  0.00  0.00    +0.257 C 
ENDBRANCH  17  18
ENDBRANCH   9  12
ENDBRANCH   2   9
ENDBRANCH   1   3
BRANCH   1  21
ATOM     20  O   UNL     1      35.721 -22.917 -16.671  0.00  0.00    -0.270 OA
ATOM     21  N   UNL     1      33.724 -22.869 -17.845  0.00  0.00    -0.301 N 
ATOM     22  C   UNL     1      34.495 -22.977 -16.705  0.00  0.00    +0.247 C 
ATOM     23  H   UNL     1      32.744 -22.931 -17.765  0.00  0.00    +0.150 HD
BRANCH  22  26
ATOM     24  N   UNL     1      34.493 -24.666 -12.229  0.00  0.00    -0.318 N 
ATOM     25  N   UNL     1      35.598 -24.317 -14.125  0.00  0.00    -0.318 N 
ATOM     26  C   UNL     1      33.744 -23.208 -15.444  0.00  0.00    +0.068 C 
ATOM     27  C   UNL     1      34.339 -23.821 -14.338  0.00  0.00    +0.063 C 
ATOM     28  C   UNL     1      32.408 -22.819 -15.305  0.00  0.00    +0.006 C 
ATOM     29  C   UNL     1      33.668 -24.049 -13.140  0.00  0.00    +0.059 C 
ATOM     30  C   UNL     1      35.642 -24.811 -12.851  0.00  0.00    +0.144 C 
ATOM     31  C   UNL     1      31.710 -23.036 -14.115  0.00  0.00    +0.001 C 
ATOM     32  C   UNL     1      32.326 -23.653 -13.019  0.00  0.00    +0.016 C 
ATOM     33  H   UNL     1      34.273 -24.939 -11.309  0.00  0.00    +0.148 HD
ATOM     34  H   UNL     1      36.340 -24.317 -14.774  0.00  0.00    +0.148 HD
BRANCH  30  35
ATOM     35  C   UNL     1      36.812 -25.438 -12.211  0.00  0.00    +0.037 C 
ATOM     36  C   UNL     1      37.584 -26.395 -13.151  0.00  0.00    +0.003 C 
ATOM     37  C   UNL     1      37.801 -24.411 -11.606  0.00  0.00    +0.003 C 
ENDBRANCH  30  35
ENDBRANCH  22  26
ENDBRANCH   1  21
TORSDOF 7
ENDMDL
MODEL 8
REMARK VINA RESULT:     -10.7      2.385     11.799
REMARK  Name = 11961293
REMARK  7 active torsions:
REMARK  status: ('A' for Active; 'I' for Inactive)
REMARK    1  A    between atoms: C_1  and  C_3
REMARK    2  A    between atoms: C_1  and  N_21
REMARK    3  A    between atoms: N_2  and  C_9
REMARK    4  A    between atoms: C_9  and  C_12
REMARK    5  A    between atoms: C_17  and  O_18
REMARK    6  A    between atoms: C_22  and  C_26
REMARK    7  A    between atoms: C_30  and  C_35
REMARK                            x       y       z     vdW  Elec       q    Type
REMARK                         _______ _______ _______ _____ _____    ______ ____
ROOT
ATOM      1  C   UNL     1      34.772 -20.531 -21.348  0.00  0.00    +0.089 C 
ENDROOT
BRANCH   1   3
ATOM      2  N   UNL     1      34.637 -16.345 -22.404  0.00  0.00    +0.387 N 
ATOM      3  C   UNL     1      35.243 -19.144 -21.774  0.00  0.00    +0.015 C 
ATOM      4  C   UNL     1      35.318 -16.693 -21.151  0.00  0.00    -0.077 C 
ATOM      5  C   UNL     1      34.980 -17.292 -23.474  0.00  0.00    -0.077 C 
ATOM      6  C   UNL     1      34.940 -18.103 -20.690  0.00  0.00    -0.021 C 
ATOM      7  C   UNL     1      34.590 -18.722 -23.093  0.00  0.00    -0.021 C 
ATOM      8  H   UNL     1      33.631 -16.405 -22.244  0.00  0.00    -0.080 HD
BRANCH   2   9
ATOM      9  C   UNL     1      34.968 -14.978 -22.805  0.00  0.00    -0.077 C 
BRANCH   9  12
ATOM     10  O   UNL     1      32.325  -9.478 -21.541  0.00  0.00    -0.226 OA
ATOM     11  N   UNL     1      32.258 -11.783 -21.830  0.00  0.00    -0.246 N 
ATOM     12  C   UNL     1      33.726 -14.090 -22.786  0.00  0.00    -0.017 C 
ATOM     13  C   UNL     1      34.066 -12.665 -23.250  0.00  0.00    +0.020 C 
ATOM     14  C   UNL     1      33.101 -14.055 -21.382  0.00  0.00    +0.020 C 
ATOM     15  C   UNL     1      32.846 -11.751 -23.168  0.00  0.00    +0.097 C 
ATOM     16  C   UNL     1      31.898 -13.116 -21.333  0.00  0.00    +0.097 C 
ATOM     17  C   UNL     1      32.026 -10.597 -21.128  0.00  0.00    +0.405 C 
BRANCH  17  18
ATOM     18  O   UNL     1      31.420 -10.809 -19.918  0.00  0.00    -0.430 OA
ATOM     19  C   UNL     1      32.114 -10.309 -18.768  0.00  0.00    +0.257 C 
ENDBRANCH  17  18
ENDBRANCH   9  12
ENDBRANCH   2   9
ENDBRANCH   1   3
BRANCH   1  21
ATOM     20  O   UNL     1      33.663 -22.437 -19.509  0.00  0.00    -0.270 OA
ATOM     21  N   UNL     1      35.296 -20.879 -20.036  0.00  0.00    -0.301 N 
ATOM     22  C   UNL     1      34.683 -21.814 -19.226  0.00  0.00    +0.247 C 
ATOM     23  H   UNL     1      36.114 -20.434 -19.716  0.00  0.00    +0.150 HD
BRANCH  22  26
ATOM     24  N   UNL     1      34.270 -23.335 -14.709  0.00  0.00    -0.318 N 
ATOM     25  N   UNL     1      33.322 -22.989 -16.689  0.00  0.00    -0.318 N 
ATOM     26  C   UNL     1      35.327 -22.038 -17.906  0.00  0.00    +0.068 C 
ATOM     27  C   UNL     1      34.622 -22.575 -16.827  0.00  0.00    +0.063 C 
ATOM     28  C   UNL     1      36.672 -21.724 -17.685  0.00  0.00    +0.006 C 
ATOM     29  C   UNL     1      35.193 -22.802 -15.578  0.00  0.00    +0.059 C 
ATOM     30  C   UNL     1      33.160 -23.434 -15.407  0.00  0.00    +0.144 C 
ATOM     31  C   UNL     1      37.272 -21.940 -16.442  0.00  0.00    +0.001 C 
ATOM     32  C   UNL     1      36.545 -22.480 -15.374  0.00  0.00    +0.016 C 
ATOM     33  H   UNL     1      34.410 -23.589 -13.768  0.00  0.00    +0.148 HD
ATOM     34  H   UNL     1      32.629 -22.968 -17.389  0.00  0.00    +0.148 HD
BRANCH  30  35
ATOM     35  C   UNL     1      31.913 -23.969 -14.832  0.00  0.00    +0.037 C 
ATOM     36  C   UNL     1      32.145 -24.844 -13.576  0.00  0.00    +0.003 C 
ATOM     37  C   UNL     1      30.871 -22.873 -14.504  0.00  0.00    +0.003 C 
ENDBRANCH  30  35
ENDBRANCH  22  26
ENDBRANCH   1  21
TORSDOF 7
ENDMDL
MODEL 9
REMARK VINA RESULT:     -10.4      2.493     12.012
REMARK  Name = 11961293
REMARK  7 active torsions:
REMARK  status: ('A' for Active; 'I' for Inactive)
REMARK    1  A    between atoms: C_1  and  C_3
REMARK    2  A    between atoms: C_1  and  N_21
REMARK    3  A    between atoms: N_2  and  C_9
REMARK    4  A    between atoms: C_9  and  C_12
REMARK    5  A    between atoms: C_17  and  O_18
REMARK    6  A    between atoms: C_22  and  C_26
REMARK    7  A    between atoms: C_30  and  C_35
REMARK                            x       y       z     vdW  Elec       q    Type
REMARK                         _______ _______ _______ _____ _____    ______ ____
ROOT
ATOM      1  C   UNL     1      35.011 -22.351 -19.546  0.00  0.00    +0.089 C 
ENDROOT
BRANCH   1   3
ATOM      2  N   UNL     1      35.963 -18.539 -21.339  0.00  0.00    +0.387 N 
ATOM      3  C   UNL     1      35.259 -20.852 -19.680  0.00  0.00    +0.015 C 
ATOM      4  C   UNL     1      34.581 -18.733 -20.883  0.00  0.00    -0.077 C 
ATOM      5  C   UNL     1      36.923 -19.075 -20.363  0.00  0.00    -0.077 C 
ATOM      6  C   UNL     1      34.274 -20.217 -20.667  0.00  0.00    -0.021 C 
ATOM      7  C   UNL     1      36.696 -20.570 -20.130  0.00  0.00    -0.021 C 
ATOM      8  H   UNL     1      36.083 -19.053 -22.211  0.00  0.00    -0.080 HD
BRANCH   2   9
ATOM      9  C   UNL     1      36.226 -17.122 -21.590  0.00  0.00    -0.077 C 
BRANCH   9  12
ATOM     10  O   UNL     1      33.434 -12.327 -24.426  0.00  0.00    -0.226 OA
ATOM     11  N   UNL     1      33.523 -14.015 -22.830  0.00  0.00    -0.246 N 
ATOM     12  C   UNL     1      34.943 -16.392 -21.980  0.00  0.00    -0.017 C 
ATOM     13  C   UNL     1      35.028 -15.872 -23.423  0.00  0.00    +0.020 C 
ATOM     14  C   UNL     1      34.662 -15.230 -21.013  0.00  0.00    +0.020 C 
ATOM     15  C   UNL     1      33.779 -15.079 -23.799  0.00  0.00    +0.097 C 
ATOM     16  C   UNL     1      33.418 -14.449 -21.433  0.00  0.00    +0.097 C 
ATOM     17  C   UNL     1      33.347 -12.695 -23.256  0.00  0.00    +0.405 C 
BRANCH  17  18
ATOM     18  O   UNL     1      33.063 -11.841 -22.223  0.00  0.00    -0.430 OA
ATOM     19  C   UNL     1      32.304 -10.673 -22.561  0.00  0.00    +0.257 C 
ENDBRANCH  17  18
ENDBRANCH   9  12
ENDBRANCH   2   9
ENDBRANCH   1   3
BRANCH   1  21
ATOM     20  O   UNL     1      32.456 -22.299 -18.236  0.00  0.00    -0.270 OA
ATOM     21  N   UNL     1      34.736 -22.712 -18.163  0.00  0.00    -0.301 N 
ATOM     22  C   UNL     1      33.464 -22.651 -17.628  0.00  0.00    +0.247 C 
ATOM     23  H   UNL     1      35.480 -23.008 -17.590  0.00  0.00    +0.150 HD
BRANCH  22  26
ATOM     24  N   UNL     1      30.652 -23.846 -13.947  0.00  0.00    -0.318 N 
ATOM     25  N   UNL     1      30.837 -23.279 -16.088  0.00  0.00    -0.318 N 
ATOM     26  C   UNL     1      33.353 -23.026 -16.196  0.00  0.00    +0.068 C 
ATOM     27  C   UNL     1      32.118 -23.290 -15.600  0.00  0.00    +0.063 C 
ATOM     28  C   UNL     1      34.482 -23.135 -15.378  0.00  0.00    +0.006 C 
ATOM     29  C   UNL     1      31.976 -23.648 -14.262  0.00  0.00    +0.059 C 
ATOM     30  C   UNL     1      29.998 -23.617 -15.064  0.00  0.00    +0.144 C 
ATOM     31  C   UNL     1      34.371 -23.492 -14.032  0.00  0.00    +0.001 C 
ATOM     32  C   UNL     1      33.122 -23.752 -13.455  0.00  0.00    +0.016 C 
ATOM     33  H   UNL     1      30.275 -24.105 -13.075  0.00  0.00    +0.148 HD
ATOM     34  H   UNL     1      30.570 -23.065 -17.012  0.00  0.00    +0.148 HD
BRANCH  30  35
ATOM     35  C   UNL     1      28.530 -23.727 -15.154  0.00  0.00    +0.037 C 
ATOM     36  C   UNL     1      27.808 -22.361 -15.047  0.00  0.00    +0.003 C 
ATOM     37  C   UNL     1      28.049 -24.458 -16.431  0.00  0.00    +0.003 C 
ENDBRANCH  30  35
ENDBRANCH  22  26
ENDBRANCH   1  21
TORSDOF 7
ENDMDL
