MODEL 1
REMARK VINA RESULT:     -11.7      0.000      0.000
REMARK  Name = 24180720
REMARK  6 active torsions:
REMARK  status: ('A' for Active; 'I' for Inactive)
REMARK    1  A    between atoms: C_2  and  C_6
REMARK    2  A    between atoms: C_2  and  C_21
REMARK    3  A    between atoms: C_10  and  C_14
REMARK    4  A    between atoms: C_22  and  N_27
REMARK    5  A    between atoms: N_27  and  S_29
REMARK    6  A    between atoms: S_29  and  C_32
REMARK                            x       y       z     vdW  Elec       q    Type
REMARK                         _______ _______ _______ _____ _____    ______ ____
ROOT
ATOM      1  O   UNL     1      34.910 -13.227 -21.634  0.00  0.00    -0.286 OA
ATOM      2  C   UNL     1      34.001 -13.293 -22.482  0.00  0.00    +0.201 C 
ENDROOT
BRANCH   2   6
ATOM      3  N   UNL     1      33.486 -15.365 -25.389  0.00  0.00    -0.297 N 
ATOM      4  N   UNL     1      34.173 -17.613 -24.861  0.00  0.00    -0.229 NA
ATOM      5  C   UNL     1      34.262 -15.706 -23.323  0.00  0.00    +0.036 C 
ATOM      6  C   UNL     1      33.905 -14.338 -23.460  0.00  0.00    +0.056 C 
ATOM      7  C   UNL     1      33.987 -16.318 -24.542  0.00  0.00    +0.132 C 
ATOM      8  C   UNL     1      34.791 -16.509 -22.300  0.00  0.00    +0.005 C 
ATOM      9  C   UNL     1      33.431 -14.158 -24.742  0.00  0.00    +0.066 C 
ATOM     10  C   UNL     1      35.002 -17.858 -22.577  0.00  0.00    +0.021 C 
ATOM     11  C   UNL     1      34.683 -18.339 -23.840  0.00  0.00    +0.100 C 
ATOM     12  H   UNL     1      33.206 -15.524 -26.319  0.00  0.00    +0.154 HD
BRANCH  10  14
ATOM     13  N   UNL     1      37.374 -19.319 -20.099  0.00  0.00    -0.242 NA
ATOM     14  C   UNL     1      35.544 -18.740 -21.568  0.00  0.00    +0.021 C 
ATOM     15  C   UNL     1      34.811 -19.824 -21.096  0.00  0.00    +0.003 C 
ATOM     16  C   UNL     1      36.809 -18.533 -21.042  0.00  0.00    +0.099 C 
ATOM     17  C   UNL     1      35.360 -20.656 -20.126  0.00  0.00    +0.021 C 
ATOM     18  C   UNL     1      36.633 -20.363 -19.664  0.00  0.00    +0.099 C 
ENDBRANCH  10  14
ENDBRANCH   2   6
BRANCH   2  21
ATOM     19  F   UNL     1      34.293 -10.904 -23.946  0.00  0.00    -0.203 F 
ATOM     20  F   UNL     1      31.649 -13.423 -20.916  0.00  0.00    -0.204 F 
ATOM     21  C   UNL     1      32.995 -12.187 -22.434  0.00  0.00    +0.095 C 
ATOM     22  C   UNL     1      32.259  -9.996 -23.138  0.00  0.00    +0.092 C 
ATOM     23  C   UNL     1      33.197 -11.027 -23.183  0.00  0.00    +0.160 C 
ATOM     24  C   UNL     1      31.855 -12.315 -21.640  0.00  0.00    +0.145 C 
ATOM     25  C   UNL     1      31.119 -10.124 -22.344  0.00  0.00    +0.020 C 
ATOM     26  C   UNL     1      30.917 -11.283 -21.595  0.00  0.00    +0.031 C 
BRANCH  22  27
ATOM     27  N   UNL     1      32.464  -8.807 -23.902  0.00  0.00    -0.217 N 
ATOM     28  H   UNL     1      32.434  -8.828 -24.887  0.00  0.00    +0.173 HD
BRANCH  27  29
ATOM     29  S   UNL     1      32.763  -7.338 -23.057  0.00  0.00    +0.054 S 
ATOM     30  O   UNL     1      31.550  -6.541 -23.079  0.00  0.00    -0.154 OA
ATOM     31  O   UNL     1      33.456  -7.590 -21.809  0.00  0.00    -0.154 OA
BRANCH  29  32
ATOM     32  C   UNL     1      33.911  -6.562 -24.173  0.00  0.00    +0.172 C 
ATOM     33  C   UNL     1      35.330  -6.651 -23.658  0.00  0.00    +0.029 C 
ENDBRANCH  29  32
ENDBRANCH  27  29
ENDBRANCH  22  27
ENDBRANCH   2  21
TORSDOF 6
ENDMDL
MODEL 2
REMARK VINA RESULT:     -11.4      6.807     11.122
REMARK  Name = 24180720
REMARK  6 active torsions:
REMARK  status: ('A' for Active; 'I' for Inactive)
REMARK    1  A    between atoms: C_2  and  C_6
REMARK    2  A    between atoms: C_2  and  C_21
REMARK    3  A    between atoms: C_10  and  C_14
REMARK    4  A    between atoms: C_22  and  N_27
REMARK    5  A    between atoms: N_27  and  S_29
REMARK    6  A    between atoms: S_29  and  C_32
REMARK                            x       y       z     vdW  Elec       q    Type
REMARK                         _______ _______ _______ _____ _____    ______ ____
ROOT
ATOM      1  O   UNL     1      33.810 -24.182 -18.986  0.00  0.00    -0.286 OA
ATOM      2  C   UNL     1      33.864 -23.188 -18.239  0.00  0.00    +0.201 C 
ENDROOT
BRANCH   2   6
ATOM      3  N   UNL     1      31.511 -22.641 -15.560  0.00  0.00    -0.297 N 
ATOM      4  N   UNL     1      32.506 -23.395 -13.499  0.00  0.00    -0.229 NA
ATOM      5  C   UNL     1      33.575 -23.482 -15.704  0.00  0.00    +0.036 C 
ATOM      6  C   UNL     1      33.147 -23.090 -17.000  0.00  0.00    +0.056 C 
ATOM      7  C   UNL     1      32.532 -23.188 -14.829  0.00  0.00    +0.132 C 
ATOM      8  C   UNL     1      34.734 -24.057 -15.159  0.00  0.00    +0.005 C 
ATOM      9  C   UNL     1      31.873 -22.576 -16.881  0.00  0.00    +0.066 C 
ATOM     10  C   UNL     1      34.758 -24.292 -13.786  0.00  0.00    +0.021 C 
ATOM     11  C   UNL     1      33.646 -23.950 -13.029  0.00  0.00    +0.100 C 
ATOM     12  H   UNL     1      30.649 -22.340 -15.193  0.00  0.00    +0.154 HD
BRANCH  10  14
ATOM     13  N   UNL     1      37.011 -25.670 -11.153  0.00  0.00    -0.242 NA
ATOM     14  C   UNL     1      35.921 -24.881 -13.162  0.00  0.00    +0.021 C 
ATOM     15  C   UNL     1      37.043 -25.221 -13.912  0.00  0.00    +0.003 C 
ATOM     16  C   UNL     1      35.956 -25.124 -11.798  0.00  0.00    +0.099 C 
ATOM     17  C   UNL     1      38.148 -25.784 -13.283  0.00  0.00    +0.021 C 
ATOM     18  C   UNL     1      38.082 -25.986 -11.914  0.00  0.00    +0.099 C 
ENDBRANCH  10  14
ENDBRANCH   2   6
BRANCH   2  21
ATOM     19  F   UNL     1      33.050 -21.402 -20.261  0.00  0.00    -0.203 F 
ATOM     20  F   UNL     1      36.446 -22.681 -17.202  0.00  0.00    -0.204 F 
ATOM     21  C   UNL     1      34.726 -22.065 -18.722  0.00  0.00    +0.095 C 
ATOM     22  C   UNL     1      35.071 -20.168 -20.178  0.00  0.00    +0.092 C 
ATOM     23  C   UNL     1      34.266 -21.214 -19.727  0.00  0.00    +0.160 C 
ATOM     24  C   UNL     1      35.991 -21.870 -18.168  0.00  0.00    +0.145 C 
ATOM     25  C   UNL     1      36.336 -19.973 -19.623  0.00  0.00    +0.020 C 
ATOM     26  C   UNL     1      36.796 -20.824 -18.618  0.00  0.00    +0.031 C 
BRANCH  22  27
ATOM     27  N   UNL     1      34.603 -19.296 -21.207  0.00  0.00    -0.217 N 
ATOM     28  H   UNL     1      33.726 -19.441 -21.632  0.00  0.00    +0.173 HD
BRANCH  27  29
ATOM     29  S   UNL     1      35.612 -17.985 -21.683  0.00  0.00    +0.054 S 
ATOM     30  O   UNL     1      35.322 -16.848 -20.827  0.00  0.00    -0.154 OA
ATOM     31  O   UNL     1      36.977 -18.427 -21.882  0.00  0.00    -0.154 OA
BRANCH  29  32
ATOM     32  C   UNL     1      34.918 -17.618 -23.279  0.00  0.00    +0.172 C 
ATOM     33  C   UNL     1      34.284 -18.841 -23.903  0.00  0.00    +0.029 C 
ENDBRANCH  29  32
ENDBRANCH  27  29
ENDBRANCH  22  27
ENDBRANCH   2  21
TORSDOF 6
ENDMDL
MODEL 3
REMARK VINA RESULT:     -11.3      3.966      6.975
REMARK  Name = 24180720
REMARK  6 active torsions:
REMARK  status: ('A' for Active; 'I' for Inactive)
REMARK    1  A    between atoms: C_2  and  C_6
REMARK    2  A    between atoms: C_2  and  C_21
REMARK    3  A    between atoms: C_10  and  C_14
REMARK    4  A    between atoms: C_22  and  N_27
REMARK    5  A    between atoms: N_27  and  S_29
REMARK    6  A    between atoms: S_29  and  C_32
REMARK                            x       y       z     vdW  Elec       q    Type
REMARK                         _______ _______ _______ _____ _____    ______ ____
ROOT
ATOM      1  O   UNL     1      36.653 -19.302 -20.404  0.00  0.00    -0.286 OA
ATOM      2  C   UNL     1      35.480 -19.242 -20.817  0.00  0.00    +0.201 C 
ENDROOT
BRANCH   2   6
ATOM      3  N   UNL     1      32.409 -20.996 -20.107  0.00  0.00    -0.297 N 
ATOM      4  N   UNL     1      32.773 -22.447 -18.219  0.00  0.00    -0.229 NA
ATOM      5  C   UNL     1      34.458 -20.973 -19.218  0.00  0.00    +0.036 C 
ATOM      6  C   UNL     1      34.421 -20.066 -20.310  0.00  0.00    +0.056 C 
ATOM      7  C   UNL     1      33.188 -21.535 -19.117  0.00  0.00    +0.132 C 
ATOM      8  C   UNL     1      35.425 -21.390 -18.290  0.00  0.00    +0.005 C 
ATOM      9  C   UNL     1      33.147 -20.102 -20.838  0.00  0.00    +0.066 C 
ATOM     10  C   UNL     1      35.047 -22.334 -17.337  0.00  0.00    +0.021 C 
ATOM     11  C   UNL     1      33.745 -22.813 -17.351  0.00  0.00    +0.100 C 
ATOM     12  H   UNL     1      31.464 -21.216 -20.267  0.00  0.00    +0.154 HD
BRANCH  10  14
ATOM     13  N   UNL     1      38.223 -22.707 -15.419  0.00  0.00    -0.242 NA
ATOM     14  C   UNL     1      35.995 -22.805 -16.353  0.00  0.00    +0.021 C 
ATOM     15  C   UNL     1      35.639 -23.774 -15.420  0.00  0.00    +0.003 C 
ATOM     16  C   UNL     1      37.288 -22.309 -16.310  0.00  0.00    +0.099 C 
ATOM     17  C   UNL     1      36.574 -24.209 -14.487  0.00  0.00    +0.021 C 
ATOM     18  C   UNL     1      37.840 -23.650 -14.528  0.00  0.00    +0.099 C 
ENDBRANCH  10  14
ENDBRANCH   2   6
BRANCH   2  21
ATOM     19  F   UNL     1      35.346 -16.467 -20.349  0.00  0.00    -0.203 F 
ATOM     20  F   UNL     1      35.104 -19.992 -23.518  0.00  0.00    -0.204 F 
ATOM     21  C   UNL     1      35.231 -18.249 -21.907  0.00  0.00    +0.095 C 
ATOM     22  C   UNL     1      34.943 -15.962 -22.629  0.00  0.00    +0.092 C 
ATOM     23  C   UNL     1      35.176 -16.887 -21.612  0.00  0.00    +0.160 C 
ATOM     24  C   UNL     1      35.054 -18.686 -23.220  0.00  0.00    +0.145 C 
ATOM     25  C   UNL     1      34.766 -16.399 -23.942  0.00  0.00    +0.020 C 
ATOM     26  C   UNL     1      34.821 -17.761 -24.238  0.00  0.00    +0.031 C 
BRANCH  22  27
ATOM     27  N   UNL     1      34.885 -14.567 -22.329  0.00  0.00    -0.217 N 
ATOM     28  H   UNL     1      35.554 -14.148 -21.740  0.00  0.00    +0.173 HD
BRANCH  27  29
ATOM     29  S   UNL     1      33.614 -13.638 -23.026  0.00  0.00    +0.054 S 
ATOM     30  O   UNL     1      34.089 -12.279 -23.212  0.00  0.00    -0.154 OA
ATOM     31  O   UNL     1      32.986 -14.355 -24.118  0.00  0.00    -0.154 OA
BRANCH  29  32
ATOM     32  C   UNL     1      32.468 -13.602 -21.665  0.00  0.00    +0.172 C 
ATOM     33  C   UNL     1      33.179 -13.748 -20.338  0.00  0.00    +0.029 C 
ENDBRANCH  29  32
ENDBRANCH  27  29
ENDBRANCH  22  27
ENDBRANCH   2  21
TORSDOF 6
ENDMDL
MODEL 4
REMARK VINA RESULT:     -11.0      4.867     10.118
REMARK  Name = 24180720
REMARK  6 active torsions:
REMARK  status: ('A' for Active; 'I' for Inactive)
REMARK    1  A    between atoms: C_2  and  C_6
REMARK    2  A    between atoms: C_2  and  C_21
REMARK    3  A    between atoms: C_10  and  C_14
REMARK    4  A    between atoms: C_22  and  N_27
REMARK    5  A    between atoms: N_27  and  S_29
REMARK    6  A    between atoms: S_29  and  C_32
REMARK                            x       y       z     vdW  Elec       q    Type
REMARK                         _______ _______ _______ _____ _____    ______ ____
ROOT
ATOM      1  O   UNL     1      35.417 -16.688 -20.421  0.00  0.00    -0.286 OA
ATOM      2  C   UNL     1      35.254 -17.632 -21.216  0.00  0.00    +0.201 C 
ENDROOT
BRANCH   2   6
ATOM      3  N   UNL     1      34.423 -17.928 -24.714  0.00  0.00    -0.297 N 
ATOM      4  N   UNL     1      33.615 -15.796 -25.493  0.00  0.00    -0.229 NA
ATOM      5  C   UNL     1      34.351 -16.282 -23.206  0.00  0.00    +0.036 C 
ATOM      6  C   UNL     1      34.848 -17.457 -22.581  0.00  0.00    +0.056 C 
ATOM      7  C   UNL     1      34.097 -16.610 -24.535  0.00  0.00    +0.132 C 
ATOM      8  C   UNL     1      34.083 -14.965 -22.801  0.00  0.00    +0.005 C 
ATOM      9  C   UNL     1      34.881 -18.453 -23.533  0.00  0.00    +0.066 C 
ATOM     10  C   UNL     1      33.583 -14.081 -23.756  0.00  0.00    +0.021 C 
ATOM     11  C   UNL     1      33.375 -14.541 -25.049  0.00  0.00    +0.100 C 
ATOM     12  H   UNL     1      34.342 -18.422 -25.561  0.00  0.00    +0.154 HD
BRANCH  10  14
ATOM     13  N   UNL     1      31.962 -11.148 -22.120  0.00  0.00    -0.242 NA
ATOM     14  C   UNL     1      33.286 -12.711 -23.405  0.00  0.00    +0.021 C 
ATOM     15  C   UNL     1      33.990 -11.656 -23.976  0.00  0.00    +0.003 C 
ATOM     16  C   UNL     1      32.291 -12.406 -22.491  0.00  0.00    +0.099 C 
ATOM     17  C   UNL     1      33.680 -10.348 -23.621  0.00  0.00    +0.021 C 
ATOM     18  C   UNL     1      32.668 -10.149 -22.697  0.00  0.00    +0.099 C 
ENDBRANCH  10  14
ENDBRANCH   2   6
BRANCH   2  21
ATOM     19  F   UNL     1      33.175 -19.282 -20.270  0.00  0.00    -0.203 F 
ATOM     20  F   UNL     1      37.835 -18.771 -21.011  0.00  0.00    -0.204 F 
ATOM     21  C   UNL     1      35.496 -18.997 -20.653  0.00  0.00    +0.095 C 
ATOM     22  C   UNL     1      34.650 -21.038 -19.675  0.00  0.00    +0.092 C 
ATOM     23  C   UNL     1      34.424 -19.766 -20.201  0.00  0.00    +0.160 C 
ATOM     24  C   UNL     1      36.795 -19.500 -20.580  0.00  0.00    +0.145 C 
ATOM     25  C   UNL     1      35.949 -21.541 -19.602  0.00  0.00    +0.020 C 
ATOM     26  C   UNL     1      37.022 -20.772 -20.055  0.00  0.00    +0.031 C 
BRANCH  22  27
ATOM     27  N   UNL     1      33.555 -21.826 -19.211  0.00  0.00    -0.217 N 
ATOM     28  H   UNL     1      32.650 -21.703 -19.581  0.00  0.00    +0.173 HD
BRANCH  27  29
ATOM     29  S   UNL     1      33.857 -22.997 -17.986  0.00  0.00    +0.054 S 
ATOM     30  O   UNL     1      33.800 -24.317 -18.588  0.00  0.00    -0.154 OA
ATOM     31  O   UNL     1      34.989 -22.610 -17.167  0.00  0.00    -0.154 OA
BRANCH  29  32
ATOM     32  C   UNL     1      32.384 -22.814 -17.005  0.00  0.00    +0.172 C 
ATOM     33  C   UNL     1      32.623 -23.214 -15.566  0.00  0.00    +0.029 C 
ENDBRANCH  29  32
ENDBRANCH  27  29
ENDBRANCH  22  27
ENDBRANCH   2  21
TORSDOF 6
ENDMDL
MODEL 5
REMARK VINA RESULT:     -10.6      8.004     11.856
REMARK  Name = 24180720
REMARK  6 active torsions:
REMARK  status: ('A' for Active; 'I' for Inactive)
REMARK    1  A    between atoms: C_2  and  C_6
REMARK    2  A    between atoms: C_2  and  C_21
REMARK    3  A    between atoms: C_10  and  C_14
REMARK    4  A    between atoms: C_22  and  N_27
REMARK    5  A    between atoms: N_27  and  S_29
REMARK    6  A    between atoms: S_29  and  C_32
REMARK                            x       y       z     vdW  Elec       q    Type
REMARK                         _______ _______ _______ _____ _____    ______ ____
ROOT
ATOM      1  O   UNL     1      33.773 -23.555 -19.094  0.00  0.00    -0.286 OA
ATOM      2  C   UNL     1      34.154 -22.924 -18.090  0.00  0.00    +0.201 C 
ENDROOT
BRANCH   2   6
ATOM      3  N   UNL     1      37.205 -21.114 -17.442  0.00  0.00    -0.297 N 
ATOM      4  N   UNL     1      37.522 -19.490 -19.193  0.00  0.00    -0.229 NA
ATOM      5  C   UNL     1      35.638 -21.051 -19.032  0.00  0.00    +0.036 C 
ATOM      6  C   UNL     1      35.296 -22.056 -18.088  0.00  0.00    +0.056 C 
ATOM      7  C   UNL     1      36.833 -20.483 -18.599  0.00  0.00    +0.132 C 
ATOM      8  C   UNL     1      35.074 -20.549 -20.214  0.00  0.00    +0.005 C 
ATOM      9  C   UNL     1      36.279 -22.072 -17.121  0.00  0.00    +0.066 C 
ATOM     10  C   UNL     1      35.747 -19.519 -20.869  0.00  0.00    +0.021 C 
ATOM     11  C   UNL     1      36.933 -19.045 -20.327  0.00  0.00    +0.100 C 
ATOM     12  H   UNL     1      38.014 -20.910 -16.919  0.00  0.00    +0.154 HD
BRANCH  10  14
ATOM     13  N   UNL     1      34.910 -17.025 -23.511  0.00  0.00    -0.242 NA
ATOM     14  C   UNL     1      35.219 -18.957 -22.092  0.00  0.00    +0.021 C 
ATOM     15  C   UNL     1      34.529 -19.748 -23.005  0.00  0.00    +0.003 C 
ATOM     16  C   UNL     1      35.380 -17.614 -22.389  0.00  0.00    +0.099 C 
ATOM     17  C   UNL     1      34.030 -19.178 -24.171  0.00  0.00    +0.021 C 
ATOM     18  C   UNL     1      34.246 -17.825 -24.376  0.00  0.00    +0.099 C 
ENDBRANCH  10  14
ENDBRANCH   2   6
BRANCH   2  21
ATOM     19  F   UNL     1      31.515 -21.976 -17.813  0.00  0.00    -0.203 F 
ATOM     20  F   UNL     1      35.142 -24.310 -15.831  0.00  0.00    -0.204 F 
ATOM     21  C   UNL     1      33.344 -23.137 -16.851  0.00  0.00    +0.095 C 
ATOM     22  C   UNL     1      31.288 -22.841 -15.618  0.00  0.00    +0.092 C 
ATOM     23  C   UNL     1      32.042 -22.643 -16.774  0.00  0.00    +0.160 C 
ATOM     24  C   UNL     1      33.892 -23.830 -15.771  0.00  0.00    +0.145 C 
ATOM     25  C   UNL     1      31.835 -23.534 -14.538  0.00  0.00    +0.020 C 
ATOM     26  C   UNL     1      33.137 -24.028 -14.615  0.00  0.00    +0.031 C 
BRANCH  22  27
ATOM     27  N   UNL     1      29.955 -22.335 -15.537  0.00  0.00    -0.217 N 
ATOM     28  H   UNL     1      29.784 -21.398 -15.286  0.00  0.00    +0.173 HD
BRANCH  27  29
ATOM     29  S   UNL     1      28.655 -23.407 -15.891  0.00  0.00    +0.054 S 
ATOM     30  O   UNL     1      28.539 -23.526 -17.333  0.00  0.00    -0.154 OA
ATOM     31  O   UNL     1      28.718 -24.591 -15.057  0.00  0.00    -0.154 OA
BRANCH  29  32
ATOM     32  C   UNL     1      27.278 -22.424 -15.342  0.00  0.00    +0.172 C 
ATOM     33  C   UNL     1      26.464 -21.910 -16.508  0.00  0.00    +0.029 C 
ENDBRANCH  29  32
ENDBRANCH  27  29
ENDBRANCH  22  27
ENDBRANCH   2  21
TORSDOF 6
ENDMDL
MODEL 6
REMARK VINA RESULT:     -10.5      8.125     12.569
REMARK  Name = 24180720
REMARK  6 active torsions:
REMARK  status: ('A' for Active; 'I' for Inactive)
REMARK    1  A    between atoms: C_2  and  C_6
REMARK    2  A    between atoms: C_2  and  C_21
REMARK    3  A    between atoms: C_10  and  C_14
REMARK    4  A    between atoms: C_22  and  N_27
REMARK    5  A    between atoms: N_27  and  S_29
REMARK    6  A    between atoms: S_29  and  C_32
REMARK                            x       y       z     vdW  Elec       q    Type
REMARK                         _______ _______ _______ _____ _____    ______ ____
ROOT
ATOM      1  O   UNL     1      33.804 -23.501 -19.128  0.00  0.00    -0.286 OA
ATOM      2  C   UNL     1      34.213 -22.887 -18.125  0.00  0.00    +0.201 C 
ENDROOT
BRANCH   2   6
ATOM      3  N   UNL     1      37.250 -21.035 -17.529  0.00  0.00    -0.297 N 
ATOM      4  N   UNL     1      37.525 -19.423 -19.298  0.00  0.00    -0.229 NA
ATOM      5  C   UNL     1      35.663 -21.005 -19.101  0.00  0.00    +0.036 C 
ATOM      6  C   UNL     1      35.344 -22.005 -18.144  0.00  0.00    +0.056 C 
ATOM      7  C   UNL     1      36.856 -20.419 -18.687  0.00  0.00    +0.132 C 
ATOM      8  C   UNL     1      35.078 -20.520 -20.281  0.00  0.00    +0.005 C 
ATOM      9  C   UNL     1      36.339 -22.001 -17.189  0.00  0.00    +0.066 C 
ATOM     10  C   UNL     1      35.731 -19.488 -20.953  0.00  0.00    +0.021 C 
ATOM     11  C   UNL     1      36.917 -18.995 -20.428  0.00  0.00    +0.100 C 
ATOM     12  H   UNL     1      38.062 -20.816 -17.019  0.00  0.00    +0.154 HD
BRANCH  10  14
ATOM     13  N   UNL     1      34.821 -17.025 -23.600  0.00  0.00    -0.242 NA
ATOM     14  C   UNL     1      35.181 -18.943 -22.173  0.00  0.00    +0.021 C 
ATOM     15  C   UNL     1      34.501 -19.753 -23.077  0.00  0.00    +0.003 C 
ATOM     16  C   UNL     1      35.312 -17.598 -22.478  0.00  0.00    +0.099 C 
ATOM     17  C   UNL     1      33.981 -19.199 -24.242  0.00  0.00    +0.021 C 
ATOM     18  C   UNL     1      34.166 -17.843 -24.455  0.00  0.00    +0.099 C 
ENDBRANCH  10  14
ENDBRANCH   2   6
BRANCH   2  21
ATOM     19  F   UNL     1      35.218 -24.478 -16.028  0.00  0.00    -0.203 F 
ATOM     20  F   UNL     1      31.644 -21.806 -17.643  0.00  0.00    -0.204 F 
ATOM     21  C   UNL     1      33.451 -23.137 -16.862  0.00  0.00    +0.095 C 
ATOM     22  C   UNL     1      33.292 -24.168 -14.683  0.00  0.00    +0.092 C 
ATOM     23  C   UNL     1      34.003 -23.935 -15.860  0.00  0.00    +0.160 C 
ATOM     24  C   UNL     1      32.187 -22.573 -16.688  0.00  0.00    +0.145 C 
ATOM     25  C   UNL     1      32.028 -23.604 -14.509  0.00  0.00    +0.020 C 
ATOM     26  C   UNL     1      31.476 -22.806 -15.511  0.00  0.00    +0.031 C 
BRANCH  22  27
ATOM     27  N   UNL     1      33.855 -24.985 -13.656  0.00  0.00    -0.217 N 
ATOM     28  H   UNL     1      33.518 -25.896 -13.493  0.00  0.00    +0.173 HD
BRANCH  27  29
ATOM     29  S   UNL     1      35.138 -24.334 -12.711  0.00  0.00    +0.054 S 
ATOM     30  O   UNL     1      35.513 -23.047 -13.270  0.00  0.00    -0.154 OA
ATOM     31  O   UNL     1      34.858 -24.468 -11.295  0.00  0.00    -0.154 OA
BRANCH  29  32
ATOM     32  C   UNL     1      36.440 -25.474 -13.121  0.00  0.00    +0.172 C 
ATOM     33  C   UNL     1      37.320 -25.764 -11.926  0.00  0.00    +0.029 C 
ENDBRANCH  29  32
ENDBRANCH  27  29
ENDBRANCH  22  27
ENDBRANCH   2  21
TORSDOF 6
ENDMDL
MODEL 7
REMARK VINA RESULT:     -10.0      2.673      4.724
REMARK  Name = 24180720
REMARK  6 active torsions:
REMARK  status: ('A' for Active; 'I' for Inactive)
REMARK    1  A    between atoms: C_2  and  C_6
REMARK    2  A    between atoms: C_2  and  C_21
REMARK    3  A    between atoms: C_10  and  C_14
REMARK    4  A    between atoms: C_22  and  N_27
REMARK    5  A    between atoms: N_27  and  S_29
REMARK    6  A    between atoms: S_29  and  C_32
REMARK                            x       y       z     vdW  Elec       q    Type
REMARK                         _______ _______ _______ _____ _____    ______ ____
ROOT
ATOM      1  O   UNL     1      32.636 -10.597 -24.597  0.00  0.00    -0.286 OA
ATOM      2  C   UNL     1      32.749 -10.032 -23.494  0.00  0.00    +0.201 C 
ENDROOT
BRANCH   2   6
ATOM      3  N   UNL     1      31.296 -10.849 -20.295  0.00  0.00    -0.297 N 
ATOM      4  N   UNL     1      32.016 -13.061 -19.667  0.00  0.00    -0.229 NA
ATOM      5  C   UNL     1      32.643 -11.900 -21.733  0.00  0.00    +0.036 C 
ATOM      6  C   UNL     1      32.321 -10.619 -22.257  0.00  0.00    +0.056 C 
ATOM      7  C   UNL     1      31.989 -12.011 -20.509  0.00  0.00    +0.132 C 
ATOM      8  C   UNL     1      33.421 -12.991 -22.153  0.00  0.00    +0.005 C 
ATOM      9  C   UNL     1      31.489  -9.996 -21.350  0.00  0.00    +0.066 C 
ATOM     10  C   UNL     1      33.482 -14.104 -21.318  0.00  0.00    +0.021 C 
ATOM     11  C   UNL     1      32.778 -14.082 -20.122  0.00  0.00    +0.100 C 
ATOM     12  H   UNL     1      30.743 -10.657 -19.504  0.00  0.00    +0.154 HD
BRANCH  10  14
ATOM     13  N   UNL     1      35.520 -17.212 -21.012  0.00  0.00    -0.242 NA
ATOM     14  C   UNL     1      34.265 -15.261 -21.691  0.00  0.00    +0.021 C 
ATOM     15  C   UNL     1      34.527 -15.548 -23.027  0.00  0.00    +0.003 C 
ATOM     16  C   UNL     1      34.780 -16.116 -20.731  0.00  0.00    +0.099 C 
ATOM     17  C   UNL     1      35.285 -16.666 -23.355  0.00  0.00    +0.021 C 
ATOM     18  C   UNL     1      35.754 -17.459 -22.320  0.00  0.00    +0.099 C 
ENDBRANCH  10  14
ENDBRANCH   2   6
BRANCH   2  21
ATOM     19  F   UNL     1      31.204  -7.679 -23.611  0.00  0.00    -0.203 F 
ATOM     20  F   UNL     1      35.543  -9.595 -23.450  0.00  0.00    -0.204 F 
ATOM     21  C   UNL     1      33.358  -8.666 -23.529  0.00  0.00    +0.095 C 
ATOM     22  C   UNL     1      33.106  -6.265 -23.621  0.00  0.00    +0.092 C 
ATOM     23  C   UNL     1      32.538  -7.539 -23.587  0.00  0.00    +0.160 C 
ATOM     24  C   UNL     1      34.745  -8.520 -23.505  0.00  0.00    +0.145 C 
ATOM     25  C   UNL     1      34.493  -6.119 -23.596  0.00  0.00    +0.020 C 
ATOM     26  C   UNL     1      35.312  -7.247 -23.538  0.00  0.00    +0.031 C 
BRANCH  22  27
ATOM     27  N   UNL     1      32.270  -5.109 -23.681  0.00  0.00    -0.217 N 
ATOM     28  H   UNL     1      32.132  -4.629 -24.530  0.00  0.00    +0.173 HD
BRANCH  27  29
ATOM     29  S   UNL     1      31.510  -4.579 -22.230  0.00  0.00    +0.054 S 
ATOM     30  O   UNL     1      30.098  -4.905 -22.306  0.00  0.00    -0.154 OA
ATOM     31  O   UNL     1      32.291  -4.955 -21.068  0.00  0.00    -0.154 OA
BRANCH  29  32
ATOM     32  C   UNL     1      31.644  -2.816 -22.431  0.00  0.00    +0.172 C 
ATOM     33  C   UNL     1      32.129  -2.452 -23.816  0.00  0.00    +0.029 C 
ENDBRANCH  29  32
ENDBRANCH  27  29
ENDBRANCH  22  27
ENDBRANCH   2  21
TORSDOF 6
ENDMDL
MODEL 8
REMARK VINA RESULT:      -9.8      3.158      5.444
REMARK  Name = 24180720
REMARK  6 active torsions:
REMARK  status: ('A' for Active; 'I' for Inactive)
REMARK    1  A    between atoms: C_2  and  C_6
REMARK    2  A    between atoms: C_2  and  C_21
REMARK    3  A    between atoms: C_10  and  C_14
REMARK    4  A    between atoms: C_22  and  N_27
REMARK    5  A    between atoms: N_27  and  S_29
REMARK    6  A    between atoms: S_29  and  C_32
REMARK                            x       y       z     vdW  Elec       q    Type
REMARK                         _______ _______ _______ _____ _____    ______ ____
ROOT
ATOM      1  O   UNL     1      30.451  -9.565 -23.101  0.00  0.00    -0.286 OA
ATOM      2  C   UNL     1      31.372  -9.415 -22.276  0.00  0.00    +0.201 C 
ENDROOT
BRANCH   2   6
ATOM      3  N   UNL     1      31.685 -11.139 -19.123  0.00  0.00    -0.297 N 
ATOM      4  N   UNL     1      32.686 -13.294 -19.522  0.00  0.00    -0.229 NA
ATOM      5  C   UNL     1      32.193 -11.619 -21.244  0.00  0.00    +0.036 C 
ATOM      6  C   UNL     1      31.618 -10.322 -21.191  0.00  0.00    +0.056 C 
ATOM      7  C   UNL     1      32.221 -12.101 -19.938  0.00  0.00    +0.132 C 
ATOM      8  C   UNL     1      32.700 -12.454 -22.252  0.00  0.00    +0.005 C 
ATOM      9  C   UNL     1      31.315 -10.053 -19.873  0.00  0.00    +0.066 C 
ATOM     10  C   UNL     1      33.194 -13.702 -21.875  0.00  0.00    +0.021 C 
ATOM     11  C   UNL     1      33.161 -14.056 -20.534  0.00  0.00    +0.100 C 
ATOM     12  H   UNL     1      31.582 -11.216 -18.147  0.00  0.00    +0.154 HD
BRANCH  10  14
ATOM     13  N   UNL     1      33.782 -15.366 -25.160  0.00  0.00    -0.242 NA
ATOM     14  C   UNL     1      33.730 -14.609 -22.865  0.00  0.00    +0.021 C 
ATOM     15  C   UNL     1      34.670 -15.574 -22.517  0.00  0.00    +0.003 C 
ATOM     16  C   UNL     1      33.322 -14.548 -24.187  0.00  0.00    +0.099 C 
ATOM     17  C   UNL     1      35.166 -16.434 -23.491  0.00  0.00    +0.021 C 
ATOM     18  C   UNL     1      34.694 -16.291 -24.785  0.00  0.00    +0.099 C 
ENDBRANCH  10  14
ENDBRANCH   2   6
BRANCH   2  21
ATOM     19  F   UNL     1      30.678  -6.890 -21.237  0.00  0.00    -0.203 F 
ATOM     20  F   UNL     1      33.803  -9.458 -23.720  0.00  0.00    -0.204 F 
ATOM     21  C   UNL     1      32.220  -8.199 -22.472  0.00  0.00    +0.095 C 
ATOM     22  C   UNL     1      32.614  -5.842 -22.116  0.00  0.00    +0.092 C 
ATOM     23  C   UNL     1      31.822  -6.976 -21.932  0.00  0.00    +0.160 C 
ATOM     24  C   UNL     1      33.409  -8.289 -23.196  0.00  0.00    +0.145 C 
ATOM     25  C   UNL     1      33.803  -5.932 -22.840  0.00  0.00    +0.020 C 
ATOM     26  C   UNL     1      34.201  -7.155 -23.380  0.00  0.00    +0.031 C 
BRANCH  22  27
ATOM     27  N   UNL     1      32.208  -4.589 -21.566  0.00  0.00    -0.217 N 
ATOM     28  H   UNL     1      32.683  -4.198 -20.796  0.00  0.00    +0.173 HD
BRANCH  27  29
ATOM     29  S   UNL     1      30.869  -3.780 -22.283  0.00  0.00    +0.054 S 
ATOM     30  O   UNL     1      30.592  -4.401 -23.566  0.00  0.00    -0.154 OA
ATOM     31  O   UNL     1      29.807  -3.580 -21.318  0.00  0.00    -0.154 OA
BRANCH  29  32
ATOM     32  C   UNL     1      31.604  -2.197 -22.625  0.00  0.00    +0.172 C 
ATOM     33  C   UNL     1      32.183  -2.144 -24.021  0.00  0.00    +0.029 C 
ENDBRANCH  29  32
ENDBRANCH  27  29
ENDBRANCH  22  27
ENDBRANCH   2  21
TORSDOF 6
ENDMDL
MODEL 9
REMARK VINA RESULT:      -9.7      9.967     13.645
REMARK  Name = 24180720
REMARK  6 active torsions:
REMARK  status: ('A' for Active; 'I' for Inactive)
REMARK    1  A    between atoms: C_2  and  C_6
REMARK    2  A    between atoms: C_2  and  C_21
REMARK    3  A    between atoms: C_10  and  C_14
REMARK    4  A    between atoms: C_22  and  N_27
REMARK    5  A    between atoms: N_27  and  S_29
REMARK    6  A    between atoms: S_29  and  C_32
REMARK                            x       y       z     vdW  Elec       q    Type
REMARK                         _______ _______ _______ _____ _____    ______ ____
ROOT
ATOM      1  O   UNL     1      32.247 -22.599 -11.785  0.00  0.00    -0.286 OA
ATOM      2  C   UNL     1      32.669 -23.338 -12.694  0.00  0.00    +0.201 C 
ENDROOT
BRANCH   2   6
ATOM      3  N   UNL     1      36.117 -24.381 -12.500  0.00  0.00    -0.297 N 
ATOM      4  N   UNL     1      37.226 -23.749 -14.543  0.00  0.00    -0.229 NA
ATOM      5  C   UNL     1      34.866 -23.334 -14.025  0.00  0.00    +0.036 C 
ATOM      6  C   UNL     1      34.060 -23.630 -12.894  0.00  0.00    +0.056 C 
ATOM      7  C   UNL     1      36.142 -23.815 -13.747  0.00  0.00    +0.132 C 
ATOM      8  C   UNL     1      34.666 -22.709 -15.266  0.00  0.00    +0.005 C 
ATOM      9  C   UNL     1      34.856 -24.275 -11.971  0.00  0.00    +0.066 C 
ATOM     10  C   UNL     1      35.756 -22.615 -16.129  0.00  0.00    +0.021 C 
ATOM     11  C   UNL     1      36.976 -23.138 -15.724  0.00  0.00    +0.100 C 
ATOM     12  H   UNL     1      36.886 -24.799 -12.051  0.00  0.00    +0.154 HD
BRANCH  10  14
ATOM     13  N   UNL     1      36.566 -20.580 -19.147  0.00  0.00    -0.242 NA
ATOM     14  C   UNL     1      35.618 -21.983 -17.422  0.00  0.00    +0.021 C 
ATOM     15  C   UNL     1      34.460 -22.141 -18.176  0.00  0.00    +0.003 C 
ATOM     16  C   UNL     1      36.632 -21.199 -17.947  0.00  0.00    +0.099 C 
ATOM     17  C   UNL     1      34.355 -21.518 -19.415  0.00  0.00    +0.021 C 
ATOM     18  C   UNL     1      35.426 -20.756 -19.851  0.00  0.00    +0.099 C 
ENDBRANCH  10  14
ENDBRANCH   2   6
BRANCH   2  21
ATOM     19  F   UNL     1      31.482 -21.855 -14.775  0.00  0.00    -0.203 F 
ATOM     20  F   UNL     1      31.717 -25.990 -12.457  0.00  0.00    -0.204 F 
ATOM     21  C   UNL     1      31.623 -23.908 -13.598  0.00  0.00    +0.095 C 
ATOM     22  C   UNL     1      30.097 -23.655 -15.453  0.00  0.00    +0.092 C 
ATOM     23  C   UNL     1      31.073 -23.123 -14.611  0.00  0.00    +0.160 C 
ATOM     24  C   UNL     1      31.197 -25.225 -13.427  0.00  0.00    +0.145 C 
ATOM     25  C   UNL     1      29.671 -24.972 -15.283  0.00  0.00    +0.020 C 
ATOM     26  C   UNL     1      30.221 -25.757 -14.270  0.00  0.00    +0.031 C 
BRANCH  22  27
ATOM     27  N   UNL     1      29.532 -22.852 -16.491  0.00  0.00    -0.217 N 
ATOM     28  H   UNL     1      30.099 -22.264 -17.041  0.00  0.00    +0.173 HD
BRANCH  27  29
ATOM     29  S   UNL     1      27.833 -22.942 -16.754  0.00  0.00    +0.054 S 
ATOM     30  O   UNL     1      27.425 -21.778 -17.520  0.00  0.00    -0.154 OA
ATOM     31  O   UNL     1      27.443 -24.274 -17.174  0.00  0.00    -0.154 OA
BRANCH  29  32
ATOM     32  C   UNL     1      27.244 -22.699 -15.092  0.00  0.00    +0.172 C 
ATOM     33  C   UNL     1      25.909 -21.989 -15.076  0.00  0.00    +0.029 C 
ENDBRANCH  29  32
ENDBRANCH  27  29
ENDBRANCH  22  27
ENDBRANCH   2  21
TORSDOF 6
ENDMDL
