MODEL 1
REMARK VINA RESULT:     -11.1      0.000      0.000
REMARK  Name = 491941
REMARK  5 active torsions:
REMARK  status: ('A' for Active; 'I' for Inactive)
REMARK    1  A    between atoms: C_5  and  C_17
REMARK    2  A    between atoms: C_7  and  S_11
REMARK    3  A    between atoms: S_11  and  N_14
REMARK    4  A    between atoms: C_17  and  C_18
REMARK    5  A    between atoms: C_21  and  C_25
REMARK                            x       y       z     vdW  Elec       q    Type
REMARK                         _______ _______ _______ _____ _____    ______ ____
ROOT
ATOM      1  S   UNL     1      34.460 -24.535 -13.162  0.00  0.00    -0.035 S 
ATOM      2  O   UNL     1      35.848 -22.758 -16.943  0.00  0.00    -0.274 OA
ATOM      3  N   UNL     1      34.109 -23.321 -15.459  0.00  0.00    -0.227 N 
ATOM      4  N   UNL     1      36.058 -22.762 -14.157  0.00  0.00    -0.386 NA
ATOM      5  C   UNL     1      34.654 -22.981 -16.722  0.00  0.00    +0.236 C 
ATOM      6  C   UNL     1      34.976 -23.424 -14.329  0.00  0.00    +0.217 C 
ATOM      7  C   UNL     1      35.856 -24.116 -12.260  0.00  0.00    +0.247 C 
ATOM      8  C   UNL     1      36.581 -23.162 -12.943  0.00  0.00    +0.123 C 
ATOM      9  C   UNL     1      32.669 -23.571 -15.287  0.00  0.00    +0.123 C 
ATOM     10  C   UNL     1      37.846 -22.548 -12.490  0.00  0.00    +0.064 C 
ENDROOT
BRANCH   7  11
ATOM     11  S   UNL     1      36.046 -24.952 -10.731  0.00  0.00    +0.052 S 
ATOM     12  O   UNL     1      34.701 -25.325 -10.302  0.00  0.00    -0.157 OA
ATOM     13  O   UNL     1      37.054 -25.977 -10.977  0.00  0.00    -0.157 OA
BRANCH  11  14
ATOM     14  N   UNL     1      36.673 -23.849  -9.569  0.00  0.00    -0.206 NA
ATOM     15  H   UNL     1      36.155 -23.943  -8.697  0.00  0.00    +0.144 HD
ATOM     16  H   UNL     1      36.579 -22.896  -9.921  0.00  0.00    +0.144 HD
ENDBRANCH  11  14
ENDBRANCH   7  11
BRANCH   5  17
ATOM     17  C   UNL     1      33.665 -22.933 -17.894  0.00  0.00    +0.112 C 
BRANCH  17  18
ATOM     18  C   UNL     1      33.937 -21.843 -18.873  0.00  0.00    -0.013 C 
ATOM     19  C   UNL     1      35.239 -21.611 -19.316  0.00  0.00    -0.004 C 
ATOM     20  C   UNL     1      32.888 -21.054 -19.348  0.00  0.00    -0.004 C 
ATOM     21  C   UNL     1      34.445 -19.802 -20.706  0.00  0.00    +0.018 C 
ATOM     22  C   UNL     1      35.494 -20.591 -20.233  0.00  0.00    +0.001 C 
ATOM     23  C   UNL     1      33.143 -20.033 -20.264  0.00  0.00    +0.001 C 
BRANCH  21  25
ATOM     24  N   UNL     1      35.139 -17.585 -21.113  0.00  0.00    -0.244 NA
ATOM     25  C   UNL     1      34.708 -18.743 -21.657  0.00  0.00    +0.081 C 
ATOM     26  C   UNL     1      34.520 -18.945 -23.013  0.00  0.00    +0.019 C 
ATOM     27  C   UNL     1      34.792 -17.885 -23.870  0.00  0.00    +0.003 C 
ATOM     28  C   UNL     1      35.394 -16.576 -21.977  0.00  0.00    +0.099 C 
ATOM     29  C   UNL     1      35.238 -16.674 -23.350  0.00  0.00    +0.021 C 
ENDBRANCH  21  25
ENDBRANCH  17  18
ENDBRANCH   5  17
TORSDOF 5
ENDMDL
MODEL 2
REMARK VINA RESULT:     -11.0      0.744      1.321
REMARK  Name = 491941
REMARK  5 active torsions:
REMARK  status: ('A' for Active; 'I' for Inactive)
REMARK    1  A    between atoms: C_5  and  C_17
REMARK    2  A    between atoms: C_7  and  S_11
REMARK    3  A    between atoms: S_11  and  N_14
REMARK    4  A    between atoms: C_17  and  C_18
REMARK    5  A    between atoms: C_21  and  C_25
REMARK                            x       y       z     vdW  Elec       q    Type
REMARK                         _______ _______ _______ _____ _____    ______ ____
ROOT
ATOM      1  S   UNL     1      34.662 -24.624 -13.323  0.00  0.00    -0.035 S 
ATOM      2  O   UNL     1      35.987 -22.625 -17.015  0.00  0.00    -0.274 OA
ATOM      3  N   UNL     1      34.268 -23.347 -15.578  0.00  0.00    -0.227 N 
ATOM      4  N   UNL     1      36.163 -22.722 -14.228  0.00  0.00    -0.386 NA
ATOM      5  C   UNL     1      34.807 -22.928 -16.820  0.00  0.00    +0.236 C 
ATOM      6  C   UNL     1      35.124 -23.441 -14.440  0.00  0.00    +0.217 C 
ATOM      7  C   UNL     1      36.019 -24.157 -12.385  0.00  0.00    +0.247 C 
ATOM      8  C   UNL     1      36.694 -23.137 -13.022  0.00  0.00    +0.123 C 
ATOM      9  C   UNL     1      32.843 -23.688 -15.437  0.00  0.00    +0.123 C 
ATOM     10  C   UNL     1      37.913 -22.466 -12.528  0.00  0.00    +0.064 C 
ENDROOT
BRANCH   7  11
ATOM     11  S   UNL     1      36.240 -25.038 -10.886  0.00  0.00    +0.052 S 
ATOM     12  O   UNL     1      37.175 -24.252 -10.087  0.00  0.00    -0.157 OA
ATOM     13  O   UNL     1      34.892 -25.305 -10.395  0.00  0.00    -0.157 OA
BRANCH  11  14
ATOM     14  N   UNL     1      36.993 -26.545 -11.233  0.00  0.00    -0.206 NA
ATOM     15  H   UNL     1      36.836 -26.785 -12.211  0.00  0.00    +0.144 HD
ATOM     16  H   UNL     1      36.596 -27.269 -10.635  0.00  0.00    +0.144 HD
ENDBRANCH  11  14
ENDBRANCH   7  11
BRANCH   5  17
ATOM     17  C   UNL     1      33.832 -22.894 -18.004  0.00  0.00    +0.112 C 
BRANCH  17  18
ATOM     18  C   UNL     1      34.067 -21.769 -18.953  0.00  0.00    -0.013 C 
ATOM     19  C   UNL     1      32.986 -21.056 -19.472  0.00  0.00    -0.004 C 
ATOM     20  C   UNL     1      35.369 -21.429 -19.322  0.00  0.00    -0.004 C 
ATOM     21  C   UNL     1      34.507 -19.664 -20.729  0.00  0.00    +0.018 C 
ATOM     22  C   UNL     1      33.206 -20.003 -20.360  0.00  0.00    +0.001 C 
ATOM     23  C   UNL     1      35.589 -20.376 -20.210  0.00  0.00    +0.001 C 
BRANCH  21  25
ATOM     24  N   UNL     1      35.100 -17.407 -21.072  0.00  0.00    -0.244 NA
ATOM     25  C   UNL     1      34.736 -18.572 -21.651  0.00  0.00    +0.081 C 
ATOM     26  C   UNL     1      34.584 -18.750 -23.014  0.00  0.00    +0.019 C 
ATOM     27  C   UNL     1      34.821 -17.658 -23.842  0.00  0.00    +0.003 C 
ATOM     28  C   UNL     1      35.322 -16.367 -21.907  0.00  0.00    +0.099 C 
ATOM     29  C   UNL     1      35.198 -16.440 -23.285  0.00  0.00    +0.021 C 
ENDBRANCH  21  25
ENDBRANCH  17  18
ENDBRANCH   5  17
TORSDOF 5
ENDMDL
MODEL 3
REMARK VINA RESULT:     -10.3      3.293      5.785
REMARK  Name = 491941
REMARK  5 active torsions:
REMARK  status: ('A' for Active; 'I' for Inactive)
REMARK    1  A    between atoms: C_5  and  C_17
REMARK    2  A    between atoms: C_7  and  S_11
REMARK    3  A    between atoms: S_11  and  N_14
REMARK    4  A    between atoms: C_17  and  C_18
REMARK    5  A    between atoms: C_21  and  C_25
REMARK                            x       y       z     vdW  Elec       q    Type
REMARK                         _______ _______ _______ _____ _____    ______ ____
ROOT
ATOM      1  S   UNL     1      36.589 -21.396 -17.678  0.00  0.00    -0.035 S 
ATOM      2  O   UNL     1      34.049 -19.480 -20.721  0.00  0.00    -0.274 OA
ATOM      3  N   UNL     1      36.134 -20.327 -20.028  0.00  0.00    -0.227 N 
ATOM      4  N   UNL     1      34.405 -21.679 -19.033  0.00  0.00    -0.386 NA
ATOM      5  C   UNL     1      35.278 -19.531 -20.829  0.00  0.00    +0.236 C 
ATOM      6  C   UNL     1      35.570 -21.148 -19.005  0.00  0.00    +0.217 C 
ATOM      7  C   UNL     1      35.340 -22.351 -16.996  0.00  0.00    +0.247 C 
ATOM      8  C   UNL     1      34.262 -22.387 -17.856  0.00  0.00    +0.123 C 
ATOM      9  C   UNL     1      37.592 -20.326 -20.228  0.00  0.00    +0.123 C 
ATOM     10  C   UNL     1      32.994 -23.108 -17.624  0.00  0.00    +0.064 C 
ENDROOT
BRANCH   7  11
ATOM     11  S   UNL     1      35.691 -23.045 -15.426  0.00  0.00    +0.052 S 
ATOM     12  O   UNL     1      35.549 -24.490 -15.580  0.00  0.00    -0.157 OA
ATOM     13  O   UNL     1      36.970 -22.467 -15.028  0.00  0.00    -0.157 OA
BRANCH  11  14
ATOM     14  N   UNL     1      34.494 -22.523 -14.307  0.00  0.00    -0.206 NA
ATOM     15  H   UNL     1      33.592 -22.464 -14.778  0.00  0.00    +0.144 HD
ATOM     16  H   UNL     1      34.748 -21.605 -13.941  0.00  0.00    +0.144 HD
ENDBRANCH  11  14
ENDBRANCH   7  11
BRANCH   5  17
ATOM     17  C   UNL     1      35.963 -18.644 -21.876  0.00  0.00    +0.112 C 
BRANCH  17  18
ATOM     18  C   UNL     1      35.348 -17.295 -22.027  0.00  0.00    -0.013 C 
ATOM     19  C   UNL     1      34.989 -16.829 -23.293  0.00  0.00    -0.004 C 
ATOM     20  C   UNL     1      35.130 -16.498 -20.903  0.00  0.00    -0.004 C 
ATOM     21  C   UNL     1      34.196 -14.770 -22.310  0.00  0.00    +0.018 C 
ATOM     22  C   UNL     1      34.413 -15.567 -23.434  0.00  0.00    +0.001 C 
ATOM     23  C   UNL     1      34.554 -15.235 -21.044  0.00  0.00    +0.001 C 
BRANCH  21  25
ATOM     24  N   UNL     1      32.581 -13.203 -21.606  0.00  0.00    -0.244 NA
ATOM     25  C   UNL     1      33.598 -13.460 -22.455  0.00  0.00    +0.081 C 
ATOM     26  C   UNL     1      34.065 -12.569 -23.405  0.00  0.00    +0.019 C 
ATOM     27  C   UNL     1      33.444 -11.327 -23.490  0.00  0.00    +0.003 C 
ATOM     28  C   UNL     1      32.001 -11.986 -21.717  0.00  0.00    +0.099 C 
ATOM     29  C   UNL     1      32.392 -11.023 -22.633  0.00  0.00    +0.021 C 
ENDBRANCH  21  25
ENDBRANCH  17  18
ENDBRANCH   5  17
TORSDOF 5
ENDMDL
MODEL 4
REMARK VINA RESULT:     -10.2      8.925     13.493
REMARK  Name = 491941
REMARK  5 active torsions:
REMARK  status: ('A' for Active; 'I' for Inactive)
REMARK    1  A    between atoms: C_5  and  C_17
REMARK    2  A    between atoms: C_7  and  S_11
REMARK    3  A    between atoms: S_11  and  N_14
REMARK    4  A    between atoms: C_17  and  C_18
REMARK    5  A    between atoms: C_21  and  C_25
REMARK                            x       y       z     vdW  Elec       q    Type
REMARK                         _______ _______ _______ _____ _____    ______ ____
ROOT
ATOM      1  S   UNL     1      33.064  -8.767 -23.180  0.00  0.00    -0.035 S 
ATOM      2  O   UNL     1      32.125 -13.001 -22.431  0.00  0.00    -0.274 OA
ATOM      3  N   UNL     1      33.583 -11.336 -23.232  0.00  0.00    -0.227 N 
ATOM      4  N   UNL     1      32.397 -10.447 -21.331  0.00  0.00    -0.386 NA
ATOM      5  C   UNL     1      33.076 -12.655 -23.138  0.00  0.00    +0.236 C 
ATOM      6  C   UNL     1      32.974 -10.297 -22.465  0.00  0.00    +0.217 C 
ATOM      7  C   UNL     1      32.219  -8.165 -21.815  0.00  0.00    +0.247 C 
ATOM      8  C   UNL     1      31.951  -9.200 -20.943  0.00  0.00    +0.123 C 
ATOM      9  C   UNL     1      34.724 -11.012 -24.103  0.00  0.00    +0.123 C 
ATOM     10  C   UNL     1      31.241  -9.081 -19.653  0.00  0.00    +0.064 C 
ENDROOT
BRANCH   7  11
ATOM     11  S   UNL     1      31.897  -6.442 -21.825  0.00  0.00    +0.052 S 
ATOM     12  O   UNL     1      30.472  -6.297 -22.106  0.00  0.00    -0.157 OA
ATOM     13  O   UNL     1      32.458  -5.940 -20.576  0.00  0.00    -0.157 OA
BRANCH  11  14
ATOM     14  N   UNL     1      32.759  -5.724 -23.128  0.00  0.00    -0.206 NA
ATOM     15  H   UNL     1      33.742  -5.632 -22.876  0.00  0.00    +0.144 HD
ATOM     16  H   UNL     1      32.370  -4.802 -23.326  0.00  0.00    +0.144 HD
ENDBRANCH  11  14
ENDBRANCH   7  11
BRANCH   5  17
ATOM     17  C   UNL     1      33.756 -13.706 -24.025  0.00  0.00    +0.112 C 
BRANCH  17  18
ATOM     18  C   UNL     1      34.208 -14.921 -23.291  0.00  0.00    -0.013 C 
ATOM     19  C   UNL     1      34.410 -16.118 -23.979  0.00  0.00    -0.004 C 
ATOM     20  C   UNL     1      34.431 -14.861 -21.915  0.00  0.00    -0.004 C 
ATOM     21  C   UNL     1      35.055 -17.196 -21.915  0.00  0.00    +0.018 C 
ATOM     22  C   UNL     1      34.834 -17.255 -23.291  0.00  0.00    +0.001 C 
ATOM     23  C   UNL     1      34.854 -15.999 -21.227  0.00  0.00    +0.001 C 
BRANCH  21  25
ATOM     24  N   UNL     1      36.780 -18.343 -20.789  0.00  0.00    -0.244 NA
ATOM     25  C   UNL     1      35.495 -18.375 -21.201  0.00  0.00    +0.081 C 
ATOM     26  C   UNL     1      34.631 -19.432 -20.978  0.00  0.00    +0.019 C 
ATOM     27  C   UNL     1      35.120 -20.534 -20.285  0.00  0.00    +0.003 C 
ATOM     28  C   UNL     1      37.221 -19.431 -20.118  0.00  0.00    +0.099 C 
ATOM     29  C   UNL     1      36.439 -20.541 -19.843  0.00  0.00    +0.021 C 
ENDBRANCH  21  25
ENDBRANCH  17  18
ENDBRANCH   5  17
TORSDOF 5
ENDMDL
MODEL 5
REMARK VINA RESULT:      -9.8      9.118     13.014
REMARK  Name = 491941
REMARK  5 active torsions:
REMARK  status: ('A' for Active; 'I' for Inactive)
REMARK    1  A    between atoms: C_5  and  C_17
REMARK    2  A    between atoms: C_7  and  S_11
REMARK    3  A    between atoms: S_11  and  N_14
REMARK    4  A    between atoms: C_17  and  C_18
REMARK    5  A    between atoms: C_21  and  C_25
REMARK                            x       y       z     vdW  Elec       q    Type
REMARK                         _______ _______ _______ _____ _____    ______ ____
ROOT
ATOM      1  S   UNL     1      31.997 -10.231 -21.268  0.00  0.00    -0.035 S 
ATOM      2  O   UNL     1      34.700 -11.841 -24.346  0.00  0.00    -0.274 OA
ATOM      3  N   UNL     1      32.586 -11.761 -23.313  0.00  0.00    -0.227 N 
ATOM      4  N   UNL     1      33.554  -9.556 -23.218  0.00  0.00    -0.386 NA
ATOM      5  C   UNL     1      33.602 -12.351 -24.106  0.00  0.00    +0.236 C 
ATOM      6  C   UNL     1      32.812 -10.478 -22.729  0.00  0.00    +0.217 C 
ATOM      7  C   UNL     1      32.701  -8.669 -21.228  0.00  0.00    +0.247 C 
ATOM      8  C   UNL     1      33.494  -8.490 -22.343  0.00  0.00    +0.123 C 
ATOM      9  C   UNL     1      31.302 -12.442 -23.079  0.00  0.00    +0.123 C 
ATOM     10  C   UNL     1      34.267  -7.274 -22.668  0.00  0.00    +0.064 C 
ENDROOT
BRANCH   7  11
ATOM     11  S   UNL     1      32.276  -7.683 -19.843  0.00  0.00    +0.052 S 
ATOM     12  O   UNL     1      31.445  -6.598 -20.356  0.00  0.00    -0.157 OA
ATOM     13  O   UNL     1      31.745  -8.617 -18.856  0.00  0.00    -0.157 OA
BRANCH  11  14
ATOM     14  N   UNL     1      33.709  -6.980 -19.201  0.00  0.00    -0.206 NA
ATOM     15  H   UNL     1      34.498  -7.602 -19.373  0.00  0.00    +0.144 HD
ATOM     16  H   UNL     1      33.598  -6.840 -18.196  0.00  0.00    +0.144 HD
ENDBRANCH  11  14
ENDBRANCH   7  11
BRANCH   5  17
ATOM     17  C   UNL     1      33.299 -13.748 -24.663  0.00  0.00    +0.112 C 
BRANCH  17  18
ATOM     18  C   UNL     1      33.893 -14.860 -23.868  0.00  0.00    -0.013 C 
ATOM     19  C   UNL     1      34.166 -16.085 -24.478  0.00  0.00    -0.004 C 
ATOM     20  C   UNL     1      34.178 -14.676 -22.515  0.00  0.00    -0.004 C 
ATOM     21  C   UNL     1      35.005 -16.943 -22.382  0.00  0.00    +0.018 C 
ATOM     22  C   UNL     1      34.722 -17.126 -23.735  0.00  0.00    +0.001 C 
ATOM     23  C   UNL     1      34.734 -15.718 -21.772  0.00  0.00    +0.001 C 
BRANCH  21  25
ATOM     24  N   UNL     1      36.924 -17.967 -21.471  0.00  0.00    -0.244 NA
ATOM     25  C   UNL     1      35.582 -18.022 -21.610  0.00  0.00    +0.081 C 
ATOM     26  C   UNL     1      34.783 -19.016 -21.072  0.00  0.00    +0.019 C 
ATOM     27  C   UNL     1      35.404 -20.023 -20.341  0.00  0.00    +0.003 C 
ATOM     28  C   UNL     1      37.493 -18.962 -20.754  0.00  0.00    +0.099 C 
ATOM     29  C   UNL     1      36.785 -20.002 -20.175  0.00  0.00    +0.021 C 
ENDBRANCH  21  25
ENDBRANCH  17  18
ENDBRANCH   5  17
TORSDOF 5
ENDMDL
MODEL 6
REMARK VINA RESULT:      -9.8      2.812      4.862
REMARK  Name = 491941
REMARK  5 active torsions:
REMARK  status: ('A' for Active; 'I' for Inactive)
REMARK    1  A    between atoms: C_5  and  C_17
REMARK    2  A    between atoms: C_7  and  S_11
REMARK    3  A    between atoms: S_11  and  N_14
REMARK    4  A    between atoms: C_17  and  C_18
REMARK    5  A    between atoms: C_21  and  C_25
REMARK                            x       y       z     vdW  Elec       q    Type
REMARK                         _______ _______ _______ _____ _____    ______ ____
ROOT
ATOM      1  S   UNL     1      35.817 -22.388 -16.850  0.00  0.00    -0.035 S 
ATOM      2  O   UNL     1      33.840 -20.135 -20.074  0.00  0.00    -0.274 OA
ATOM      3  N   UNL     1      35.636 -21.438 -19.286  0.00  0.00    -0.227 N 
ATOM      4  N   UNL     1      33.622 -22.201 -18.204  0.00  0.00    -0.386 NA
ATOM      5  C   UNL     1      35.011 -20.515 -20.162  0.00  0.00    +0.236 C 
ATOM      6  C   UNL     1      34.886 -21.994 -18.206  0.00  0.00    +0.217 C 
ATOM      7  C   UNL     1      34.368 -22.922 -16.107  0.00  0.00    +0.247 C 
ATOM      8  C   UNL     1      33.310 -22.746 -16.975  0.00  0.00    +0.123 C 
ATOM      9  C   UNL     1      37.042 -21.835 -19.467  0.00  0.00    +0.123 C 
ATOM     10  C   UNL     1      31.900 -23.088 -16.699  0.00  0.00    +0.064 C 
ENDROOT
BRANCH   7  11
ATOM     11  S   UNL     1      34.540 -23.550 -14.480  0.00  0.00    +0.052 S 
ATOM     12  O   UNL     1      34.558 -25.005 -14.606  0.00  0.00    -0.157 OA
ATOM     13  O   UNL     1      35.684 -22.844 -13.915  0.00  0.00    -0.157 OA
BRANCH  11  14
ATOM     14  N   UNL     1      33.143 -23.126 -13.570  0.00  0.00    -0.206 NA
ATOM     15  H   UNL     1      32.860 -23.917 -12.993  0.00  0.00    +0.144 HD
ATOM     16  H   UNL     1      32.385 -22.880 -14.207  0.00  0.00    +0.144 HD
ENDBRANCH  11  14
ENDBRANCH   7  11
BRANCH   5  17
ATOM     17  C   UNL     1      35.895 -19.930 -21.271  0.00  0.00    +0.112 C 
BRANCH  17  18
ATOM     18  C   UNL     1      35.462 -18.585 -21.746  0.00  0.00    -0.013 C 
ATOM     19  C   UNL     1      35.400 -17.515 -20.852  0.00  0.00    -0.004 C 
ATOM     20  C   UNL     1      35.121 -18.396 -23.085  0.00  0.00    -0.004 C 
ATOM     21  C   UNL     1      34.653 -16.068 -22.636  0.00  0.00    +0.018 C 
ATOM     22  C   UNL     1      34.995 -16.257 -21.297  0.00  0.00    +0.001 C 
ATOM     23  C   UNL     1      34.716 -17.137 -23.530  0.00  0.00    +0.001 C 
BRANCH  21  25
ATOM     24  N   UNL     1      33.642 -14.753 -24.312  0.00  0.00    -0.244 NA
ATOM     25  C   UNL     1      34.233 -14.763 -23.098  0.00  0.00    +0.081 C 
ATOM     26  C   UNL     1      34.439 -13.635 -22.323  0.00  0.00    +0.019 C 
ATOM     27  C   UNL     1      34.011 -12.413 -22.829  0.00  0.00    +0.003 C 
ATOM     28  C   UNL     1      33.239 -13.547 -24.772  0.00  0.00    +0.099 C 
ATOM     29  C   UNL     1      33.397 -12.360 -24.076  0.00  0.00    +0.021 C 
ENDBRANCH  21  25
ENDBRANCH  17  18
ENDBRANCH   5  17
TORSDOF 5
ENDMDL
MODEL 7
REMARK VINA RESULT:      -9.8      2.421      3.480
REMARK  Name = 491941
REMARK  5 active torsions:
REMARK  status: ('A' for Active; 'I' for Inactive)
REMARK    1  A    between atoms: C_5  and  C_17
REMARK    2  A    between atoms: C_7  and  S_11
REMARK    3  A    between atoms: S_11  and  N_14
REMARK    4  A    between atoms: C_17  and  C_18
REMARK    5  A    between atoms: C_21  and  C_25
REMARK                            x       y       z     vdW  Elec       q    Type
REMARK                         _______ _______ _______ _____ _____    ______ ____
ROOT
ATOM      1  S   UNL     1      34.876 -22.835 -14.673  0.00  0.00    -0.035 S 
ATOM      2  O   UNL     1      34.104 -21.708 -18.858  0.00  0.00    -0.274 OA
ATOM      3  N   UNL     1      35.581 -22.401 -17.161  0.00  0.00    -0.227 N 
ATOM      4  N   UNL     1      33.429 -23.401 -16.740  0.00  0.00    -0.386 NA
ATOM      5  C   UNL     1      35.249 -21.818 -18.408  0.00  0.00    +0.236 C 
ATOM      6  C   UNL     1      34.539 -22.913 -16.329  0.00  0.00    +0.217 C 
ATOM      7  C   UNL     1      33.339 -23.547 -14.407  0.00  0.00    +0.247 C 
ATOM      8  C   UNL     1      32.719 -23.776 -15.617  0.00  0.00    +0.123 C 
ATOM      9  C   UNL     1      36.977 -22.491 -16.703  0.00  0.00    +0.123 C 
ATOM     10  C   UNL     1      31.383 -24.378 -15.803  0.00  0.00    +0.064 C 
ENDROOT
BRANCH   7  11
ATOM     11  S   UNL     1      32.914 -23.819 -12.728  0.00  0.00    +0.052 S 
ATOM     12  O   UNL     1      34.174 -23.875 -11.994  0.00  0.00    -0.157 OA
ATOM     13  O   UNL     1      31.921 -22.798 -12.413  0.00  0.00    -0.157 OA
BRANCH  11  14
ATOM     14  N   UNL     1      32.162 -25.360 -12.589  0.00  0.00    -0.206 NA
ATOM     15  H   UNL     1      31.569 -25.374 -11.761  0.00  0.00    +0.144 HD
ATOM     16  H   UNL     1      32.879 -26.081 -12.507  0.00  0.00    +0.144 HD
ENDBRANCH  11  14
ENDBRANCH   7  11
BRANCH   5  17
ATOM     17  C   UNL     1      36.419 -21.253 -19.223  0.00  0.00    +0.112 C 
BRANCH  17  18
ATOM     18  C   UNL     1      36.040 -20.138 -20.137  0.00  0.00    -0.013 C 
ATOM     19  C   UNL     1      36.990 -19.183 -20.503  0.00  0.00    -0.004 C 
ATOM     20  C   UNL     1      34.737 -20.048 -20.626  0.00  0.00    -0.004 C 
ATOM     21  C   UNL     1      35.332 -18.050 -21.846  0.00  0.00    +0.018 C 
ATOM     22  C   UNL     1      36.636 -18.139 -21.358  0.00  0.00    +0.001 C 
ATOM     23  C   UNL     1      34.383 -19.004 -21.481  0.00  0.00    +0.001 C 
BRANCH  21  25
ATOM     24  N   UNL     1      34.979 -15.741 -22.169  0.00  0.00    -0.244 NA
ATOM     25  C   UNL     1      34.964 -16.968 -22.733  0.00  0.00    +0.081 C 
ATOM     26  C   UNL     1      34.630 -17.215 -24.053  0.00  0.00    +0.019 C 
ATOM     27  C   UNL     1      34.287 -16.127 -24.850  0.00  0.00    +0.003 C 
ATOM     28  C   UNL     1      34.639 -14.708 -22.974  0.00  0.00    +0.099 C 
ATOM     29  C   UNL     1      34.289 -14.847 -24.307  0.00  0.00    +0.021 C 
ENDBRANCH  21  25
ENDBRANCH  17  18
ENDBRANCH   5  17
TORSDOF 5
ENDMDL
MODEL 8
REMARK VINA RESULT:      -9.6      2.761      3.863
REMARK  Name = 491941
REMARK  5 active torsions:
REMARK  status: ('A' for Active; 'I' for Inactive)
REMARK    1  A    between atoms: C_5  and  C_17
REMARK    2  A    between atoms: C_7  and  S_11
REMARK    3  A    between atoms: S_11  and  N_14
REMARK    4  A    between atoms: C_17  and  C_18
REMARK    5  A    between atoms: C_21  and  C_25
REMARK                            x       y       z     vdW  Elec       q    Type
REMARK                         _______ _______ _______ _____ _____    ______ ____
ROOT
ATOM      1  S   UNL     1      33.500 -22.872 -14.538  0.00  0.00    -0.035 S 
ATOM      2  O   UNL     1      33.475 -22.372 -18.911  0.00  0.00    -0.274 OA
ATOM      3  N   UNL     1      34.634 -22.755 -16.899  0.00  0.00    -0.227 N 
ATOM      4  N   UNL     1      32.462 -23.785 -16.724  0.00  0.00    -0.386 NA
ATOM      5  C   UNL     1      34.521 -22.366 -18.256  0.00  0.00    +0.236 C 
ATOM      6  C   UNL     1      33.470 -23.194 -16.198  0.00  0.00    +0.217 C 
ATOM      7  C   UNL     1      31.956 -23.610 -14.446  0.00  0.00    +0.247 C 
ATOM      8  C   UNL     1      31.569 -24.032 -15.701  0.00  0.00    +0.123 C 
ATOM      9  C   UNL     1      35.926 -22.717 -16.194  0.00  0.00    +0.123 C 
ATOM     10  C   UNL     1      30.301 -24.715 -16.030  0.00  0.00    +0.064 C 
ENDROOT
BRANCH   7  11
ATOM     11  S   UNL     1      31.239 -23.666 -12.847  0.00  0.00    +0.052 S 
ATOM     12  O   UNL     1      29.878 -23.158 -12.994  0.00  0.00    -0.157 OA
ATOM     13  O   UNL     1      31.474 -25.024 -12.369  0.00  0.00    -0.157 OA
BRANCH  11  14
ATOM     14  N   UNL     1      32.090 -22.580 -11.820  0.00  0.00    -0.206 NA
ATOM     15  H   UNL     1      33.081 -22.820 -11.818  0.00  0.00    +0.144 HD
ATOM     16  H   UNL     1      31.720 -22.650 -10.871  0.00  0.00    +0.144 HD
ENDBRANCH  11  14
ENDBRANCH   7  11
BRANCH   5  17
ATOM     17  C   UNL     1      35.808 -21.866 -18.925  0.00  0.00    +0.112 C 
BRANCH  17  18
ATOM     18  C   UNL     1      35.606 -20.705 -19.838  0.00  0.00    -0.013 C 
ATOM     19  C   UNL     1      34.371 -20.511 -20.459  0.00  0.00    -0.004 C 
ATOM     20  C   UNL     1      36.652 -19.811 -20.072  0.00  0.00    -0.004 C 
ATOM     21  C   UNL     1      35.228 -18.532 -21.547  0.00  0.00    +0.018 C 
ATOM     22  C   UNL     1      34.182 -19.425 -21.313  0.00  0.00    +0.001 C 
ATOM     23  C   UNL     1      36.463 -18.725 -20.926  0.00  0.00    +0.001 C 
BRANCH  21  25
ATOM     24  N   UNL     1      34.778 -17.730 -23.718  0.00  0.00    -0.244 NA
ATOM     25  C   UNL     1      35.033 -17.405 -22.432  0.00  0.00    +0.081 C 
ATOM     26  C   UNL     1      35.109 -16.107 -21.957  0.00  0.00    +0.019 C 
ATOM     27  C   UNL     1      34.911 -15.072 -22.863  0.00  0.00    +0.003 C 
ATOM     28  C   UNL     1      34.591 -16.697 -24.571  0.00  0.00    +0.099 C 
ATOM     29  C   UNL     1      34.646 -15.364 -24.197  0.00  0.00    +0.021 C 
ENDBRANCH  21  25
ENDBRANCH  17  18
ENDBRANCH   5  17
TORSDOF 5
ENDMDL
MODEL 9
REMARK VINA RESULT:      -9.3      1.870      2.443
REMARK  Name = 491941
REMARK  5 active torsions:
REMARK  status: ('A' for Active; 'I' for Inactive)
REMARK    1  A    between atoms: C_5  and  C_17
REMARK    2  A    between atoms: C_7  and  S_11
REMARK    3  A    between atoms: S_11  and  N_14
REMARK    4  A    between atoms: C_17  and  C_18
REMARK    5  A    between atoms: C_21  and  C_25
REMARK                            x       y       z     vdW  Elec       q    Type
REMARK                         _______ _______ _______ _____ _____    ______ ____
ROOT
ATOM      1  S   UNL     1      36.599 -24.571 -14.226  0.00  0.00    -0.035 S 
ATOM      2  O   UNL     1      32.773 -22.426 -14.593  0.00  0.00    -0.274 OA
ATOM      3  N   UNL     1      34.255 -24.110 -15.305  0.00  0.00    -0.227 N 
ATOM      4  N   UNL     1      34.481 -23.869 -12.918  0.00  0.00    -0.386 NA
ATOM      5  C   UNL     1      33.170 -23.212 -15.458  0.00  0.00    +0.236 C 
ATOM      6  C   UNL     1      34.971 -24.138 -14.071  0.00  0.00    +0.217 C 
ATOM      7  C   UNL     1      36.727 -24.391 -12.526  0.00  0.00    +0.247 C 
ATOM      8  C   UNL     1      35.506 -24.016 -12.006  0.00  0.00    +0.123 C 
ATOM      9  C   UNL     1      34.660 -25.016 -16.393  0.00  0.00    +0.123 C 
ATOM     10  C   UNL     1      35.214 -23.765 -10.580  0.00  0.00    +0.064 C 
ENDROOT
BRANCH   7  11
ATOM     11  S   UNL     1      38.313 -24.711 -11.850  0.00  0.00    +0.052 S 
ATOM     12  O   UNL     1      38.700 -23.501 -11.130  0.00  0.00    -0.157 OA
ATOM     13  O   UNL     1      38.179 -25.980 -11.144  0.00  0.00    -0.157 OA
BRANCH  11  14
ATOM     14  N   UNL     1      39.431 -24.928 -13.139  0.00  0.00    -0.206 NA
ATOM     15  H   UNL     1      39.960 -24.068 -13.278  0.00  0.00    +0.144 HD
ATOM     16  H   UNL     1      38.924 -25.160 -13.993  0.00  0.00    +0.144 HD
ENDBRANCH  11  14
ENDBRANCH   7  11
BRANCH   5  17
ATOM     17  C   UNL     1      32.479 -23.212 -16.828  0.00  0.00    +0.112 C 
BRANCH  17  18
ATOM     18  C   UNL     1      33.140 -22.342 -17.841  0.00  0.00    -0.013 C 
ATOM     19  C   UNL     1      32.374 -21.478 -18.626  0.00  0.00    -0.004 C 
ATOM     20  C   UNL     1      34.525 -22.390 -18.006  0.00  0.00    -0.004 C 
ATOM     21  C   UNL     1      34.376 -20.712 -19.739  0.00  0.00    +0.018 C 
ATOM     22  C   UNL     1      32.992 -20.663 -19.574  0.00  0.00    +0.001 C 
ATOM     23  C   UNL     1      35.143 -21.575 -18.955  0.00  0.00    +0.001 C 
BRANCH  21  25
ATOM     24  N   UNL     1      36.205 -19.349 -20.338  0.00  0.00    -0.244 NA
ATOM     25  C   UNL     1      35.018 -19.867 -20.722  0.00  0.00    +0.081 C 
ATOM     26  C   UNL     1      34.428 -19.635 -21.952  0.00  0.00    +0.019 C 
ATOM     27  C   UNL     1      35.101 -18.813 -22.849  0.00  0.00    +0.003 C 
ATOM     28  C   UNL     1      36.830 -18.554 -21.236  0.00  0.00    +0.099 C 
ATOM     29  C   UNL     1      36.325 -18.258 -22.492  0.00  0.00    +0.021 C 
ENDBRANCH  21  25
ENDBRANCH  17  18
ENDBRANCH   5  17
TORSDOF 5
ENDMDL
