MODEL 1
REMARK VINA RESULT:     -12.7      0.000      0.000
REMARK  Name = 11167118
REMARK  6 active torsions:
REMARK  status: ('A' for Active; 'I' for Inactive)
REMARK    1  A    between atoms: N_2  and  C_6
REMARK    2  A    between atoms: N_2  and  C_15
REMARK    3  A    between atoms: C_8  and  O_25
REMARK    4  A    between atoms: C_17  and  C_24
REMARK    5  A    between atoms: O_25  and  C_27
REMARK    6  A    between atoms: C_30  and  C_34
REMARK                            x       y       z     vdW  Elec       q    Type
REMARK                         _______ _______ _______ _____ _____    ______ ____
ROOT
ATOM      1  N   UNL     1      33.611 -21.303 -19.739  0.00  0.00    -0.302 N 
ATOM      2  N   UNL     1      35.483 -21.833 -18.663  0.00  0.00    -0.302 N 
ATOM      3  C   UNL     1      34.565 -20.442 -20.217  0.00  0.00    +0.063 C 
ATOM      4  C   UNL     1      35.724 -20.793 -19.530  0.00  0.00    +0.060 C 
ATOM      5  C   UNL     1      34.207 -22.114 -18.813  0.00  0.00    +0.225 C 
ATOM      6  C   UNL     1      34.516 -19.417 -21.164  0.00  0.00    +0.053 C 
ATOM      7  C   UNL     1      35.708 -18.729 -21.409  0.00  0.00    +0.147 C 
ATOM      8  C   UNL     1      36.913 -20.090 -19.789  0.00  0.00    +0.019 C 
ATOM      9  C   UNL     1      36.886 -19.058 -20.736  0.00  0.00    +0.039 C 
ATOM     10  H   UNL     1      32.666 -21.332 -20.013  0.00  0.00    +0.150 HD
ATOM     11  H   UNL     1      36.125 -22.272 -18.060  0.00  0.00    +0.150 HD
ENDROOT
BRANCH   5  12
ATOM     12  N   UNL     1      33.451 -23.052 -18.203  0.00  0.00    -0.303 N 
ATOM     13  H   UNL     1      33.223 -23.829 -18.763  0.00  0.00    +0.150 HD
BRANCH  12  15
ATOM     14 CL   UNL     1      31.324 -23.245 -12.675  0.00  0.00    -0.082 Cl
ATOM     15  C   UNL     1      32.930 -23.097 -16.879  0.00  0.00    +0.047 C 
ATOM     16  C   UNL     1      31.562 -22.980 -16.676  0.00  0.00    +0.019 C 
ATOM     17  C   UNL     1      31.053 -23.024 -15.378  0.00  0.00    +0.083 C 
ATOM     18  C   UNL     1      33.800 -23.258 -15.808  0.00  0.00    +0.015 C 
ATOM     19  C   UNL     1      31.917 -23.185 -14.295  0.00  0.00    +0.062 C 
ATOM     20  C   UNL     1      33.291 -23.301 -14.510  0.00  0.00    +0.013 C 
BRANCH  17  24
ATOM     21  F   UNL     1      29.022 -24.035 -14.709  0.00  0.00    -0.166 F 
ATOM     22  F   UNL     1      29.250 -21.907 -14.324  0.00  0.00    -0.166 F 
ATOM     23  F   UNL     1      28.958 -22.617 -16.364  0.00  0.00    -0.166 F 
ATOM     24  C   UNL     1      29.576 -22.896 -15.191  0.00  0.00    +0.419 C 
ENDBRANCH  17  24
ENDBRANCH  12  15
ENDBRANCH   5  12
BRANCH   7  25
ATOM     25  O   UNL     1      35.719 -17.717 -22.323  0.00  0.00    -0.453 OA
BRANCH  25  27
ATOM     26  N   UNL     1      34.106 -14.064 -21.175  0.00  0.00    -0.239 NA
ATOM     27  C   UNL     1      35.182 -16.501 -21.941  0.00  0.00    +0.149 C 
ATOM     28  C   UNL     1      34.827 -15.586 -22.909  0.00  0.00    +0.061 C 
ATOM     29  C   UNL     1      35.012 -16.230 -20.600  0.00  0.00    +0.058 C 
ATOM     30  C   UNL     1      34.294 -14.383 -22.475  0.00  0.00    +0.137 C 
ATOM     31  C   UNL     1      34.471 -14.998 -20.268  0.00  0.00    +0.102 C 
BRANCH  30  34
ATOM     32  O   UNL     1      33.251 -13.679 -24.454  0.00  0.00    -0.268 OA
ATOM     33  N   UNL     1      34.252 -12.045 -23.149  0.00  0.00    -0.298 N 
ATOM     34  C   UNL     1      33.897 -13.368 -23.436  0.00  0.00    +0.264 C 
ATOM     35  C   UNL     1      33.911 -10.923 -23.994  0.00  0.00    +0.111 C 
ATOM     36  H   UNL     1      34.764 -11.869 -22.326  0.00  0.00    +0.150 HD
ENDBRANCH  30  34
ENDBRANCH  25  27
ENDBRANCH   7  25
TORSDOF 6
ENDMDL
MODEL 2
REMARK VINA RESULT:     -12.7      5.661     10.005
REMARK  Name = 11167118
REMARK  6 active torsions:
REMARK  status: ('A' for Active; 'I' for Inactive)
REMARK    1  A    between atoms: N_2  and  C_6
REMARK    2  A    between atoms: N_2  and  C_15
REMARK    3  A    between atoms: C_8  and  O_25
REMARK    4  A    between atoms: C_17  and  C_24
REMARK    5  A    between atoms: O_25  and  C_27
REMARK    6  A    between atoms: C_30  and  C_34
REMARK                            x       y       z     vdW  Elec       q    Type
REMARK                         _______ _______ _______ _____ _____    ______ ____
ROOT
ATOM      1  N   UNL     1      34.741 -19.299 -21.071  0.00  0.00    -0.302 N 
ATOM      2  N   UNL     1      36.813 -18.942 -20.351  0.00  0.00    -0.302 N 
ATOM      3  C   UNL     1      34.995 -20.304 -20.173  0.00  0.00    +0.063 C 
ATOM      4  C   UNL     1      36.295 -20.059 -19.738  0.00  0.00    +0.060 C 
ATOM      5  C   UNL     1      35.856 -18.512 -21.143  0.00  0.00    +0.225 C 
ATOM      6  C   UNL     1      34.224 -21.375 -19.717  0.00  0.00    +0.053 C 
ATOM      7  C   UNL     1      34.817 -22.223 -18.777  0.00  0.00    +0.147 C 
ATOM      8  C   UNL     1      36.876 -20.921 -18.793  0.00  0.00    +0.019 C 
ATOM      9  C   UNL     1      36.119 -22.002 -18.321  0.00  0.00    +0.039 C 
ATOM     10  H   UNL     1      33.905 -19.169 -21.573  0.00  0.00    +0.150 HD
ATOM     11  H   UNL     1      37.707 -18.549 -20.225  0.00  0.00    +0.150 HD
ENDROOT
BRANCH   5  12
ATOM     12  N   UNL     1      35.835 -17.447 -21.974  0.00  0.00    -0.303 N 
ATOM     13  H   UNL     1      36.421 -17.525 -22.761  0.00  0.00    +0.150 HD
BRANCH  12  15
ATOM     14 CL   UNL     1      32.776 -12.386 -21.595  0.00  0.00    -0.082 Cl
ATOM     15  C   UNL     1      35.100 -16.230 -21.894  0.00  0.00    +0.047 C 
ATOM     16  C   UNL     1      34.683 -15.604 -23.060  0.00  0.00    +0.019 C 
ATOM     17  C   UNL     1      33.962 -14.412 -22.980  0.00  0.00    +0.083 C 
ATOM     18  C   UNL     1      34.810 -15.689 -20.649  0.00  0.00    +0.015 C 
ATOM     19  C   UNL     1      33.666 -13.858 -21.734  0.00  0.00    +0.062 C 
ATOM     20  C   UNL     1      34.090 -14.496 -20.568  0.00  0.00    +0.013 C 
BRANCH  17  24
ATOM     21  F   UNL     1      32.178 -13.638 -24.326  0.00  0.00    -0.166 F 
ATOM     22  F   UNL     1      34.037 -12.514 -24.395  0.00  0.00    -0.166 F 
ATOM     23  F   UNL     1      33.922 -14.479 -25.329  0.00  0.00    -0.166 F 
ATOM     24  C   UNL     1      33.526 -13.760 -24.252  0.00  0.00    +0.419 C 
ENDBRANCH  17  24
ENDBRANCH  12  15
ENDBRANCH   5  12
BRANCH   7  25
ATOM     25  O   UNL     1      34.111 -23.285 -18.296  0.00  0.00    -0.453 OA
BRANCH  25  27
ATOM     26  N   UNL     1      32.506 -22.965 -14.477  0.00  0.00    -0.239 NA
ATOM     27  C   UNL     1      33.577 -23.179 -17.025  0.00  0.00    +0.149 C 
ATOM     28  C   UNL     1      32.209 -23.092 -16.873  0.00  0.00    +0.061 C 
ATOM     29  C   UNL     1      34.422 -23.163 -15.936  0.00  0.00    +0.058 C 
ATOM     30  C   UNL     1      31.723 -22.986 -15.579  0.00  0.00    +0.137 C 
ATOM     31  C   UNL     1      33.839 -23.054 -14.684  0.00  0.00    +0.102 C 
BRANCH  30  34
ATOM     32  O   UNL     1      29.849 -22.856 -14.177  0.00  0.00    -0.268 OA
ATOM     33  N   UNL     1      29.463 -22.814 -16.463  0.00  0.00    -0.298 N 
ATOM     34  C   UNL     1      30.294 -22.890 -15.339  0.00  0.00    +0.264 C 
ATOM     35  C   UNL     1      28.024 -22.693 -16.388  0.00  0.00    +0.111 C 
ATOM     36  H   UNL     1      29.881 -22.847 -17.354  0.00  0.00    +0.150 HD
ENDBRANCH  30  34
ENDBRANCH  25  27
ENDBRANCH   7  25
TORSDOF 6
ENDMDL
MODEL 3
REMARK VINA RESULT:     -12.6      5.488     10.290
REMARK  Name = 11167118
REMARK  6 active torsions:
REMARK  status: ('A' for Active; 'I' for Inactive)
REMARK    1  A    between atoms: N_2  and  C_6
REMARK    2  A    between atoms: N_2  and  C_15
REMARK    3  A    between atoms: C_8  and  O_25
REMARK    4  A    between atoms: C_17  and  C_24
REMARK    5  A    between atoms: O_25  and  C_27
REMARK    6  A    between atoms: C_30  and  C_34
REMARK                            x       y       z     vdW  Elec       q    Type
REMARK                         _______ _______ _______ _____ _____    ______ ____
ROOT
ATOM      1  N   UNL     1      34.571 -19.132 -21.190  0.00  0.00    -0.302 N 
ATOM      2  N   UNL     1      36.659 -19.480 -20.515  0.00  0.00    -0.302 N 
ATOM      3  C   UNL     1      34.497 -20.162 -20.288  0.00  0.00    +0.063 C 
ATOM      4  C   UNL     1      35.814 -20.360 -19.881  0.00  0.00    +0.060 C 
ATOM      5  C   UNL     1      35.882 -18.759 -21.292  0.00  0.00    +0.225 C 
ATOM      6  C   UNL     1      33.424 -20.915 -19.806  0.00  0.00    +0.053 C 
ATOM      7  C   UNL     1      33.723 -21.909 -18.870  0.00  0.00    +0.147 C 
ATOM      8  C   UNL     1      36.096 -21.364 -18.939  0.00  0.00    +0.019 C 
ATOM      9  C   UNL     1      35.034 -22.132 -18.443  0.00  0.00    +0.039 C 
ATOM     10  H   UNL     1      33.814 -18.733 -21.677  0.00  0.00    +0.150 HD
ATOM     11  H   UNL     1      37.635 -19.405 -20.411  0.00  0.00    +0.150 HD
ENDROOT
BRANCH   5  12
ATOM     12  N   UNL     1      36.196 -17.750 -22.133  0.00  0.00    -0.303 N 
ATOM     13  H   UNL     1      37.156 -17.664 -22.336  0.00  0.00    +0.150 HD
BRANCH  12  15
ATOM     14 CL   UNL     1      32.723 -13.780 -24.835  0.00  0.00    -0.082 Cl
ATOM     15  C   UNL     1      35.362 -16.790 -22.773  0.00  0.00    +0.047 C 
ATOM     16  C   UNL     1      34.954 -15.663 -22.075  0.00  0.00    +0.019 C 
ATOM     17  C   UNL     1      34.137 -14.723 -22.703  0.00  0.00    +0.083 C 
ATOM     18  C   UNL     1      34.967 -16.998 -24.088  0.00  0.00    +0.015 C 
ATOM     19  C   UNL     1      33.734 -14.921 -24.024  0.00  0.00    +0.062 C 
ATOM     20  C   UNL     1      34.149 -16.058 -24.717  0.00  0.00    +0.013 C 
BRANCH  17  24
ATOM     21  F   UNL     1      34.083 -12.364 -22.535  0.00  0.00    -0.166 F 
ATOM     22  F   UNL     1      32.371 -13.457 -21.759  0.00  0.00    -0.166 F 
ATOM     23  F   UNL     1      34.271 -13.515 -20.691  0.00  0.00    -0.166 F 
ATOM     24  C   UNL     1      33.714 -13.518 -21.927  0.00  0.00    +0.419 C 
ENDBRANCH  17  24
ENDBRANCH  12  15
ENDBRANCH   5  12
BRANCH   7  25
ATOM     25  O   UNL     1      32.715 -22.676 -18.366  0.00  0.00    -0.453 OA
BRANCH  25  27
ATOM     26  N   UNL     1      32.746 -23.458 -14.284  0.00  0.00    -0.239 NA
ATOM     27  C   UNL     1      32.725 -22.936 -17.007  0.00  0.00    +0.149 C 
ATOM     28  C   UNL     1      33.899 -23.339 -16.406  0.00  0.00    +0.061 C 
ATOM     29  C   UNL     1      31.562 -22.786 -16.282  0.00  0.00    +0.058 C 
ATOM     30  C   UNL     1      33.857 -23.588 -15.043  0.00  0.00    +0.137 C 
ATOM     31  C   UNL     1      31.624 -23.059 -14.925  0.00  0.00    +0.102 C 
BRANCH  30  34
ATOM     32  O   UNL     1      35.756 -24.939 -14.790  0.00  0.00    -0.268 OA
ATOM     33  N   UNL     1      35.381 -23.331 -13.164  0.00  0.00    -0.298 N 
ATOM     34  C   UNL     1      35.054 -24.016 -14.340  0.00  0.00    +0.264 C 
ATOM     35  C   UNL     1      36.550 -23.624 -12.365  0.00  0.00    +0.111 C 
ATOM     36  H   UNL     1      34.781 -22.610 -12.863  0.00  0.00    +0.150 HD
ENDBRANCH  30  34
ENDBRANCH  25  27
ENDBRANCH   7  25
TORSDOF 6
ENDMDL
MODEL 4
REMARK VINA RESULT:     -12.5      1.499      1.839
REMARK  Name = 11167118
REMARK  6 active torsions:
REMARK  status: ('A' for Active; 'I' for Inactive)
REMARK    1  A    between atoms: N_2  and  C_6
REMARK    2  A    between atoms: N_2  and  C_15
REMARK    3  A    between atoms: C_8  and  O_25
REMARK    4  A    between atoms: C_17  and  C_24
REMARK    5  A    between atoms: O_25  and  C_27
REMARK    6  A    between atoms: C_30  and  C_34
REMARK                            x       y       z     vdW  Elec       q    Type
REMARK                         _______ _______ _______ _____ _____    ______ ____
ROOT
ATOM      1  N   UNL     1      33.443 -21.234 -19.457  0.00  0.00    -0.302 N 
ATOM      2  N   UNL     1      35.194 -22.191 -18.478  0.00  0.00    -0.302 N 
ATOM      3  C   UNL     1      34.534 -20.515 -19.875  0.00  0.00    +0.063 C 
ATOM      4  C   UNL     1      35.614 -21.132 -19.249  0.00  0.00    +0.060 C 
ATOM      5  C   UNL     1      33.887 -22.223 -18.626  0.00  0.00    +0.225 C 
ATOM      6  C   UNL     1      34.666 -19.411 -20.719  0.00  0.00    +0.053 C 
ATOM      7  C   UNL     1      35.961 -18.928 -20.926  0.00  0.00    +0.147 C 
ATOM      8  C   UNL     1      36.909 -20.633 -19.468  0.00  0.00    +0.019 C 
ATOM      9  C   UNL     1      37.065 -19.526 -20.313  0.00  0.00    +0.039 C 
ATOM     10  H   UNL     1      32.507 -21.066 -19.712  0.00  0.00    +0.150 HD
ATOM     11  H   UNL     1      35.749 -22.794 -17.934  0.00  0.00    +0.150 HD
ENDROOT
BRANCH   5  12
ATOM     12  N   UNL     1      32.977 -23.065 -18.089  0.00  0.00    -0.303 N 
ATOM     13  H   UNL     1      32.608 -23.729 -18.715  0.00  0.00    +0.150 HD
BRANCH  12  15
ATOM     14 CL   UNL     1      30.894 -23.410 -12.553  0.00  0.00    -0.082 Cl
ATOM     15  C   UNL     1      32.467 -23.145 -16.762  0.00  0.00    +0.047 C 
ATOM     16  C   UNL     1      31.113 -22.946 -16.537  0.00  0.00    +0.019 C 
ATOM     17  C   UNL     1      30.613 -23.026 -15.236  0.00  0.00    +0.083 C 
ATOM     18  C   UNL     1      33.333 -23.423 -15.713  0.00  0.00    +0.015 C 
ATOM     19  C   UNL     1      31.475 -23.303 -14.174  0.00  0.00    +0.062 C 
ATOM     20  C   UNL     1      32.835 -23.501 -14.413  0.00  0.00    +0.013 C 
BRANCH  17  24
ATOM     21  F   UNL     1      28.537 -23.910 -14.529  0.00  0.00    -0.166 F 
ATOM     22  F   UNL     1      28.901 -21.800 -14.153  0.00  0.00    -0.166 F 
ATOM     23  F   UNL     1      28.530 -22.492 -16.186  0.00  0.00    -0.166 F 
ATOM     24  C   UNL     1      29.150 -22.807 -15.023  0.00  0.00    +0.419 C 
ENDBRANCH  17  24
ENDBRANCH  12  15
ENDBRANCH   5  12
BRANCH   7  25
ATOM     25  O   UNL     1      36.150 -17.851 -21.741  0.00  0.00    -0.453 OA
BRANCH  25  27
ATOM     26  N   UNL     1      33.645 -17.465 -25.034  0.00  0.00    -0.239 NA
ATOM     27  C   UNL     1      35.316 -17.723 -22.837  0.00  0.00    +0.149 C 
ATOM     28  C   UNL     1      34.951 -16.463 -23.263  0.00  0.00    +0.061 C 
ATOM     29  C   UNL     1      34.869 -18.856 -23.482  0.00  0.00    +0.058 C 
ATOM     30  C   UNL     1      34.114 -16.387 -24.365  0.00  0.00    +0.137 C 
ATOM     31  C   UNL     1      34.035 -18.675 -24.574  0.00  0.00    +0.102 C 
BRANCH  30  34
ATOM     32  O   UNL     1      33.287 -14.976 -26.045  0.00  0.00    -0.268 OA
ATOM     33  N   UNL     1      33.721 -14.018 -23.979  0.00  0.00    -0.298 N 
ATOM     34  C   UNL     1      33.685 -15.095 -24.872  0.00  0.00    +0.264 C 
ATOM     35  C   UNL     1      33.306 -12.677 -24.326  0.00  0.00    +0.111 C 
ATOM     36  H   UNL     1      34.047 -14.181 -23.064  0.00  0.00    +0.150 HD
ENDBRANCH  30  34
ENDBRANCH  25  27
ENDBRANCH   7  25
TORSDOF 6
ENDMDL
MODEL 5
REMARK VINA RESULT:     -12.3      3.794      4.737
REMARK  Name = 11167118
REMARK  6 active torsions:
REMARK  status: ('A' for Active; 'I' for Inactive)
REMARK    1  A    between atoms: N_2  and  C_6
REMARK    2  A    between atoms: N_2  and  C_15
REMARK    3  A    between atoms: C_8  and  O_25
REMARK    4  A    between atoms: C_17  and  C_24
REMARK    5  A    between atoms: O_25  and  C_27
REMARK    6  A    between atoms: C_30  and  C_34
REMARK                            x       y       z     vdW  Elec       q    Type
REMARK                         _______ _______ _______ _____ _____    ______ ____
ROOT
ATOM      1  N   UNL     1      35.136 -22.468 -17.674  0.00  0.00    -0.302 N 
ATOM      2  N   UNL     1      32.924 -22.449 -17.890  0.00  0.00    -0.302 N 
ATOM      3  C   UNL     1      34.876 -21.600 -18.703  0.00  0.00    +0.063 C 
ATOM      4  C   UNL     1      33.489 -21.606 -18.818  0.00  0.00    +0.060 C 
ATOM      5  C   UNL     1      33.940 -22.949 -17.220  0.00  0.00    +0.225 C 
ATOM      6  C   UNL     1      35.710 -20.833 -19.520  0.00  0.00    +0.053 C 
ATOM      7  C   UNL     1      35.086 -20.043 -20.490  0.00  0.00    +0.147 C 
ATOM      8  C   UNL     1      32.879 -20.806 -19.800  0.00  0.00    +0.019 C 
ATOM      9  C   UNL     1      33.696 -20.028 -20.629  0.00  0.00    +0.039 C 
ATOM     10  H   UNL     1      36.026 -22.702 -17.324  0.00  0.00    +0.150 HD
ATOM     11  H   UNL     1      31.968 -22.638 -17.754  0.00  0.00    +0.150 HD
ENDROOT
BRANCH   5  12
ATOM     12  N   UNL     1      33.951 -23.830 -16.197  0.00  0.00    -0.303 N 
ATOM     13  H   UNL     1      33.165 -24.422 -16.151  0.00  0.00    +0.150 HD
BRANCH  12  15
ATOM     14 CL   UNL     1      37.968 -24.664 -11.920  0.00  0.00    -0.082 Cl
ATOM     15  C   UNL     1      34.918 -24.040 -15.173  0.00  0.00    +0.047 C 
ATOM     16  C   UNL     1      35.644 -25.222 -15.150  0.00  0.00    +0.019 C 
ATOM     17  C   UNL     1      36.592 -25.427 -14.147  0.00  0.00    +0.083 C 
ATOM     18  C   UNL     1      35.120 -23.058 -14.213  0.00  0.00    +0.015 C 
ATOM     19  C   UNL     1      36.804 -24.447 -13.176  0.00  0.00    +0.062 C 
ATOM     20  C   UNL     1      36.067 -23.263 -13.209  0.00  0.00    +0.013 C 
BRANCH  17  24
ATOM     21  F   UNL     1      37.015 -27.510 -15.184  0.00  0.00    -0.166 F 
ATOM     22  F   UNL     1      38.697 -26.509 -14.238  0.00  0.00    -0.166 F 
ATOM     23  F   UNL     1      37.138 -27.410 -13.009  0.00  0.00    -0.166 F 
ATOM     24  C   UNL     1      37.360 -26.709 -14.147  0.00  0.00    +0.419 C 
ENDBRANCH  17  24
ENDBRANCH  12  15
ENDBRANCH   5  12
BRANCH   7  25
ATOM     25  O   UNL     1      35.851 -19.273 -21.316  0.00  0.00    -0.453 OA
BRANCH  25  27
ATOM     26  N   UNL     1      34.078 -17.817 -24.781  0.00  0.00    -0.239 NA
ATOM     27  C   UNL     1      35.261 -18.789 -22.470  0.00  0.00    +0.149 C 
ATOM     28  C   UNL     1      35.129 -17.426 -22.639  0.00  0.00    +0.061 C 
ATOM     29  C   UNL     1      34.817 -19.677 -23.426  0.00  0.00    +0.058 C 
ATOM     30  C   UNL     1      34.531 -16.991 -23.811  0.00  0.00    +0.137 C 
ATOM     31  C   UNL     1      34.233 -19.143 -24.563  0.00  0.00    +0.102 C 
BRANCH  30  34
ATOM     32  O   UNL     1      34.147 -15.153 -25.214  0.00  0.00    -0.268 OA
ATOM     33  N   UNL     1      34.414 -14.718 -22.953  0.00  0.00    -0.298 N 
ATOM     34  C   UNL     1      34.357 -15.571 -24.061  0.00  0.00    +0.264 C 
ATOM     35  C   UNL     1      34.237 -13.285 -23.035  0.00  0.00    +0.111 C 
ATOM     36  H   UNL     1      34.584 -15.115 -22.068  0.00  0.00    +0.150 HD
ENDBRANCH  30  34
ENDBRANCH  25  27
ENDBRANCH   7  25
TORSDOF 6
ENDMDL
MODEL 6
REMARK VINA RESULT:     -12.3      5.684     10.245
REMARK  Name = 11167118
REMARK  6 active torsions:
REMARK  status: ('A' for Active; 'I' for Inactive)
REMARK    1  A    between atoms: N_2  and  C_6
REMARK    2  A    between atoms: N_2  and  C_15
REMARK    3  A    between atoms: C_8  and  O_25
REMARK    4  A    between atoms: C_17  and  C_24
REMARK    5  A    between atoms: O_25  and  C_27
REMARK    6  A    between atoms: C_30  and  C_34
REMARK                            x       y       z     vdW  Elec       q    Type
REMARK                         _______ _______ _______ _____ _____    ______ ____
ROOT
ATOM      1  N   UNL     1      36.176 -19.832 -20.180  0.00  0.00    -0.302 N 
ATOM      2  N   UNL     1      34.107 -19.633 -20.965  0.00  0.00    -0.302 N 
ATOM      3  C   UNL     1      35.427 -20.735 -19.469  0.00  0.00    +0.063 C 
ATOM      4  C   UNL     1      34.139 -20.591 -19.978  0.00  0.00    +0.060 C 
ATOM      5  C   UNL     1      35.344 -19.199 -21.060  0.00  0.00    +0.225 C 
ATOM      6  C   UNL     1      35.754 -21.637 -18.456  0.00  0.00    +0.053 C 
ATOM      7  C   UNL     1      34.712 -22.420 -17.950  0.00  0.00    +0.147 C 
ATOM      8  C   UNL     1      33.104 -21.386 -19.457  0.00  0.00    +0.019 C 
ATOM      9  C   UNL     1      33.410 -22.299 -18.440  0.00  0.00    +0.039 C 
ATOM     10  H   UNL     1      37.141 -19.670 -20.074  0.00  0.00    +0.150 HD
ATOM     11  H   UNL     1      33.327 -19.336 -21.488  0.00  0.00    +0.150 HD
ENDROOT
BRANCH   5  12
ATOM     12  N   UNL     1      35.870 -18.258 -21.874  0.00  0.00    -0.303 N 
ATOM     13  H   UNL     1      36.850 -18.290 -21.965  0.00  0.00    +0.150 HD
BRANCH  12  15
ATOM     14 CL   UNL     1      33.219 -13.994 -25.021  0.00  0.00    -0.082 Cl
ATOM     15  C   UNL     1      35.233 -17.227 -22.622  0.00  0.00    +0.047 C 
ATOM     16  C   UNL     1      35.001 -15.994 -22.029  0.00  0.00    +0.019 C 
ATOM     17  C   UNL     1      34.378 -14.985 -22.762  0.00  0.00    +0.083 C 
ATOM     18  C   UNL     1      34.854 -17.471 -23.935  0.00  0.00    +0.015 C 
ATOM     19  C   UNL     1      33.992 -15.219 -24.083  0.00  0.00    +0.062 C 
ATOM     20  C   UNL     1      34.229 -16.462 -24.669  0.00  0.00    +0.013 C 
BRANCH  17  24
ATOM     21  F   UNL     1      34.626 -12.634 -22.828  0.00  0.00    -0.166 F 
ATOM     22  F   UNL     1      32.825 -13.419 -21.898  0.00  0.00    -0.166 F 
ATOM     23  F   UNL     1      34.745 -13.618 -20.886  0.00  0.00    -0.166 F 
ATOM     24  C   UNL     1      34.142 -13.667 -22.098  0.00  0.00    +0.419 C 
ENDBRANCH  17  24
ENDBRANCH  12  15
ENDBRANCH   5  12
BRANCH   7  25
ATOM     25  O   UNL     1      34.973 -23.319 -16.958  0.00  0.00    -0.453 OA
BRANCH  25  27
ATOM     26  N   UNL     1      32.217 -23.628 -13.863  0.00  0.00    -0.239 NA
ATOM     27  C   UNL     1      34.056 -23.422 -15.928  0.00  0.00    +0.149 C 
ATOM     28  C   UNL     1      32.719 -23.572 -16.228  0.00  0.00    +0.061 C 
ATOM     29  C   UNL     1      34.498 -23.373 -14.623  0.00  0.00    +0.058 C 
ATOM     30  C   UNL     1      31.840 -23.670 -15.161  0.00  0.00    +0.137 C 
ATOM     31  C   UNL     1      33.540 -23.480 -13.627  0.00  0.00    +0.102 C 
BRANCH  30  34
ATOM     32  O   UNL     1      29.786 -24.760 -14.864  0.00  0.00    -0.268 OA
ATOM     33  N   UNL     1      29.797 -22.883 -16.223  0.00  0.00    -0.298 N 
ATOM     34  C   UNL     1      30.415 -23.829 -15.398  0.00  0.00    +0.264 C 
ATOM     35  C   UNL     1      28.385 -22.892 -16.535  0.00  0.00    +0.111 C 
ATOM     36  H   UNL     1      30.355 -22.171 -16.614  0.00  0.00    +0.150 HD
ENDBRANCH  30  34
ENDBRANCH  25  27
ENDBRANCH   7  25
TORSDOF 6
ENDMDL
MODEL 7
REMARK VINA RESULT:     -12.1      2.272      2.907
REMARK  Name = 11167118
REMARK  6 active torsions:
REMARK  status: ('A' for Active; 'I' for Inactive)
REMARK    1  A    between atoms: N_2  and  C_6
REMARK    2  A    between atoms: N_2  and  C_15
REMARK    3  A    between atoms: C_8  and  O_25
REMARK    4  A    between atoms: C_17  and  C_24
REMARK    5  A    between atoms: O_25  and  C_27
REMARK    6  A    between atoms: C_30  and  C_34
REMARK                            x       y       z     vdW  Elec       q    Type
REMARK                         _______ _______ _______ _____ _____    ______ ____
ROOT
ATOM      1  N   UNL     1      33.004 -21.190 -19.338  0.00  0.00    -0.302 N 
ATOM      2  N   UNL     1      34.610 -22.273 -18.248  0.00  0.00    -0.302 N 
ATOM      3  C   UNL     1      34.178 -20.621 -19.758  0.00  0.00    +0.063 C 
ATOM      4  C   UNL     1      35.166 -21.315 -19.062  0.00  0.00    +0.060 C 
ATOM      5  C   UNL     1      33.312 -22.171 -18.437  0.00  0.00    +0.225 C 
ATOM      6  C   UNL     1      34.455 -19.591 -20.658  0.00  0.00    +0.053 C 
ATOM      7  C   UNL     1      35.802 -19.266 -20.848  0.00  0.00    +0.147 C 
ATOM      8  C   UNL     1      36.514 -20.974 -19.265  0.00  0.00    +0.019 C 
ATOM      9  C   UNL     1      36.814 -19.943 -20.165  0.00  0.00    +0.039 C 
ATOM     10  H   UNL     1      32.099 -20.937 -19.633  0.00  0.00    +0.150 HD
ATOM     11  H   UNL     1      35.079 -22.900 -17.652  0.00  0.00    +0.150 HD
ENDROOT
BRANCH   5  12
ATOM     12  N   UNL     1      32.300 -22.875 -17.885  0.00  0.00    -0.303 N 
ATOM     13  H   UNL     1      31.724 -23.346 -18.530  0.00  0.00    +0.150 HD
BRANCH  12  15
ATOM     14 CL   UNL     1      30.737 -23.561 -12.210  0.00  0.00    -0.082 Cl
ATOM     15  C   UNL     1      31.934 -23.045 -16.520  0.00  0.00    +0.047 C 
ATOM     16  C   UNL     1      32.844 -23.598 -15.631  0.00  0.00    +0.019 C 
ATOM     17  C   UNL     1      32.484 -23.763 -14.293  0.00  0.00    +0.083 C 
ATOM     18  C   UNL     1      30.670 -22.653 -16.098  0.00  0.00    +0.015 C 
ATOM     19  C   UNL     1      31.217 -23.373 -13.858  0.00  0.00    +0.062 C 
ATOM     20  C   UNL     1      30.310 -22.818 -14.760  0.00  0.00    +0.013 C 
BRANCH  17  24
ATOM     21  F   UNL     1      32.976 -25.413 -12.671  0.00  0.00    -0.166 F 
ATOM     22  F   UNL     1      34.587 -24.815 -14.003  0.00  0.00    -0.166 F 
ATOM     23  F   UNL     1      33.904 -23.452 -12.445  0.00  0.00    -0.166 F 
ATOM     24  C   UNL     1      33.485 -24.361 -13.358  0.00  0.00    +0.419 C 
ENDBRANCH  17  24
ENDBRANCH  12  15
ENDBRANCH   5  12
BRANCH   7  25
ATOM     25  O   UNL     1      36.131 -18.267 -21.715  0.00  0.00    -0.453 OA
BRANCH  25  27
ATOM     26  N   UNL     1      33.662 -17.680 -25.006  0.00  0.00    -0.239 NA
ATOM     27  C   UNL     1      35.309 -18.072 -22.811  0.00  0.00    +0.149 C 
ATOM     28  C   UNL     1      34.998 -16.786 -23.200  0.00  0.00    +0.061 C 
ATOM     29  C   UNL     1      34.820 -19.166 -23.491  0.00  0.00    +0.058 C 
ATOM     30  C   UNL     1      34.171 -16.643 -24.303  0.00  0.00    +0.137 C 
ATOM     31  C   UNL     1      34.000 -18.918 -24.581  0.00  0.00    +0.102 C 
BRANCH  30  34
ATOM     32  O   UNL     1      33.433 -15.146 -25.949  0.00  0.00    -0.268 OA
ATOM     33  N   UNL     1      33.848 -14.276 -23.841  0.00  0.00    -0.298 N 
ATOM     34  C   UNL     1      33.798 -15.320 -24.773  0.00  0.00    +0.264 C 
ATOM     35  C   UNL     1      33.487 -12.910 -24.149  0.00  0.00    +0.111 C 
ATOM     36  H   UNL     1      34.148 -14.483 -22.926  0.00  0.00    +0.150 HD
ENDBRANCH  30  34
ENDBRANCH  25  27
ENDBRANCH   7  25
TORSDOF 6
ENDMDL
MODEL 8
REMARK VINA RESULT:     -12.1      4.051      6.531
REMARK  Name = 11167118
REMARK  6 active torsions:
REMARK  status: ('A' for Active; 'I' for Inactive)
REMARK    1  A    between atoms: N_2  and  C_6
REMARK    2  A    between atoms: N_2  and  C_15
REMARK    3  A    between atoms: C_8  and  O_25
REMARK    4  A    between atoms: C_17  and  C_24
REMARK    5  A    between atoms: O_25  and  C_27
REMARK    6  A    between atoms: C_30  and  C_34
REMARK                            x       y       z     vdW  Elec       q    Type
REMARK                         _______ _______ _______ _____ _____    ______ ____
ROOT
ATOM      1  N   UNL     1      34.992 -15.976 -21.690  0.00  0.00    -0.302 N 
ATOM      2  N   UNL     1      35.141 -16.668 -23.796  0.00  0.00    -0.302 N 
ATOM      3  C   UNL     1      34.219 -15.107 -22.416  0.00  0.00    +0.063 C 
ATOM      4  C   UNL     1      34.329 -15.560 -23.728  0.00  0.00    +0.060 C 
ATOM      5  C   UNL     1      35.521 -16.890 -22.557  0.00  0.00    +0.225 C 
ATOM      6  C   UNL     1      33.457 -13.995 -22.051  0.00  0.00    +0.053 C 
ATOM      7  C   UNL     1      32.783 -13.329 -23.078  0.00  0.00    +0.147 C 
ATOM      8  C   UNL     1      33.644 -14.878 -24.748  0.00  0.00    +0.019 C 
ATOM      9  C   UNL     1      32.873 -13.761 -24.404  0.00  0.00    +0.039 C 
ATOM     10  H   UNL     1      35.139 -15.946 -20.716  0.00  0.00    +0.150 HD
ATOM     11  H   UNL     1      35.385 -17.185 -24.598  0.00  0.00    +0.150 HD
ENDROOT
BRANCH   5  12
ATOM     12  N   UNL     1      36.324 -17.855 -22.058  0.00  0.00    -0.303 N 
ATOM     13  H   UNL     1      37.251 -17.834 -22.389  0.00  0.00    +0.150 HD
BRANCH  12  15
ATOM     14 CL   UNL     1      35.200 -22.199 -18.187  0.00  0.00    -0.082 Cl
ATOM     15  C   UNL     1      36.044 -18.898 -21.131  0.00  0.00    +0.047 C 
ATOM     16  C   UNL     1      34.743 -19.363 -20.996  0.00  0.00    +0.019 C 
ATOM     17  C   UNL     1      34.469 -20.386 -20.087  0.00  0.00    +0.083 C 
ATOM     18  C   UNL     1      37.077 -19.435 -20.375  0.00  0.00    +0.015 C 
ATOM     19  C   UNL     1      35.500 -20.933 -19.321  0.00  0.00    +0.062 C 
ATOM     20  C   UNL     1      36.803 -20.457 -19.465  0.00  0.00    +0.013 C 
BRANCH  17  24
ATOM     21  F   UNL     1      32.979 -22.219 -19.990  0.00  0.00    -0.166 F 
ATOM     22  F   UNL     1      32.477 -20.464 -18.808  0.00  0.00    -0.166 F 
ATOM     23  F   UNL     1      32.295 -20.400 -20.979  0.00  0.00    -0.166 F 
ATOM     24  C   UNL     1      33.060 -20.867 -19.963  0.00  0.00    +0.419 C 
ENDBRANCH  17  24
ENDBRANCH  12  15
ENDBRANCH   5  12
BRANCH   7  25
ATOM     25  O   UNL     1      32.023 -12.237 -22.780  0.00  0.00    -0.453 OA
BRANCH  25  27
ATOM     26  N   UNL     1      33.890  -8.524 -22.812  0.00  0.00    -0.239 NA
ATOM     27  C   UNL     1      32.645 -11.001 -22.791  0.00  0.00    +0.149 C 
ATOM     28  C   UNL     1      32.119  -9.975 -22.034  0.00  0.00    +0.061 C 
ATOM     29  C   UNL     1      33.776 -10.821 -23.556  0.00  0.00    +0.058 C 
ATOM     30  C   UNL     1      32.778  -8.757 -22.078  0.00  0.00    +0.137 C 
ATOM     31  C   UNL     1      34.362  -9.565 -23.534  0.00  0.00    +0.102 C 
BRANCH  30  34
ATOM     32  O   UNL     1      32.411  -7.603 -20.071  0.00  0.00    -0.268 OA
ATOM     33  N   UNL     1      31.690  -6.581 -22.023  0.00  0.00    -0.298 N 
ATOM     34  C   UNL     1      32.283  -7.628 -21.308  0.00  0.00    +0.264 C 
ATOM     35  C   UNL     1      31.171  -5.382 -21.403  0.00  0.00    +0.111 C 
ATOM     36  H   UNL     1      31.620  -6.666 -23.001  0.00  0.00    +0.150 HD
ENDBRANCH  30  34
ENDBRANCH  25  27
ENDBRANCH   7  25
TORSDOF 6
ENDMDL
MODEL 9
REMARK VINA RESULT:     -12.1      1.573      1.986
REMARK  Name = 11167118
REMARK  6 active torsions:
REMARK  status: ('A' for Active; 'I' for Inactive)
REMARK    1  A    between atoms: N_2  and  C_6
REMARK    2  A    between atoms: N_2  and  C_15
REMARK    3  A    between atoms: C_8  and  O_25
REMARK    4  A    between atoms: C_17  and  C_24
REMARK    5  A    between atoms: O_25  and  C_27
REMARK    6  A    between atoms: C_30  and  C_34
REMARK                            x       y       z     vdW  Elec       q    Type
REMARK                         _______ _______ _______ _____ _____    ______ ____
ROOT
ATOM      1  N   UNL     1      33.205 -20.796 -20.233  0.00  0.00    -0.302 N 
ATOM      2  N   UNL     1      34.908 -21.244 -18.878  0.00  0.00    -0.302 N 
ATOM      3  C   UNL     1      34.275 -20.111 -20.750  0.00  0.00    +0.063 C 
ATOM      4  C   UNL     1      35.325 -20.407 -19.886  0.00  0.00    +0.060 C 
ATOM      5  C   UNL     1      33.633 -21.457 -19.116  0.00  0.00    +0.225 C 
ATOM      6  C   UNL     1      34.410 -19.282 -21.866  0.00  0.00    +0.053 C 
ATOM      7  C   UNL     1      35.678 -18.741 -22.097  0.00  0.00    +0.147 C 
ATOM      8  C   UNL     1      36.593 -19.854 -20.134  0.00  0.00    +0.019 C 
ATOM      9  C   UNL     1      36.752 -19.020 -21.248  0.00  0.00    +0.039 C 
ATOM     10  H   UNL     1      32.292 -20.808 -20.602  0.00  0.00    +0.150 HD
ATOM     11  H   UNL     1      35.446 -21.607 -18.137  0.00  0.00    +0.150 HD
ENDROOT
BRANCH   5  12
ATOM     12  N   UNL     1      32.739 -22.207 -18.435  0.00  0.00    -0.303 N 
ATOM     13  H   UNL     1      31.898 -22.387 -18.915  0.00  0.00    +0.150 HD
BRANCH  12  15
ATOM     14 CL   UNL     1      33.113 -24.587 -13.021  0.00  0.00    -0.082 Cl
ATOM     15  C   UNL     1      32.819 -22.777 -17.133  0.00  0.00    +0.047 C 
ATOM     16  C   UNL     1      31.659 -22.952 -16.390  0.00  0.00    +0.019 C 
ATOM     17  C   UNL     1      31.738 -23.512 -15.114  0.00  0.00    +0.083 C 
ATOM     18  C   UNL     1      34.056 -23.150 -16.625  0.00  0.00    +0.015 C 
ATOM     19  C   UNL     1      32.976 -23.891 -14.594  0.00  0.00    +0.062 C 
ATOM     20  C   UNL     1      34.135 -23.709 -15.349  0.00  0.00    +0.013 C 
BRANCH  17  24
ATOM     21  F   UNL     1      30.195 -24.995 -14.109  0.00  0.00    -0.166 F 
ATOM     22  F   UNL     1      30.522 -23.084 -13.127  0.00  0.00    -0.166 F 
ATOM     23  F   UNL     1      29.416 -23.166 -15.003  0.00  0.00    -0.166 F 
ATOM     24  C   UNL     1      30.474 -23.689 -14.338  0.00  0.00    +0.419 C 
ENDBRANCH  17  24
ENDBRANCH  12  15
ENDBRANCH   5  12
BRANCH   7  25
ATOM     25  O   UNL     1      35.869 -17.924 -23.172  0.00  0.00    -0.453 OA
BRANCH  25  27
ATOM     26  N   UNL     1      33.552 -14.483 -23.412  0.00  0.00    -0.239 NA
ATOM     27  C   UNL     1      35.098 -16.778 -23.252  0.00  0.00    +0.149 C 
ATOM     28  C   UNL     1      34.908 -16.012 -22.121  0.00  0.00    +0.061 C 
ATOM     29  C   UNL     1      34.536 -16.426 -24.460  0.00  0.00    +0.058 C 
ATOM     30  C   UNL     1      34.127 -14.875 -22.253  0.00  0.00    +0.137 C 
ATOM     31  C   UNL     1      33.771 -15.271 -24.489  0.00  0.00    +0.102 C 
BRANCH  30  34
ATOM     32  O   UNL     1      34.750 -13.876 -20.226  0.00  0.00    -0.268 OA
ATOM     33  N   UNL     1      32.650 -13.355 -21.059  0.00  0.00    -0.298 N 
ATOM     34  C   UNL     1      33.882 -14.018 -21.106  0.00  0.00    +0.264 C 
ATOM     35  C   UNL     1      32.267 -12.453 -19.996  0.00  0.00    +0.111 C 
ATOM     36  H   UNL     1      32.008 -13.513 -21.789  0.00  0.00    +0.150 HD
ENDBRANCH  30  34
ENDBRANCH  25  27
ENDBRANCH   7  25
TORSDOF 6
ENDMDL
