MODEL 1
REMARK VINA RESULT:     -12.9      0.000      0.000
REMARK  Name = 6105620
REMARK  4 active torsions:
REMARK  status: ('A' for Active; 'I' for Inactive)
REMARK    1  A    between atoms: N_2  and  C_7
REMARK    2  A    between atoms: N_3  and  C_21
REMARK    3  A    between atoms: C_9  and  C_29
REMARK    4  A    between atoms: C_30  and  C_31
REMARK                            x       y       z     vdW  Elec       q    Type
REMARK                         _______ _______ _______ _____ _____    ______ ____
ROOT
ATOM      1  N   UNL     1      33.725 -22.778 -17.071  0.00  0.00    -0.086 NA
ATOM      2  N   UNL     1      35.109 -22.539 -16.677  0.00  0.00    -0.132 N 
ATOM      3  N   UNL     1      33.595 -22.226 -18.377  0.00  0.00    -0.240 N 
ATOM      4  N   UNL     1      35.730 -21.793 -17.671  0.00  0.00    -0.146 NA
ATOM      5  C   UNL     1      34.818 -21.641 -18.619  0.00  0.00    +0.162 C 
ATOM      6  H   UNL     1      32.810 -22.256 -18.972  0.00  0.00    +0.170 HD
ENDROOT
BRANCH   2  11
ATOM      7  O   UNL     1      36.717 -27.221 -15.433  0.00  0.00    -0.220 OA
ATOM      8  O   UNL     1      38.719 -24.222 -11.689  0.00  0.00    -0.220 OA
ATOM      9  N   UNL     1      37.946 -27.001 -13.525  0.00  0.00    -0.062 NA
ATOM     10  N   UNL     1      38.426 -26.281 -12.626  0.00  0.00    -0.062 NA
ATOM     11  C   UNL     1      35.888 -23.117 -15.653  0.00  0.00    +0.089 C 
ATOM     12  C   UNL     1      36.133 -24.502 -15.630  0.00  0.00    +0.030 C 
ATOM     13  C   UNL     1      36.437 -22.322 -14.631  0.00  0.00    +0.019 C 
ATOM     14  C   UNL     1      36.906 -25.066 -14.611  0.00  0.00    +0.097 C 
ATOM     15  C   UNL     1      37.437 -24.269 -13.616  0.00  0.00    +0.096 C 
ATOM     16  C   UNL     1      37.208 -22.890 -13.617  0.00  0.00    +0.014 C 
ATOM     17  C   UNL     1      37.183 -26.505 -14.552  0.00  0.00    +0.174 C 
ATOM     18  C   UNL     1      38.240 -24.922 -12.576  0.00  0.00    +0.174 C 
ENDBRANCH   2  11
BRANCH   1  21
ATOM     19  S   UNL     1      33.016 -23.942 -14.768  0.00  0.00    -0.074 S 
ATOM     20  N   UNL     1      31.445 -23.253 -16.750  0.00  0.00    -0.310 N 
ATOM     21  C   UNL     1      32.725 -23.250 -16.360  0.00  0.00    +0.222 C 
ATOM     22  C   UNL     1      30.620 -23.800 -15.820  0.00  0.00    +0.052 C 
ATOM     23  C   UNL     1      31.267 -24.241 -14.660  0.00  0.00    +0.041 C 
ATOM     24  C   UNL     1      29.246 -23.935 -15.955  0.00  0.00    +0.015 C 
ATOM     25  C   UNL     1      30.563 -24.822 -13.618  0.00  0.00    +0.007 C 
ATOM     26  C   UNL     1      28.525 -24.519 -14.911  0.00  0.00    +0.001 C 
ATOM     27  C   UNL     1      29.180 -24.959 -13.751  0.00  0.00    +0.001 C 
ATOM     28  H   UNL     1      31.135 -22.899 -17.615  0.00  0.00    +0.149 HD
ENDBRANCH   1  21
BRANCH   5  29
ATOM     29  C   UNL     1      35.124 -20.883 -19.841  0.00  0.00    +0.037 C 
ATOM     30  C   UNL     1      34.397 -19.844 -20.217  0.00  0.00    +0.003 C 
BRANCH  30  31
ATOM     31  C   UNL     1      34.658 -19.060 -21.437  0.00  0.00    +0.000 C 
ATOM     32  C   UNL     1      35.268 -17.820 -21.329  0.00  0.00    +0.000 C 
ATOM     33  C   UNL     1      34.289 -19.577 -22.668  0.00  0.00    +0.000 C 
ATOM     34  C   UNL     1      35.515 -17.077 -22.484  0.00  0.00    +0.000 C 
ATOM     35  C   UNL     1      34.536 -18.835 -23.823  0.00  0.00    +0.000 C 
ATOM     36  C   UNL     1      35.149 -17.585 -23.731  0.00  0.00    +0.000 C 
ENDBRANCH  30  31
ENDBRANCH   5  29
TORSDOF 4
ENDMDL
MODEL 2
REMARK VINA RESULT:     -12.7      2.373      5.499
REMARK  Name = 6105620
REMARK  4 active torsions:
REMARK  status: ('A' for Active; 'I' for Inactive)
REMARK    1  A    between atoms: N_2  and  C_7
REMARK    2  A    between atoms: N_3  and  C_21
REMARK    3  A    between atoms: C_9  and  C_29
REMARK    4  A    between atoms: C_30  and  C_31
REMARK                            x       y       z     vdW  Elec       q    Type
REMARK                         _______ _______ _______ _____ _____    ______ ____
ROOT
ATOM      1  N   UNL     1      35.711 -22.572 -16.857  0.00  0.00    -0.086 NA
ATOM      2  N   UNL     1      34.298 -22.596 -17.220  0.00  0.00    -0.132 N 
ATOM      3  N   UNL     1      36.341 -21.726 -17.814  0.00  0.00    -0.240 N 
ATOM      4  N   UNL     1      34.131 -21.874 -18.395  0.00  0.00    -0.146 NA
ATOM      5  C   UNL     1      35.331 -21.400 -18.692  0.00  0.00    +0.162 C 
ATOM      6  H   UNL     1      37.283 -21.440 -17.842  0.00  0.00    +0.170 HD
ENDROOT
BRANCH   2  11
ATOM      7  O   UNL     1      33.397 -24.794 -12.702  0.00  0.00    -0.220 OA
ATOM      8  O   UNL     1      28.637 -24.045 -14.652  0.00  0.00    -0.220 OA
ATOM      9  N   UNL     1      31.132 -24.981 -12.510  0.00  0.00    -0.062 NA
ATOM     10  N   UNL     1      29.990 -24.802 -12.978  0.00  0.00    -0.062 NA
ATOM     11  C   UNL     1      33.164 -22.994 -16.482  0.00  0.00    +0.089 C 
ATOM     12  C   UNL     1      33.304 -23.594 -15.217  0.00  0.00    +0.030 C 
ATOM     13  C   UNL     1      31.869 -22.800 -16.993  0.00  0.00    +0.019 C 
ATOM     14  C   UNL     1      32.174 -23.986 -14.493  0.00  0.00    +0.097 C 
ATOM     15  C   UNL     1      30.909 -23.788 -15.011  0.00  0.00    +0.096 C 
ATOM     16  C   UNL     1      30.745 -23.193 -16.266  0.00  0.00    +0.014 C 
ATOM     17  C   UNL     1      32.278 -24.615 -13.172  0.00  0.00    +0.174 C 
ATOM     18  C   UNL     1      29.765 -24.220 -14.201  0.00  0.00    +0.174 C 
ENDBRANCH   2  11
BRANCH   1  21
ATOM     19  S   UNL     1      37.934 -22.763 -15.379  0.00  0.00    -0.074 S 
ATOM     20  N   UNL     1      35.896 -24.411 -15.405  0.00  0.00    -0.310 N 
ATOM     21  C   UNL     1      36.352 -23.281 -15.954  0.00  0.00    +0.222 C 
ATOM     22  C   UNL     1      36.763 -24.936 -14.501  0.00  0.00    +0.052 C 
ATOM     23  C   UNL     1      37.939 -24.198 -14.329  0.00  0.00    +0.041 C 
ATOM     24  C   UNL     1      36.551 -26.102 -13.778  0.00  0.00    +0.015 C 
ATOM     25  C   UNL     1      38.921 -24.602 -13.442  0.00  0.00    +0.007 C 
ATOM     26  C   UNL     1      37.535 -26.520 -12.880  0.00  0.00    +0.001 C 
ATOM     27  C   UNL     1      38.712 -25.775 -12.713  0.00  0.00    +0.001 C 
ATOM     28  H   UNL     1      35.028 -24.819 -15.631  0.00  0.00    +0.149 HD
ENDBRANCH   1  21
BRANCH   5  29
ATOM     29  C   UNL     1      35.540 -20.583 -19.896  0.00  0.00    +0.037 C 
ATOM     30  C   UNL     1      34.585 -19.813 -20.390  0.00  0.00    +0.003 C 
BRANCH  30  31
ATOM     31  C   UNL     1      34.743 -18.985 -21.598  0.00  0.00    +0.000 C 
ATOM     32  C   UNL     1      34.398 -19.512 -22.833  0.00  0.00    +0.000 C 
ATOM     33  C   UNL     1      35.235 -17.695 -21.478  0.00  0.00    +0.000 C 
ATOM     34  C   UNL     1      34.548 -18.728 -23.977  0.00  0.00    +0.000 C 
ATOM     35  C   UNL     1      35.385 -16.911 -22.622  0.00  0.00    +0.000 C 
ATOM     36  C   UNL     1      35.041 -17.427 -23.872  0.00  0.00    +0.000 C 
ENDBRANCH  30  31
ENDBRANCH   5  29
TORSDOF 4
ENDMDL
MODEL 3
REMARK VINA RESULT:     -12.4      2.444      5.995
REMARK  Name = 6105620
REMARK  4 active torsions:
REMARK  status: ('A' for Active; 'I' for Inactive)
REMARK    1  A    between atoms: N_2  and  C_7
REMARK    2  A    between atoms: N_3  and  C_21
REMARK    3  A    between atoms: C_9  and  C_29
REMARK    4  A    between atoms: C_30  and  C_31
REMARK                            x       y       z     vdW  Elec       q    Type
REMARK                         _______ _______ _______ _____ _____    ______ ____
ROOT
ATOM      1  N   UNL     1      35.617 -22.623 -16.498  0.00  0.00    -0.086 NA
ATOM      2  N   UNL     1      34.233 -22.883 -16.879  0.00  0.00    -0.132 N 
ATOM      3  N   UNL     1      36.158 -21.815 -17.538  0.00  0.00    -0.240 N 
ATOM      4  N   UNL     1      34.009 -22.334 -18.135  0.00  0.00    -0.146 NA
ATOM      5  C   UNL     1      35.143 -21.736 -18.466  0.00  0.00    +0.162 C 
ATOM      6  H   UNL     1      37.053 -21.407 -17.584  0.00  0.00    +0.170 HD
ENDROOT
BRANCH   2  11
ATOM      7  O   UNL     1      29.165 -22.273 -16.909  0.00  0.00    -0.220 OA
ATOM      8  O   UNL     1      29.973 -25.478 -12.897  0.00  0.00    -0.220 OA
ATOM      9  N   UNL     1      28.351 -23.513 -15.177  0.00  0.00    -0.062 NA
ATOM     10  N   UNL     1      28.545 -24.282 -14.213  0.00  0.00    -0.062 NA
ATOM     11  C   UNL     1      33.140 -23.346 -16.118  0.00  0.00    +0.089 C 
ATOM     12  C   UNL     1      31.827 -22.952 -16.430  0.00  0.00    +0.030 C 
ATOM     13  C   UNL     1      33.339 -24.214 -15.028  0.00  0.00    +0.019 C 
ATOM     14  C   UNL     1      30.750 -23.416 -15.669  0.00  0.00    +0.097 C 
ATOM     15  C   UNL     1      30.964 -24.267 -14.602  0.00  0.00    +0.096 C 
ATOM     16  C   UNL     1      32.261 -24.674 -14.272  0.00  0.00    +0.014 C 
ATOM     17  C   UNL     1      29.367 -23.028 -15.962  0.00  0.00    +0.174 C 
ATOM     18  C   UNL     1      29.793 -24.719 -13.845  0.00  0.00    +0.174 C 
ENDBRANCH   2  11
BRANCH   1  21
ATOM     19  S   UNL     1      35.864 -22.792 -13.838  0.00  0.00    -0.074 S 
ATOM     20  N   UNL     1      37.395 -23.905 -15.650  0.00  0.00    -0.310 N 
ATOM     21  C   UNL     1      36.318 -23.126 -15.506  0.00  0.00    +0.222 C 
ATOM     22  C   UNL     1      37.926 -24.285 -14.459  0.00  0.00    +0.052 C 
ATOM     23  C   UNL     1      37.246 -23.791 -13.340  0.00  0.00    +0.041 C 
ATOM     24  C   UNL     1      39.043 -25.093 -14.306  0.00  0.00    +0.015 C 
ATOM     25  C   UNL     1      37.664 -24.090 -12.054  0.00  0.00    +0.007 C 
ATOM     26  C   UNL     1      39.473 -25.401 -13.014  0.00  0.00    +0.001 C 
ATOM     27  C   UNL     1      38.789 -24.902 -11.895  0.00  0.00    +0.001 C 
ATOM     28  H   UNL     1      37.763 -24.175 -16.523  0.00  0.00    +0.149 HD
ENDBRANCH   1  21
BRANCH   5  29
ATOM     29  C   UNL     1      35.279 -21.043 -19.756  0.00  0.00    +0.037 C 
ATOM     30  C   UNL     1      34.750 -19.850 -19.966  0.00  0.00    +0.003 C 
BRANCH  30  31
ATOM     31  C   UNL     1      34.851 -19.122 -21.242  0.00  0.00    +0.000 C 
ATOM     32  C   UNL     1      35.360 -17.832 -21.250  0.00  0.00    +0.000 C 
ATOM     33  C   UNL     1      34.436 -19.739 -22.411  0.00  0.00    +0.000 C 
ATOM     34  C   UNL     1      35.456 -17.143 -22.459  0.00  0.00    +0.000 C 
ATOM     35  C   UNL     1      34.532 -19.049 -23.620  0.00  0.00    +0.000 C 
ATOM     36  C   UNL     1      35.042 -17.751 -23.644  0.00  0.00    +0.000 C 
ENDBRANCH  30  31
ENDBRANCH   5  29
TORSDOF 4
ENDMDL
MODEL 4
REMARK VINA RESULT:     -12.1      1.327      1.777
REMARK  Name = 6105620
REMARK  4 active torsions:
REMARK  status: ('A' for Active; 'I' for Inactive)
REMARK    1  A    between atoms: N_2  and  C_7
REMARK    2  A    between atoms: N_3  and  C_21
REMARK    3  A    between atoms: C_9  and  C_29
REMARK    4  A    between atoms: C_30  and  C_31
REMARK                            x       y       z     vdW  Elec       q    Type
REMARK                         _______ _______ _______ _____ _____    ______ ____
ROOT
ATOM      1  N   UNL     1      33.674 -22.668 -17.212  0.00  0.00    -0.086 NA
ATOM      2  N   UNL     1      35.020 -22.346 -16.749  0.00  0.00    -0.132 N 
ATOM      3  N   UNL     1      33.586 -22.145 -18.534  0.00  0.00    -0.240 N 
ATOM      4  N   UNL     1      35.652 -21.583 -17.722  0.00  0.00    -0.146 NA
ATOM      5  C   UNL     1      34.787 -21.497 -18.721  0.00  0.00    +0.162 C 
ATOM      6  H   UNL     1      32.838 -22.228 -19.169  0.00  0.00    +0.170 HD
ENDROOT
BRANCH   2  11
ATOM      7  O   UNL     1      34.079 -23.941 -11.992  0.00  0.00    -0.220 OA
ATOM      8  O   UNL     1      39.212 -24.597 -12.495  0.00  0.00    -0.220 OA
ATOM      9  N   UNL     1      36.083 -24.585 -11.114  0.00  0.00    -0.062 NA
ATOM     10  N   UNL     1      37.316 -24.742 -11.235  0.00  0.00    -0.062 NA
ATOM     11  C   UNL     1      35.771 -22.863 -15.674  0.00  0.00    +0.089 C 
ATOM     12  C   UNL     1      35.149 -23.207 -14.460  0.00  0.00    +0.030 C 
ATOM     13  C   UNL     1      37.161 -23.047 -15.791  0.00  0.00    +0.019 C 
ATOM     14  C   UNL     1      35.903 -23.720 -13.401  0.00  0.00    +0.097 C 
ATOM     15  C   UNL     1      37.267 -23.893 -13.534  0.00  0.00    +0.096 C 
ATOM     16  C   UNL     1      37.908 -23.559 -14.730  0.00  0.00    +0.014 C 
ATOM     17  C   UNL     1      35.291 -24.090 -12.120  0.00  0.00    +0.174 C 
ATOM     18  C   UNL     1      38.000 -24.436 -12.385  0.00  0.00    +0.174 C 
ENDBRANCH   2  11
BRANCH   1  21
ATOM     19  S   UNL     1      32.905 -24.586 -15.512  0.00  0.00    -0.074 S 
ATOM     20  N   UNL     1      31.410 -22.719 -16.583  0.00  0.00    -0.310 N 
ATOM     21  C   UNL     1      32.664 -23.183 -16.547  0.00  0.00    +0.222 C 
ATOM     22  C   UNL     1      30.566 -23.440 -15.800  0.00  0.00    +0.052 C 
ATOM     23  C   UNL     1      31.172 -24.505 -15.124  0.00  0.00    +0.041 C 
ATOM     24  C   UNL     1      29.211 -23.186 -15.645  0.00  0.00    +0.015 C 
ATOM     25  C   UNL     1      30.446 -25.333 -14.286  0.00  0.00    +0.007 C 
ATOM     26  C   UNL     1      28.468 -24.016 -14.802  0.00  0.00    +0.001 C 
ATOM     27  C   UNL     1      29.081 -25.082 -14.128  0.00  0.00    +0.001 C 
ATOM     28  H   UNL     1      31.129 -21.941 -17.118  0.00  0.00    +0.149 HD
ENDBRANCH   1  21
BRANCH   5  29
ATOM     29  C   UNL     1      35.117 -20.743 -19.939  0.00  0.00    +0.037 C 
ATOM     30  C   UNL     1      34.350 -19.761 -20.381  0.00  0.00    +0.003 C 
BRANCH  30  31
ATOM     31  C   UNL     1      34.634 -18.984 -21.600  0.00  0.00    +0.000 C 
ATOM     32  C   UNL     1      34.282 -19.506 -22.835  0.00  0.00    +0.000 C 
ATOM     33  C   UNL     1      35.248 -17.748 -21.490  0.00  0.00    +0.000 C 
ATOM     34  C   UNL     1      34.550 -18.771 -23.990  0.00  0.00    +0.000 C 
ATOM     35  C   UNL     1      35.517 -17.012 -22.644  0.00  0.00    +0.000 C 
ATOM     36  C   UNL     1      35.168 -17.524 -23.894  0.00  0.00    +0.000 C 
ENDBRANCH  30  31
ENDBRANCH   5  29
TORSDOF 4
ENDMDL
MODEL 5
REMARK VINA RESULT:     -12.0      1.312      2.021
REMARK  Name = 6105620
REMARK  4 active torsions:
REMARK  status: ('A' for Active; 'I' for Inactive)
REMARK    1  A    between atoms: N_2  and  C_7
REMARK    2  A    between atoms: N_3  and  C_21
REMARK    3  A    between atoms: C_9  and  C_29
REMARK    4  A    between atoms: C_30  and  C_31
REMARK                            x       y       z     vdW  Elec       q    Type
REMARK                         _______ _______ _______ _____ _____    ______ ____
ROOT
ATOM      1  N   UNL     1      33.789 -23.142 -16.547  0.00  0.00    -0.086 NA
ATOM      2  N   UNL     1      35.160 -23.012 -16.066  0.00  0.00    -0.132 N 
ATOM      3  N   UNL     1      33.774 -22.538 -17.837  0.00  0.00    -0.240 N 
ATOM      4  N   UNL     1      35.887 -22.276 -16.993  0.00  0.00    -0.146 NA
ATOM      5  C   UNL     1      35.045 -22.029 -17.985  0.00  0.00    +0.162 C 
ATOM      6  H   UNL     1      33.026 -22.493 -18.476  0.00  0.00    +0.170 HD
ENDROOT
BRANCH   2  11
ATOM      7  O   UNL     1      37.757 -21.674 -11.880  0.00  0.00    -0.220 OA
ATOM      8  O   UNL     1      37.944 -26.869 -11.810  0.00  0.00    -0.220 OA
ATOM      9  N   UNL     1      38.441 -23.613 -10.892  0.00  0.00    -0.062 NA
ATOM     10  N   UNL     1      38.486 -24.860 -10.875  0.00  0.00    -0.062 NA
ATOM     11  C   UNL     1      35.836 -23.677 -15.022  0.00  0.00    +0.089 C 
ATOM     12  C   UNL     1      36.464 -22.952 -13.993  0.00  0.00    +0.030 C 
ATOM     13  C   UNL     1      35.898 -25.082 -14.987  0.00  0.00    +0.019 C 
ATOM     14  C   UNL     1      37.131 -23.621 -12.963  0.00  0.00    +0.097 C 
ATOM     15  C   UNL     1      37.182 -25.002 -12.945  0.00  0.00    +0.096 C 
ATOM     16  C   UNL     1      36.565 -25.745 -13.956  0.00  0.00    +0.014 C 
ATOM     17  C   UNL     1      37.798 -22.901 -11.874  0.00  0.00    +0.174 C 
ATOM     18  C   UNL     1      37.897 -25.643 -11.836  0.00  0.00    +0.174 C 
ENDBRANCH   2  11
BRANCH   1  21
ATOM     19  S   UNL     1      32.845 -24.169 -14.263  0.00  0.00    -0.074 S 
ATOM     20  N   UNL     1      31.485 -23.592 -16.428  0.00  0.00    -0.310 N 
ATOM     21  C   UNL     1      32.719 -23.569 -15.914  0.00  0.00    +0.222 C 
ATOM     22  C   UNL     1      30.567 -24.082 -15.555  0.00  0.00    +0.052 C 
ATOM     23  C   UNL     1      31.092 -24.457 -14.314  0.00  0.00    +0.041 C 
ATOM     24  C   UNL     1      29.212 -24.220 -15.819  0.00  0.00    +0.015 C 
ATOM     25  C   UNL     1      30.283 -24.974 -13.315  0.00  0.00    +0.007 C 
ATOM     26  C   UNL     1      28.386 -24.741 -14.820  0.00  0.00    +0.001 C 
ATOM     27  C   UNL     1      28.918 -25.115 -13.577  0.00  0.00    +0.001 C 
ATOM     28  H   UNL     1      31.265 -23.287 -17.339  0.00  0.00    +0.149 HD
ENDBRANCH   1  21
BRANCH   5  29
ATOM     29  C   UNL     1      35.473 -21.251 -19.157  0.00  0.00    +0.037 C 
ATOM     30  C   UNL     1      34.630 -20.489 -19.833  0.00  0.00    +0.003 C 
BRANCH  30  31
ATOM     31  C   UNL     1      35.009 -19.700 -21.018  0.00  0.00    +0.000 C 
ATOM     32  C   UNL     1      36.171 -18.944 -20.988  0.00  0.00    +0.000 C 
ATOM     33  C   UNL     1      34.197 -19.727 -22.140  0.00  0.00    +0.000 C 
ATOM     34  C   UNL     1      36.530 -18.197 -22.110  0.00  0.00    +0.000 C 
ATOM     35  C   UNL     1      34.556 -18.981 -23.263  0.00  0.00    +0.000 C 
ATOM     36  C   UNL     1      35.722 -18.215 -23.248  0.00  0.00    +0.000 C 
ENDBRANCH  30  31
ENDBRANCH   5  29
TORSDOF 4
ENDMDL
