MODEL 1
REMARK VINA RESULT:     -10.3      0.000      0.000
REMARK  Name = 197033
REMARK  3 active torsions:
REMARK  status: ('A' for Active; 'I' for Inactive)
REMARK    1  A    between atoms: N_1  and  C_17
REMARK    2  A    between atoms: C_17  and  C_18
REMARK    3  A    between atoms: C_18  and  C_20
REMARK                            x       y       z     vdW  Elec       q    Type
REMARK                         _______ _______ _______ _____ _____    ______ ____
ROOT
ATOM      1  N   UNL     1      33.692 -23.509 -15.252  0.00  0.00    -0.331 N 
ATOM      2  N   UNL     1      29.616 -23.045 -15.084  0.00  0.00    +0.388 N 
ATOM      3  C   UNL     1      32.336 -23.561 -15.126  0.00  0.00    +0.029 A 
ATOM      4  C   UNL     1      31.762 -22.966 -16.228  0.00  0.00    -0.030 A 
ATOM      5  C   UNL     1      31.586 -24.128 -13.979  0.00  0.00    +0.021 C 
ATOM      6  C   UNL     1      30.282 -22.880 -16.400  0.00  0.00    -0.049 C 
ATOM      7  C   UNL     1      32.822 -22.538 -17.076  0.00  0.00    +0.011 A 
ATOM      8  C   UNL     1      30.094 -24.248 -14.364  0.00  0.00    -0.071 C 
ATOM      9  C   UNL     1      34.019 -22.889 -16.440  0.00  0.00    +0.059 A 
ATOM     10  C   UNL     1      32.884 -21.887 -18.324  0.00  0.00    -0.003 C 
ATOM     11  C   UNL     1      35.275 -22.613 -16.995  0.00  0.00    +0.017 C 
ATOM     12  C   UNL     1      28.165 -23.096 -15.260  0.00  0.00    -0.100 C 
ATOM     13  C   UNL     1      34.134 -21.608 -18.889  0.00  0.00    -0.022 C 
ATOM     14  C   UNL     1      35.309 -21.967 -18.232  0.00  0.00    -0.003 C 
ATOM     15  C   UNL     1      34.205 -20.918 -20.211  0.00  0.00    +0.031 C 
ATOM     16  H   UNL     1      29.859 -22.237 -14.511  0.00  0.00    -0.079 HD
ENDROOT
BRANCH   1  17
ATOM     17  C   UNL     1      34.644 -24.031 -14.294  0.00  0.00    +0.110 C 
BRANCH  17  18
ATOM     18  C   UNL     1      35.131 -25.445 -14.624  0.00  0.00    +0.052 C 
BRANCH  18  20
ATOM     19  N   UNL     1      38.492 -27.092 -14.185  0.00  0.00    -0.248 NA
ATOM     20  C   UNL     1      36.622 -25.616 -14.468  0.00  0.00    -0.001 C 
ATOM     21  C   UNL     1      37.451 -24.513 -14.462  0.00  0.00    -0.001 C 
ATOM     22  C   UNL     1      37.167 -26.870 -14.329  0.00  0.00    +0.094 C 
ATOM     23  C   UNL     1      38.821 -24.701 -14.316  0.00  0.00    +0.014 C 
ATOM     24  C   UNL     1      39.287 -25.999 -14.181  0.00  0.00    +0.059 C 
ATOM     25  C   UNL     1      40.751 -26.238 -14.023  0.00  0.00    +0.052 C 
ENDBRANCH  18  20
ENDBRANCH  17  18
ENDBRANCH   1  17
TORSDOF 3
ENDMDL
MODEL 2
REMARK VINA RESULT:     -10.2      2.059      7.100
REMARK  Name = 197033
REMARK  3 active torsions:
REMARK  status: ('A' for Active; 'I' for Inactive)
REMARK    1  A    between atoms: N_1  and  C_17
REMARK    2  A    between atoms: C_17  and  C_18
REMARK    3  A    between atoms: C_18  and  C_20
REMARK                            x       y       z     vdW  Elec       q    Type
REMARK                         _______ _______ _______ _____ _____    ______ ____
ROOT
ATOM      1  N   UNL     1      35.312 -22.995 -15.729  0.00  0.00    -0.331 N 
ATOM      2  N   UNL     1      37.568 -24.862 -12.851  0.00  0.00    +0.388 N 
ATOM      3  C   UNL     1      36.191 -23.672 -14.938  0.00  0.00    +0.029 A 
ATOM      4  C   UNL     1      35.484 -24.428 -14.029  0.00  0.00    -0.030 A 
ATOM      5  C   UNL     1      37.670 -23.592 -15.008  0.00  0.00    +0.021 C 
ATOM      6  C   UNL     1      36.162 -25.303 -13.029  0.00  0.00    -0.049 C 
ATOM      7  C   UNL     1      34.101 -24.208 -14.284  0.00  0.00    +0.011 A 
ATOM      8  C   UNL     1      38.277 -24.721 -14.144  0.00  0.00    -0.071 C 
ATOM      9  C   UNL     1      34.022 -23.306 -15.352  0.00  0.00    +0.059 A 
ATOM     10  C   UNL     1      32.905 -24.688 -13.714  0.00  0.00    -0.003 C 
ATOM     11  C   UNL     1      32.801 -22.860 -15.872  0.00  0.00    +0.017 C 
ATOM     12  C   UNL     1      38.278 -25.794 -11.975  0.00  0.00    -0.100 C 
ATOM     13  C   UNL     1      31.678 -24.250 -14.226  0.00  0.00    -0.022 C 
ATOM     14  C   UNL     1      31.630 -23.350 -15.289  0.00  0.00    -0.003 C 
ATOM     15  C   UNL     1      30.408 -24.754 -13.626  0.00  0.00    +0.031 C 
ATOM     16  H   UNL     1      37.549 -23.938 -12.417  0.00  0.00    -0.079 HD
ENDROOT
BRANCH   1  17
ATOM     17  C   UNL     1      35.673 -22.095 -16.804  0.00  0.00    +0.110 C 
BRANCH  17  18
ATOM     18  C   UNL     1      34.999 -22.434 -18.138  0.00  0.00    +0.052 C 
BRANCH  18  20
ATOM     19  N   UNL     1      36.414 -19.703 -20.315  0.00  0.00    -0.248 NA
ATOM     20  C   UNL     1      35.075 -21.315 -19.147  0.00  0.00    -0.001 C 
ATOM     21  C   UNL     1      33.937 -20.890 -19.801  0.00  0.00    -0.001 C 
ATOM     22  C   UNL     1      36.278 -20.710 -19.424  0.00  0.00    +0.094 C 
ATOM     23  C   UNL     1      34.037 -19.857 -20.726  0.00  0.00    +0.014 C 
ATOM     24  C   UNL     1      35.287 -19.302 -20.944  0.00  0.00    +0.059 C 
ATOM     25  C   UNL     1      35.433 -18.191 -21.931  0.00  0.00    +0.052 C 
ENDBRANCH  18  20
ENDBRANCH  17  18
ENDBRANCH   1  17
TORSDOF 3
ENDMDL
MODEL 3
REMARK VINA RESULT:     -10.0      2.114      6.937
REMARK  Name = 197033
REMARK  3 active torsions:
REMARK  status: ('A' for Active; 'I' for Inactive)
REMARK    1  A    between atoms: N_1  and  C_17
REMARK    2  A    between atoms: C_17  and  C_18
REMARK    3  A    between atoms: C_18  and  C_20
REMARK                            x       y       z     vdW  Elec       q    Type
REMARK                         _______ _______ _______ _____ _____    ______ ____
ROOT
ATOM      1  N   UNL     1      33.480 -24.203 -14.209  0.00  0.00    -0.331 N 
ATOM      2  N   UNL     1      37.065 -24.080 -12.212  0.00  0.00    +0.388 N 
ATOM      3  C   UNL     1      34.551 -24.102 -13.373  0.00  0.00    +0.029 A 
ATOM      4  C   UNL     1      35.577 -23.467 -14.038  0.00  0.00    -0.030 A 
ATOM      5  C   UNL     1      34.629 -24.619 -11.985  0.00  0.00    +0.021 C 
ATOM      6  C   UNL     1      36.889 -23.186 -13.384  0.00  0.00    -0.049 C 
ATOM      7  C   UNL     1      35.104 -23.156 -15.344  0.00  0.00    +0.011 A 
ATOM      8  C   UNL     1      35.894 -24.047 -11.306  0.00  0.00    -0.071 C 
ATOM      9  C   UNL     1      33.789 -23.629 -15.424  0.00  0.00    +0.059 A 
ATOM     10  C   UNL     1      35.663 -22.515 -16.467  0.00  0.00    -0.003 C 
ATOM     11  C   UNL     1      33.010 -23.494 -16.579  0.00  0.00    +0.017 C 
ATOM     12  C   UNL     1      38.284 -23.721 -11.488  0.00  0.00    -0.100 C 
ATOM     13  C   UNL     1      34.893 -22.373 -17.628  0.00  0.00    -0.022 C 
ATOM     14  C   UNL     1      33.587 -22.856 -17.680  0.00  0.00    -0.003 C 
ATOM     15  C   UNL     1      35.480 -21.696 -18.822  0.00  0.00    +0.031 C 
ATOM     16  H   UNL     1      37.147 -25.035 -12.561  0.00  0.00    -0.079 HD
ENDROOT
BRANCH   1  17
ATOM     17  C   UNL     1      32.209 -24.810 -13.873  0.00  0.00    +0.110 C 
BRANCH  17  18
ATOM     18  C   UNL     1      31.146 -23.800 -13.427  0.00  0.00    +0.052 C 
BRANCH  18  20
ATOM     19  N   UNL     1      28.607 -22.031 -15.575  0.00  0.00    -0.248 NA
ATOM     20  C   UNL     1      30.070 -23.569 -14.459  0.00  0.00    -0.001 C 
ATOM     21  C   UNL     1      29.580 -24.624 -15.200  0.00  0.00    -0.001 C 
ATOM     22  C   UNL     1      29.570 -22.306 -14.668  0.00  0.00    +0.094 C 
ATOM     23  C   UNL     1      28.589 -24.381 -16.144  0.00  0.00    +0.014 C 
ATOM     24  C   UNL     1      28.139 -23.078 -16.291  0.00  0.00    +0.059 C 
ATOM     25  C   UNL     1      27.076 -22.780 -17.295  0.00  0.00    +0.052 C 
ENDBRANCH  18  20
ENDBRANCH  17  18
ENDBRANCH   1  17
TORSDOF 3
ENDMDL
MODEL 4
REMARK VINA RESULT:      -9.9      2.030      6.384
REMARK  Name = 197033
REMARK  3 active torsions:
REMARK  status: ('A' for Active; 'I' for Inactive)
REMARK    1  A    between atoms: N_1  and  C_17
REMARK    2  A    between atoms: C_17  and  C_18
REMARK    3  A    between atoms: C_18  and  C_20
REMARK                            x       y       z     vdW  Elec       q    Type
REMARK                         _______ _______ _______ _____ _____    ______ ____
ROOT
ATOM      1  N   UNL     1      35.093 -23.046 -15.732  0.00  0.00    -0.331 N 
ATOM      2  N   UNL     1      31.417 -24.501 -14.623  0.00  0.00    +0.388 N 
ATOM      3  C   UNL     1      33.804 -23.323 -15.384  0.00  0.00    +0.029 A 
ATOM      4  C   UNL     1      33.807 -24.177 -14.303  0.00  0.00    -0.030 A 
ATOM      5  C   UNL     1      32.587 -22.824 -16.070  0.00  0.00    +0.021 C 
ATOM      6  C   UNL     1      32.544 -24.656 -13.670  0.00  0.00    -0.049 C 
ATOM      7  C   UNL     1      35.168 -24.427 -13.968  0.00  0.00    +0.011 A 
ATOM      8  C   UNL     1      31.353 -23.135 -15.193  0.00  0.00    -0.071 C 
ATOM      9  C   UNL     1      35.951 -23.708 -14.879  0.00  0.00    +0.059 A 
ATOM     10  C   UNL     1      35.813 -25.193 -12.976  0.00  0.00    -0.003 C 
ATOM     11  C   UNL     1      37.350 -23.724 -14.845  0.00  0.00    +0.017 C 
ATOM     12  C   UNL     1      30.155 -24.841 -13.966  0.00  0.00    -0.100 C 
ATOM     13  C   UNL     1      37.212 -25.216 -12.933  0.00  0.00    -0.022 C 
ATOM     14  C   UNL     1      37.966 -24.492 -13.854  0.00  0.00    -0.003 C 
ATOM     15  C   UNL     1      37.902 -26.026 -11.886  0.00  0.00    +0.031 C 
ATOM     16  H   UNL     1      31.578 -25.142 -15.399  0.00  0.00    -0.079 HD
ENDROOT
BRANCH   1  17
ATOM     17  C   UNL     1      35.500 -22.184 -16.821  0.00  0.00    +0.110 C 
BRANCH  17  18
ATOM     18  C   UNL     1      34.776 -22.478 -18.139  0.00  0.00    +0.052 C 
BRANCH  18  20
ATOM     19  N   UNL     1      36.287 -19.769 -20.277  0.00  0.00    -0.248 NA
ATOM     20  C   UNL     1      34.896 -21.364 -19.149  0.00  0.00    -0.001 C 
ATOM     21  C   UNL     1      33.784 -20.932 -19.841  0.00  0.00    -0.001 C 
ATOM     22  C   UNL     1      36.112 -20.770 -19.387  0.00  0.00    +0.094 C 
ATOM     23  C   UNL     1      33.924 -19.903 -20.766  0.00  0.00    +0.014 C 
ATOM     24  C   UNL     1      35.186 -19.360 -20.945  0.00  0.00    +0.059 C 
ATOM     25  C   UNL     1      35.374 -18.254 -21.930  0.00  0.00    +0.052 C 
ENDBRANCH  18  20
ENDBRANCH  17  18
ENDBRANCH   1  17
TORSDOF 3
ENDMDL
MODEL 5
REMARK VINA RESULT:      -9.7      1.319      4.128
REMARK  Name = 197033
REMARK  3 active torsions:
REMARK  status: ('A' for Active; 'I' for Inactive)
REMARK    1  A    between atoms: N_1  and  C_17
REMARK    2  A    between atoms: C_17  and  C_18
REMARK    3  A    between atoms: C_18  and  C_20
REMARK                            x       y       z     vdW  Elec       q    Type
REMARK                         _______ _______ _______ _____ _____    ______ ____
ROOT
ATOM      1  N   UNL     1      33.994 -23.366 -14.438  0.00  0.00    -0.331 N 
ATOM      2  N   UNL     1      35.073 -22.535 -18.312  0.00  0.00    +0.388 N 
ATOM      3  C   UNL     1      34.488 -22.944 -15.636  0.00  0.00    +0.029 A 
ATOM      4  C   UNL     1      33.445 -22.796 -16.523  0.00  0.00    -0.030 A 
ATOM      5  C   UNL     1      35.918 -22.714 -15.960  0.00  0.00    +0.021 C 
ATOM      6  C   UNL     1      33.656 -22.325 -17.923  0.00  0.00    -0.049 C 
ATOM      7  C   UNL     1      32.250 -23.135 -15.827  0.00  0.00    +0.011 A 
ATOM      8  C   UNL     1      36.014 -21.975 -17.314  0.00  0.00    -0.071 C 
ATOM      9  C   UNL     1      32.623 -23.489 -14.525  0.00  0.00    +0.059 A 
ATOM     10  C   UNL     1      30.885 -23.173 -16.175  0.00  0.00    -0.003 C 
ATOM     11  C   UNL     1      31.693 -23.885 -13.557  0.00  0.00    +0.017 C 
ATOM     12  C   UNL     1      35.321 -21.955 -19.631  0.00  0.00    -0.100 C 
ATOM     13  C   UNL     1      29.945 -23.567 -15.214  0.00  0.00    -0.022 C 
ATOM     14  C   UNL     1      30.346 -23.916 -13.926  0.00  0.00    -0.003 C 
ATOM     15  C   UNL     1      28.498 -23.610 -15.577  0.00  0.00    +0.031 C 
ATOM     16  H   UNL     1      35.238 -23.541 -18.347  0.00  0.00    -0.079 HD
ENDROOT
BRANCH   1  17
ATOM     17  C   UNL     1      34.782 -23.635 -13.254  0.00  0.00    +0.110 C 
BRANCH  17  18
ATOM     18  C   UNL     1      35.159 -25.111 -13.091  0.00  0.00    +0.052 C 
BRANCH  18  20
ATOM     19  N   UNL     1      38.281 -26.498 -14.683  0.00  0.00    -0.248 NA
ATOM     20  C   UNL     1      36.619 -25.389 -13.356  0.00  0.00    -0.001 C 
ATOM     21  C   UNL     1      37.589 -24.821 -12.557  0.00  0.00    -0.001 C 
ATOM     22  C   UNL     1      36.993 -26.209 -14.393  0.00  0.00    +0.094 C 
ATOM     23  C   UNL     1      38.926 -25.094 -12.824  0.00  0.00    +0.014 C 
ATOM     24  C   UNL     1      39.216 -25.932 -13.888  0.00  0.00    +0.059 C 
ATOM     25  C   UNL     1      40.641 -26.247 -14.205  0.00  0.00    +0.052 C 
ENDBRANCH  18  20
ENDBRANCH  17  18
ENDBRANCH   1  17
TORSDOF 3
ENDMDL
MODEL 6
REMARK VINA RESULT:      -9.5      1.664      7.015
REMARK  Name = 197033
REMARK  3 active torsions:
REMARK  status: ('A' for Active; 'I' for Inactive)
REMARK    1  A    between atoms: N_1  and  C_17
REMARK    2  A    between atoms: C_17  and  C_18
REMARK    3  A    between atoms: C_18  and  C_20
REMARK                            x       y       z     vdW  Elec       q    Type
REMARK                         _______ _______ _______ _____ _____    ______ ____
ROOT
ATOM      1  N   UNL     1      33.772 -23.549 -15.841  0.00  0.00    -0.331 N 
ATOM      2  N   UNL     1      37.149 -24.351 -13.648  0.00  0.00    +0.388 N 
ATOM      3  C   UNL     1      34.770 -23.768 -14.939  0.00  0.00    +0.029 A 
ATOM      4  C   UNL     1      35.933 -23.202 -15.414  0.00  0.00    -0.030 A 
ATOM      5  C   UNL     1      34.650 -24.522 -13.667  0.00  0.00    +0.021 C 
ATOM      6  C   UNL     1      37.210 -23.253 -14.644  0.00  0.00    -0.049 C 
ATOM      7  C   UNL     1      35.626 -22.598 -16.666  0.00  0.00    +0.011 A 
ATOM      8  C   UNL     1      35.922 -24.287 -12.821  0.00  0.00    -0.071 C 
ATOM      9  C   UNL     1      34.267 -22.832 -16.909  0.00  0.00    +0.059 A 
ATOM     10  C   UNL     1      36.369 -21.872 -17.618  0.00  0.00    -0.003 C 
ATOM     11  C   UNL     1      33.620 -22.376 -18.064  0.00  0.00    +0.017 C 
ATOM     12  C   UNL     1      38.341 -24.324 -12.800  0.00  0.00    -0.100 C 
ATOM     13  C   UNL     1      35.732 -21.410 -18.776  0.00  0.00    -0.022 C 
ATOM     14  C   UNL     1      34.379 -21.660 -18.993  0.00  0.00    -0.003 C 
ATOM     15  C   UNL     1      36.514 -20.642 -19.789  0.00  0.00    +0.031 C 
ATOM     16  H   UNL     1      37.119 -25.232 -14.161  0.00  0.00    -0.079 HD
ENDROOT
BRANCH   1  17
ATOM     17  C   UNL     1      32.401 -23.992 -15.697  0.00  0.00    +0.110 C 
BRANCH  17  18
ATOM     18  C   UNL     1      31.597 -23.176 -14.680  0.00  0.00    +0.052 C 
BRANCH  18  20
ATOM     19  N   UNL     1      28.663 -22.519 -16.951  0.00  0.00    -0.248 NA
ATOM     20  C   UNL     1      30.192 -22.868 -15.136  0.00  0.00    -0.001 C 
ATOM     21  C   UNL     1      29.191 -22.660 -14.210  0.00  0.00    -0.001 C 
ATOM     22  C   UNL     1      29.899 -22.791 -16.476  0.00  0.00    +0.094 C 
ATOM     23  C   UNL     1      27.906 -22.378 -14.659  0.00  0.00    +0.014 C 
ATOM     24  C   UNL     1      27.696 -22.318 -16.028  0.00  0.00    +0.059 C 
ATOM     25  C   UNL     1      26.329 -22.019 -16.546  0.00  0.00    +0.052 C 
ENDBRANCH  18  20
ENDBRANCH  17  18
ENDBRANCH   1  17
TORSDOF 3
ENDMDL
MODEL 7
REMARK VINA RESULT:      -9.4     11.590     15.309
REMARK  Name = 197033
REMARK  3 active torsions:
REMARK  status: ('A' for Active; 'I' for Inactive)
REMARK    1  A    between atoms: N_1  and  C_17
REMARK    2  A    between atoms: C_17  and  C_18
REMARK    3  A    between atoms: C_18  and  C_20
REMARK                            x       y       z     vdW  Elec       q    Type
REMARK                         _______ _______ _______ _____ _____    ______ ____
ROOT
ATOM      1  N   UNL     1      32.152 -10.588 -22.832  0.00  0.00    -0.331 N 
ATOM      2  N   UNL     1      31.053  -6.656 -23.271  0.00  0.00    +0.388 N 
ATOM      3  C   UNL     1      31.949  -9.272 -23.124  0.00  0.00    +0.029 A 
ATOM      4  C   UNL     1      31.732  -8.583 -21.950  0.00  0.00    -0.030 A 
ATOM      5  C   UNL     1      31.926  -8.670 -24.479  0.00  0.00    +0.021 C 
ATOM      6  C   UNL     1      31.496  -7.110 -21.930  0.00  0.00    -0.049 C 
ATOM      7  C   UNL     1      31.816  -9.526 -20.887  0.00  0.00    +0.011 A 
ATOM      8  C   UNL     1      31.956  -7.130 -24.346  0.00  0.00    -0.071 C 
ATOM      9  C   UNL     1      32.078 -10.773 -21.468  0.00  0.00    +0.059 A 
ATOM     10  C   UNL     1      31.698  -9.443 -19.485  0.00  0.00    -0.003 C 
ATOM     11  C   UNL     1      32.222 -11.941 -20.709  0.00  0.00    +0.017 C 
ATOM     12  C   UNL     1      30.949  -5.197 -23.297  0.00  0.00    -0.100 C 
ATOM     13  C   UNL     1      31.841 -10.604 -18.717  0.00  0.00    -0.022 C 
ATOM     14  C   UNL     1      32.099 -11.832 -19.322  0.00  0.00    -0.003 C 
ATOM     15  C   UNL     1      31.715 -10.523 -17.232  0.00  0.00    +0.031 C 
ATOM     16  H   UNL     1      30.136  -7.064 -23.449  0.00  0.00    -0.079 HD
ENDROOT
BRANCH   1  17
ATOM     17  C   UNL     1      32.413 -11.630 -23.802  0.00  0.00    +0.110 C 
BRANCH  17  18
ATOM     18  C   UNL     1      33.874 -12.093 -23.826  0.00  0.00    +0.052 C 
BRANCH  18  20
ATOM     19  N   UNL     1      33.714 -15.593 -25.211  0.00  0.00    -0.248 NA
ATOM     20  C   UNL     1      34.026 -13.590 -23.928  0.00  0.00    -0.001 C 
ATOM     21  C   UNL     1      34.586 -14.304 -22.889  0.00  0.00    -0.001 C 
ATOM     22  C   UNL     1      33.607 -14.255 -25.056  0.00  0.00    +0.094 C 
ATOM     23  C   UNL     1      34.713 -15.683 -23.011  0.00  0.00    +0.014 C 
ATOM     24  C   UNL     1      34.265 -16.275 -24.181  0.00  0.00    +0.059 C 
ATOM     25  C   UNL     1      34.387 -17.753 -24.347  0.00  0.00    +0.052 C 
ENDBRANCH  18  20
ENDBRANCH  17  18
ENDBRANCH   1  17
TORSDOF 3
ENDMDL
MODEL 8
REMARK VINA RESULT:      -9.2      2.320      7.340
REMARK  Name = 197033
REMARK  3 active torsions:
REMARK  status: ('A' for Active; 'I' for Inactive)
REMARK    1  A    between atoms: N_1  and  C_17
REMARK    2  A    between atoms: C_17  and  C_18
REMARK    3  A    between atoms: C_18  and  C_20
REMARK                            x       y       z     vdW  Elec       q    Type
REMARK                         _______ _______ _______ _____ _____    ______ ____
ROOT
ATOM      1  N   UNL     1      33.478 -24.221 -14.178  0.00  0.00    -0.331 N 
ATOM      2  N   UNL     1      34.767 -22.173 -17.495  0.00  0.00    +0.388 N 
ATOM      3  C   UNL     1      33.813 -23.702 -15.393  0.00  0.00    +0.029 A 
ATOM      4  C   UNL     1      35.114 -23.253 -15.342  0.00  0.00    -0.030 A 
ATOM      5  C   UNL     1      32.923 -23.598 -16.575  0.00  0.00    +0.021 C 
ATOM      6  C   UNL     1      35.788 -22.645 -16.526  0.00  0.00    -0.049 C 
ATOM      7  C   UNL     1      35.601 -23.520 -14.031  0.00  0.00    +0.011 A 
ATOM      8  C   UNL     1      33.771 -23.223 -17.811  0.00  0.00    -0.071 C 
ATOM      9  C   UNL     1      34.556 -24.125 -13.324  0.00  0.00    +0.059 A 
ATOM     10  C   UNL     1      36.831 -23.309 -13.375  0.00  0.00    -0.003 C 
ATOM     11  C   UNL     1      34.684 -24.524 -11.988  0.00  0.00    +0.017 C 
ATOM     12  C   UNL     1      35.416 -21.698 -18.716  0.00  0.00    -0.100 C 
ATOM     13  C   UNL     1      36.970 -23.705 -12.040  0.00  0.00    -0.022 C 
ATOM     14  C   UNL     1      35.912 -24.303 -11.360  0.00  0.00    -0.003 C 
ATOM     15  C   UNL     1      38.270 -23.483 -11.339  0.00  0.00    +0.031 C 
ATOM     16  H   UNL     1      34.260 -21.402 -17.059  0.00  0.00    -0.079 HD
ENDROOT
BRANCH   1  17
ATOM     17  C   UNL     1      32.192 -24.793 -13.837  0.00  0.00    +0.110 C 
BRANCH  17  18
ATOM     18  C   UNL     1      31.152 -23.752 -13.412  0.00  0.00    +0.052 C 
BRANCH  18  20
ATOM     19  N   UNL     1      28.594 -22.009 -15.560  0.00  0.00    -0.248 NA
ATOM     20  C   UNL     1      30.070 -23.532 -14.441  0.00  0.00    -0.001 C 
ATOM     21  C   UNL     1      29.584 -24.594 -15.175  0.00  0.00    -0.001 C 
ATOM     22  C   UNL     1      29.562 -22.273 -14.655  0.00  0.00    +0.094 C 
ATOM     23  C   UNL     1      28.587 -24.361 -16.116  0.00  0.00    +0.014 C 
ATOM     24  C   UNL     1      28.130 -23.062 -16.269  0.00  0.00    +0.059 C 
ATOM     25  C   UNL     1      27.062 -22.775 -17.271  0.00  0.00    +0.052 C 
ENDBRANCH  18  20
ENDBRANCH  17  18
ENDBRANCH   1  17
TORSDOF 3
ENDMDL
MODEL 9
REMARK VINA RESULT:      -9.2      2.222      2.652
REMARK  Name = 197033
REMARK  3 active torsions:
REMARK  status: ('A' for Active; 'I' for Inactive)
REMARK    1  A    between atoms: N_1  and  C_17
REMARK    2  A    between atoms: C_17  and  C_18
REMARK    3  A    between atoms: C_18  and  C_20
REMARK                            x       y       z     vdW  Elec       q    Type
REMARK                         _______ _______ _______ _____ _____    ______ ____
ROOT
ATOM      1  N   UNL     1      34.070 -23.446 -16.215  0.00  0.00    -0.331 N 
ATOM      2  N   UNL     1      30.117 -22.939 -15.229  0.00  0.00    +0.388 N 
ATOM      3  C   UNL     1      32.759 -23.492 -15.849  0.00  0.00    +0.029 A 
ATOM      4  C   UNL     1      32.023 -22.727 -16.727  0.00  0.00    -0.030 A 
ATOM      5  C   UNL     1      32.203 -24.213 -14.678  0.00  0.00    +0.021 C 
ATOM      6  C   UNL     1      30.542 -22.589 -16.607  0.00  0.00    -0.049 C 
ATOM      7  C   UNL     1      32.931 -22.194 -17.685  0.00  0.00    +0.011 A 
ATOM      8  C   UNL     1      30.662 -24.246 -14.792  0.00  0.00    -0.071 C 
ATOM      9  C   UNL     1      34.206 -22.659 -17.339  0.00  0.00    +0.059 A 
ATOM     10  C   UNL     1      32.796 -21.363 -18.815  0.00  0.00    -0.003 C 
ATOM     11  C   UNL     1      35.352 -22.326 -18.072  0.00  0.00    +0.017 C 
ATOM     12  C   UNL     1      28.658 -22.936 -15.138  0.00  0.00    -0.100 C 
ATOM     13  C   UNL     1      33.935 -21.024 -19.554  0.00  0.00    -0.022 C 
ATOM     14  C   UNL     1      35.192 -21.499 -19.186  0.00  0.00    -0.003 C 
ATOM     15  C   UNL     1      33.798 -20.142 -20.752  0.00  0.00    +0.031 C 
ATOM     16  H   UNL     1      30.497 -22.231 -14.599  0.00  0.00    -0.079 HD
ENDROOT
BRANCH   1  17
ATOM     17  C   UNL     1      35.155 -24.124 -15.537  0.00  0.00    +0.110 C 
BRANCH  17  18
ATOM     18  C   UNL     1      35.996 -23.200 -14.650  0.00  0.00    +0.052 C 
BRANCH  18  20
ATOM     19  N   UNL     1      34.857 -24.769 -11.419  0.00  0.00    -0.248 NA
ATOM     20  C   UNL     1      35.941 -23.562 -13.187  0.00  0.00    -0.001 C 
ATOM     21  C   UNL     1      36.873 -23.049 -12.309  0.00  0.00    -0.001 C 
ATOM     22  C   UNL     1      34.962 -24.405 -12.716  0.00  0.00    +0.094 C 
ATOM     23  C   UNL     1      36.799 -23.401 -10.966  0.00  0.00    +0.014 C 
ATOM     24  C   UNL     1      35.780 -24.255 -10.575  0.00  0.00    +0.059 C 
ATOM     25  C   UNL     1      35.669 -24.654  -9.141  0.00  0.00    +0.052 C 
ENDBRANCH  18  20
ENDBRANCH  17  18
ENDBRANCH   1  17
TORSDOF 3
ENDMDL
