MODEL 1
REMARK VINA RESULT:     -11.3      0.000      0.000
REMARK  Name = 135565554
REMARK  0 active torsions:
REMARK  status: ('A' for Active; 'I' for Inactive)
REMARK                            x       y       z     vdW  Elec       q    Type
REMARK                         _______ _______ _______ _____ _____    ______ ____
ROOT
ATOM      1  F   UNL     1      29.537 -24.328 -14.459  0.00  0.00    -0.204 F 
ATOM      2  O   UNL     1      32.570 -22.586 -17.971  0.00  0.00    -0.268 OA
ATOM      3  N   UNL     1      37.654 -24.228 -13.794  0.00  0.00    +0.397 N 
ATOM      4  N   UNL     1      34.078 -24.559 -12.715  0.00  0.00    -0.358 N 
ATOM      5  N   UNL     1      35.863 -22.716 -16.566  0.00  0.00    -0.185 NA
ATOM      6  N   UNL     1      34.718 -22.602 -17.276  0.00  0.00    -0.203 N 
ATOM      7  C   UNL     1      36.637 -24.332 -12.712  0.00  0.00    -0.007 C 
ATOM      8  C   UNL     1      36.928 -25.732 -12.167  0.00  0.00    -0.016 C 
ATOM      9  C   UNL     1      35.263 -24.200 -13.297  0.00  0.00    +0.017 A 
ATOM     10  C   UNL     1      37.806 -25.551 -14.414  0.00  0.00    -0.076 C 
ATOM     11  C   UNL     1      37.289 -26.557 -13.394  0.00  0.00    -0.024 C 
ATOM     12  C   UNL     1      37.435 -23.151 -14.775  0.00  0.00    -0.028 C 
ATOM     13  C   UNL     1      34.981 -23.674 -14.536  0.00  0.00    +0.024 A 
ATOM     14  C   UNL     1      36.865 -23.266 -11.636  0.00  0.00    -0.015 C 
ATOM     15  C   UNL     1      36.025 -23.182 -15.373  0.00  0.00    +0.056 C 
ATOM     16  C   UNL     1      33.606 -23.751 -14.747  0.00  0.00    +0.022 A 
ATOM     17  C   UNL     1      33.044 -24.301 -13.592  0.00  0.00    +0.059 A 
ATOM     18  C   UNL     1      32.800 -23.398 -15.824  0.00  0.00    +0.059 C 
ATOM     19  C   UNL     1      31.669 -24.510 -13.457  0.00  0.00    +0.047 C 
ATOM     20  C   UNL     1      33.371 -22.843 -17.064  0.00  0.00    +0.265 C 
ATOM     21  C   UNL     1      31.413 -23.604 -15.700  0.00  0.00    +0.034 C 
ATOM     22  C   UNL     1      30.862 -24.147 -14.537  0.00  0.00    +0.142 C 
ATOM     23  H   UNL     1      38.530 -23.941 -13.357  0.00  0.00    -0.078 HD
ATOM     24  H   UNL     1      33.980 -24.942 -11.814  0.00  0.00    +0.166 HD
ATOM     25  H   UNL     1      34.886 -22.255 -18.181  0.00  0.00    +0.178 HD
ENDROOT
TORSDOF 0
ENDMDL
MODEL 2
REMARK VINA RESULT:     -10.1      3.022      5.860
REMARK  Name = 135565554
REMARK  0 active torsions:
REMARK  status: ('A' for Active; 'I' for Inactive)
REMARK                            x       y       z     vdW  Elec       q    Type
REMARK                         _______ _______ _______ _____ _____    ______ ____
ROOT
ATOM      1  F   UNL     1      35.715 -22.038 -18.986  0.00  0.00    -0.204 F 
ATOM      2  O   UNL     1      36.593 -23.151 -14.236  0.00  0.00    -0.268 OA
ATOM      3  N   UNL     1      29.926 -24.273 -13.710  0.00  0.00    +0.397 N 
ATOM      4  N   UNL     1      31.417 -22.909 -16.868  0.00  0.00    -0.358 N 
ATOM      5  N   UNL     1      33.378 -23.688 -12.751  0.00  0.00    -0.185 NA
ATOM      6  N   UNL     1      34.670 -23.543 -13.120  0.00  0.00    -0.203 N 
ATOM      7  C   UNL     1      29.774 -23.544 -14.999  0.00  0.00    -0.007 C 
ATOM      8  C   UNL     1      28.971 -24.557 -15.819  0.00  0.00    -0.016 C 
ATOM      9  C   UNL     1      31.126 -23.255 -15.578  0.00  0.00    +0.017 A 
ATOM     10  C   UNL     1      30.090 -25.703 -14.005  0.00  0.00    -0.076 C 
ATOM     11  C   UNL     1      29.523 -25.913 -15.403  0.00  0.00    -0.024 C 
ATOM     12  C   UNL     1      30.956 -23.749 -12.798  0.00  0.00    -0.028 C 
ATOM     13  C   UNL     1      32.307 -23.285 -14.874  0.00  0.00    +0.024 A 
ATOM     14  C   UNL     1      28.985 -22.245 -14.808  0.00  0.00    -0.015 C 
ATOM     15  C   UNL     1      32.318 -23.589 -13.481  0.00  0.00    +0.056 C 
ATOM     16  C   UNL     1      33.352 -23.000 -15.751  0.00  0.00    +0.022 A 
ATOM     17  C   UNL     1      32.781 -22.756 -17.003  0.00  0.00    +0.059 A 
ATOM     18  C   UNL     1      34.730 -22.933 -15.579  0.00  0.00    +0.059 C 
ATOM     19  C   UNL     1      33.550 -22.426 -18.122  0.00  0.00    +0.047 C 
ATOM     20  C   UNL     1      35.359 -23.214 -14.276  0.00  0.00    +0.265 C 
ATOM     21  C   UNL     1      35.516 -22.601 -16.698  0.00  0.00    +0.034 C 
ATOM     22  C   UNL     1      34.933 -22.350 -17.943  0.00  0.00    +0.142 C 
ATOM     23  H   UNL     1      29.072 -24.120 -13.174  0.00  0.00    -0.078 HD
ATOM     24  H   UNL     1      30.756 -22.789 -17.589  0.00  0.00    +0.166 HD
ATOM     25  H   UNL     1      35.283 -23.717 -12.370  0.00  0.00    +0.178 HD
ENDROOT
TORSDOF 0
ENDMDL
MODEL 3
REMARK VINA RESULT:      -9.5     14.798     17.259
REMARK  Name = 135565554
REMARK  0 active torsions:
REMARK  status: ('A' for Active; 'I' for Inactive)
REMARK                            x       y       z     vdW  Elec       q    Type
REMARK                         _______ _______ _______ _____ _____    ______ ____
ROOT
ATOM      1  F   UNL     1      31.901 -14.175 -21.029  0.00  0.00    -0.204 F 
ATOM      2  O   UNL     1      31.589 -10.566 -17.647  0.00  0.00    -0.268 OA
ATOM      3  N   UNL     1      32.528  -6.249 -22.792  0.00  0.00    +0.397 N 
ATOM      4  N   UNL     1      32.735  -9.956 -23.312  0.00  0.00    -0.358 N 
ATOM      5  N   UNL     1      32.300  -7.524 -19.401  0.00  0.00    -0.185 NA
ATOM      6  N   UNL     1      31.995  -8.546 -18.569  0.00  0.00    -0.203 N 
ATOM      7  C   UNL     1      32.989  -7.415 -23.592  0.00  0.00    -0.007 C 
ATOM      8  C   UNL     1      32.098  -7.294 -24.831  0.00  0.00    -0.016 C 
ATOM      9  C   UNL     1      32.759  -8.680 -22.821  0.00  0.00    +0.017 A 
ATOM     10  C   UNL     1      31.082  -6.092 -22.993  0.00  0.00    -0.076 C 
ATOM     11  C   UNL     1      30.758  -6.812 -24.295  0.00  0.00    -0.024 C 
ATOM     12  C   UNL     1      32.917  -6.257 -21.371  0.00  0.00    -0.028 C 
ATOM     13  C   UNL     1      32.543  -8.747 -21.465  0.00  0.00    +0.024 A 
ATOM     14  C   UNL     1      34.469  -7.279 -23.966  0.00  0.00    -0.015 C 
ATOM     15  C   UNL     1      32.541  -7.565 -20.668  0.00  0.00    +0.056 C 
ATOM     16  C   UNL     1      32.333 -10.079 -21.115  0.00  0.00    +0.022 A 
ATOM     17  C   UNL     1      32.465 -10.835 -22.284  0.00  0.00    +0.059 A 
ATOM     18  C   UNL     1      32.043 -10.698 -19.904  0.00  0.00    +0.059 C 
ATOM     19  C   UNL     1      32.327 -12.226 -22.293  0.00  0.00    +0.047 C 
ATOM     20  C   UNL     1      31.870  -9.922 -18.664  0.00  0.00    +0.265 C 
ATOM     21  C   UNL     1      31.901 -12.099 -19.900  0.00  0.00    +0.034 C 
ATOM     22  C   UNL     1      32.044 -12.844 -21.073  0.00  0.00    +0.142 C 
ATOM     23  H   UNL     1      33.024  -5.428 -23.141  0.00  0.00    -0.078 HD
ATOM     24  H   UNL     1      32.886 -10.207 -24.252  0.00  0.00    +0.166 HD
ATOM     25  H   UNL     1      31.813  -8.228 -17.656  0.00  0.00    +0.178 HD
ENDROOT
TORSDOF 0
ENDMDL
MODEL 4
REMARK VINA RESULT:      -9.0     14.531     16.893
REMARK  Name = 135565554
REMARK  0 active torsions:
REMARK  status: ('A' for Active; 'I' for Inactive)
REMARK                            x       y       z     vdW  Elec       q    Type
REMARK                         _______ _______ _______ _____ _____    ______ ____
ROOT
ATOM      1  F   UNL     1      31.573 -10.776 -16.709  0.00  0.00    -0.204 F 
ATOM      2  O   UNL     1      32.168 -13.552 -20.772  0.00  0.00    -0.268 OA
ATOM      3  N   UNL     1      32.817  -7.708 -24.150  0.00  0.00    +0.397 N 
ATOM      4  N   UNL     1      31.927  -7.751 -20.508  0.00  0.00    -0.358 N 
ATOM      5  N   UNL     1      32.331 -11.248 -23.510  0.00  0.00    -0.185 NA
ATOM      6  N   UNL     1      32.309 -12.269 -22.624  0.00  0.00    -0.203 N 
ATOM      7  C   UNL     1      32.237  -7.036 -22.956  0.00  0.00    -0.007 C 
ATOM      8  C   UNL     1      33.289  -5.958 -22.683  0.00  0.00    -0.016 C 
ATOM      9  C   UNL     1      32.099  -8.024 -21.837  0.00  0.00    +0.017 A 
ATOM     10  C   UNL     1      34.278  -7.726 -24.006  0.00  0.00    -0.076 C 
ATOM     11  C   UNL     1      34.617  -6.625 -23.009  0.00  0.00    -0.024 C 
ATOM     12  C   UNL     1      32.251  -9.028 -24.477  0.00  0.00    -0.028 C 
ATOM     13  C   UNL     1      32.117  -9.391 -21.987  0.00  0.00    +0.024 A 
ATOM     14  C   UNL     1      30.879  -6.406 -23.282  0.00  0.00    -0.015 C 
ATOM     15  C   UNL     1      32.256  -9.981 -23.277  0.00  0.00    +0.056 C 
ATOM     16  C   UNL     1      32.002  -9.975 -20.727  0.00  0.00    +0.022 A 
ATOM     17  C   UNL     1      31.873  -8.935 -19.803  0.00  0.00    +0.059 A 
ATOM     18  C   UNL     1      31.998 -11.300 -20.304  0.00  0.00    +0.059 C 
ATOM     19  C   UNL     1      31.724  -9.168 -18.433  0.00  0.00    +0.047 C 
ATOM     20  C   UNL     1      32.161 -12.413 -21.254  0.00  0.00    +0.265 C 
ATOM     21  C   UNL     1      31.848 -11.548 -18.926  0.00  0.00    +0.034 C 
ATOM     22  C   UNL     1      31.712 -10.500 -18.013  0.00  0.00    +0.142 C 
ATOM     23  H   UNL     1      32.550  -7.156 -24.966  0.00  0.00    -0.078 HD
ATOM     24  H   UNL     1      31.853  -6.850 -20.117  0.00  0.00    +0.166 HD
ATOM     25  H   UNL     1      32.430 -13.138 -23.069  0.00  0.00    +0.178 HD
ENDROOT
TORSDOF 0
ENDMDL
MODEL 5
REMARK VINA RESULT:      -8.9     14.006     16.644
REMARK  Name = 135565554
REMARK  0 active torsions:
REMARK  status: ('A' for Active; 'I' for Inactive)
REMARK                            x       y       z     vdW  Elec       q    Type
REMARK                         _______ _______ _______ _____ _____    ______ ____
ROOT
ATOM      1  F   UNL     1      33.661 -15.041 -24.152  0.00  0.00    -0.204 F 
ATOM      2  O   UNL     1      31.854 -13.571 -19.776  0.00  0.00    -0.268 OA
ATOM      3  N   UNL     1      32.106  -7.270 -22.272  0.00  0.00    +0.397 N 
ATOM      4  N   UNL     1      33.478 -10.175 -24.205  0.00  0.00    -0.358 N 
ATOM      5  N   UNL     1      31.840  -9.990 -19.882  0.00  0.00    -0.185 NA
ATOM      6  N   UNL     1      31.751 -11.319 -19.651  0.00  0.00    -0.203 N 
ATOM      7  C   UNL     1      32.993  -7.806 -23.340  0.00  0.00    -0.007 C 
ATOM      8  C   UNL     1      32.272  -7.313 -24.597  0.00  0.00    -0.016 C 
ATOM      9  C   UNL     1      33.056  -9.300 -23.243  0.00  0.00    +0.017 A 
ATOM     10  C   UNL     1      30.717  -7.345 -22.743  0.00  0.00    -0.076 C 
ATOM     11  C   UNL     1      30.792  -7.428 -24.262  0.00  0.00    -0.024 C 
ATOM     12  C   UNL     1      32.295  -7.855 -20.933  0.00  0.00    -0.028 C 
ATOM     13  C   UNL     1      32.699 -10.033 -22.135  0.00  0.00    +0.024 A 
ATOM     14  C   UNL     1      34.399  -7.204 -23.243  0.00  0.00    -0.015 C 
ATOM     15  C   UNL     1      32.242  -9.386 -20.950  0.00  0.00    +0.056 C 
ATOM     16  C   UNL     1      32.855 -11.386 -22.431  0.00  0.00    +0.022 A 
ATOM     17  C   UNL     1      33.354 -11.466 -23.733  0.00  0.00    +0.059 A 
ATOM     18  C   UNL     1      32.611 -12.541 -21.697  0.00  0.00    +0.059 C 
ATOM     19  C   UNL     1      33.641 -12.687 -24.350  0.00  0.00    +0.047 C 
ATOM     20  C   UNL     1      32.058 -12.485 -20.333  0.00  0.00    +0.265 C 
ATOM     21  C   UNL     1      32.896 -13.778 -22.306  0.00  0.00    +0.034 C 
ATOM     22  C   UNL     1      33.403 -13.845 -23.606  0.00  0.00    +0.142 C 
ATOM     23  H   UNL     1      32.374  -6.298 -22.116  0.00  0.00    -0.078 HD
ATOM     24  H   UNL     1      33.815  -9.923 -25.096  0.00  0.00    +0.166 HD
ATOM     25  H   UNL     1      31.368 -11.508 -18.764  0.00  0.00    +0.178 HD
ENDROOT
TORSDOF 0
ENDMDL
MODEL 6
REMARK VINA RESULT:      -8.7     13.921     16.293
REMARK  Name = 135565554
REMARK  0 active torsions:
REMARK  status: ('A' for Active; 'I' for Inactive)
REMARK                            x       y       z     vdW  Elec       q    Type
REMARK                         _______ _______ _______ _____ _____    ______ ____
ROOT
ATOM      1  F   UNL     1      35.748  -6.287 -23.640  0.00  0.00    -0.204 F 
ATOM      2  O   UNL     1      31.835  -6.984 -20.678  0.00  0.00    -0.268 OA
ATOM      3  N   UNL     1      32.524 -13.593 -22.037  0.00  0.00    +0.397 N 
ATOM      4  N   UNL     1      34.649 -11.029 -23.762  0.00  0.00    -0.358 N 
ATOM      5  N   UNL     1      31.054 -10.474 -20.902  0.00  0.00    -0.185 NA
ATOM      6  N   UNL     1      31.193  -9.148 -20.671  0.00  0.00    -0.203 N 
ATOM      7  C   UNL     1      33.398 -13.194 -23.174  0.00  0.00    -0.007 C 
ATOM      8  C   UNL     1      34.645 -14.038 -22.898  0.00  0.00    -0.016 C 
ATOM      9  C   UNL     1      33.659 -11.719 -23.119  0.00  0.00    +0.017 A 
ATOM     10  C   UNL     1      33.370 -13.801 -20.855  0.00  0.00    -0.076 C 
ATOM     11  C   UNL     1      34.779 -14.043 -21.382  0.00  0.00    -0.024 C 
ATOM     12  C   UNL     1      31.374 -12.710 -21.777  0.00  0.00    -0.028 C 
ATOM     13  C   UNL     1      32.913 -10.814 -22.400  0.00  0.00    +0.024 A 
ATOM     14  C   UNL     1      32.764 -13.575 -24.517  0.00  0.00    -0.015 C 
ATOM     15  C   UNL     1      31.782 -11.239 -21.643  0.00  0.00    +0.056 C 
ATOM     16  C   UNL     1      33.477  -9.550 -22.561  0.00  0.00    +0.022 A 
ATOM     17  C   UNL     1      34.564  -9.693 -23.427  0.00  0.00    +0.059 A 
ATOM     18  C   UNL     1      33.150  -8.303 -22.040  0.00  0.00    +0.059 C 
ATOM     19  C   UNL     1      35.356  -8.610 -23.817  0.00  0.00    +0.047 C 
ATOM     20  C   UNL     1      32.027  -8.130 -21.103  0.00  0.00    +0.265 C 
ATOM     21  C   UNL     1      33.940  -7.204 -22.425  0.00  0.00    +0.034 C 
ATOM     22  C   UNL     1      35.019  -7.358 -23.298  0.00  0.00    +0.142 C 
ATOM     23  H   UNL     1      32.065 -14.465 -22.300  0.00  0.00    -0.078 HD
ATOM     24  H   UNL     1      35.317 -11.424 -24.367  0.00  0.00    +0.166 HD
ATOM     25  H   UNL     1      30.525  -8.821 -20.027  0.00  0.00    +0.178 HD
ENDROOT
TORSDOF 0
ENDMDL
MODEL 7
REMARK VINA RESULT:      -8.7      2.493      4.046
REMARK  Name = 135565554
REMARK  0 active torsions:
REMARK  status: ('A' for Active; 'I' for Inactive)
REMARK                            x       y       z     vdW  Elec       q    Type
REMARK                         _______ _______ _______ _____ _____    ______ ____
ROOT
ATOM      1  F   UNL     1      36.423 -20.966 -19.137  0.00  0.00    -0.204 F 
ATOM      2  O   UNL     1      32.221 -22.670 -17.135  0.00  0.00    -0.268 OA
ATOM      3  N   UNL     1      36.039 -24.712 -11.915  0.00  0.00    +0.397 N 
ATOM      4  N   UNL     1      37.594 -23.236 -14.991  0.00  0.00    -0.358 N 
ATOM      5  N   UNL     1      33.194 -24.391 -14.147  0.00  0.00    -0.185 NA
ATOM      6  N   UNL     1      32.626 -23.785 -15.214  0.00  0.00    -0.203 N 
ATOM      7  C   UNL     1      37.222 -24.520 -12.798  0.00  0.00    -0.007 C 
ATOM      8  C   UNL     1      38.098 -23.617 -11.925  0.00  0.00    -0.016 C 
ATOM      9  C   UNL     1      36.796 -23.869 -14.079  0.00  0.00    +0.017 A 
ATOM     10  C   UNL     1      35.800 -23.461 -11.183  0.00  0.00    -0.076 C 
ATOM     11  C   UNL     1      37.116 -22.695 -11.217  0.00  0.00    -0.024 C 
ATOM     12  C   UNL     1      34.830 -25.237 -12.573  0.00  0.00    -0.028 C 
ATOM     13  C   UNL     1      35.503 -23.819 -14.545  0.00  0.00    +0.024 A 
ATOM     14  C   UNL     1      37.920 -25.854 -13.082  0.00  0.00    -0.015 C 
ATOM     15  C   UNL     1      34.440 -24.428 -13.815  0.00  0.00    +0.056 C 
ATOM     16  C   UNL     1      35.491 -23.103 -15.741  0.00  0.00    +0.022 A 
ATOM     17  C   UNL     1      36.813 -22.747 -16.018  0.00  0.00    +0.059 A 
ATOM     18  C   UNL     1      34.465 -22.732 -16.603  0.00  0.00    +0.059 C 
ATOM     19  C   UNL     1      37.168 -22.024 -17.161  0.00  0.00    +0.047 C 
ATOM     20  C   UNL     1      33.059 -23.069 -16.318  0.00  0.00    +0.265 C 
ATOM     21  C   UNL     1      34.809 -22.003 -17.757  0.00  0.00    +0.034 C 
ATOM     22  C   UNL     1      36.136 -21.661 -18.028  0.00  0.00    +0.142 C 
ATOM     23  H   UNL     1      36.267 -25.463 -11.264  0.00  0.00    -0.078 HD
ATOM     24  H   UNL     1      38.572 -23.142 -14.924  0.00  0.00    +0.166 HD
ATOM     25  H   UNL     1      31.646 -23.875 -15.203  0.00  0.00    +0.178 HD
ENDROOT
TORSDOF 0
ENDMDL
MODEL 8
REMARK VINA RESULT:      -8.6      2.309      3.858
REMARK  Name = 135565554
REMARK  0 active torsions:
REMARK  status: ('A' for Active; 'I' for Inactive)
REMARK                            x       y       z     vdW  Elec       q    Type
REMARK                         _______ _______ _______ _____ _____    ______ ____
ROOT
ATOM      1  F   UNL     1      34.301 -21.055 -19.800  0.00  0.00    -0.204 F 
ATOM      2  O   UNL     1      30.568 -22.400 -16.830  0.00  0.00    -0.268 OA
ATOM      3  N   UNL     1      35.330 -24.818 -12.650  0.00  0.00    +0.397 N 
ATOM      4  N   UNL     1      36.227 -23.457 -16.027  0.00  0.00    -0.358 N 
ATOM      5  N   UNL     1      32.073 -24.227 -14.140  0.00  0.00    -0.185 NA
ATOM      6  N   UNL     1      31.321 -23.563 -15.047  0.00  0.00    -0.203 N 
ATOM      7  C   UNL     1      36.279 -24.723 -13.792  0.00  0.00    -0.007 C 
ATOM      8  C   UNL     1      37.415 -23.909 -13.166  0.00  0.00    -0.016 C 
ATOM      9  C   UNL     1      35.617 -24.025 -14.943  0.00  0.00    +0.017 A 
ATOM     10  C   UNL     1      35.384 -23.557 -11.898  0.00  0.00    -0.076 C 
ATOM     11  C   UNL     1      36.716 -22.910 -12.255  0.00  0.00    -0.024 C 
ATOM     12  C   UNL     1      33.957 -25.227 -12.993  0.00  0.00    -0.028 C 
ATOM     13  C   UNL     1      34.260 -23.857 -15.086  0.00  0.00    +0.024 A 
ATOM     14  C   UNL     1      36.769 -26.111 -14.219  0.00  0.00    -0.015 C 
ATOM     15  C   UNL     1      33.354 -24.376 -14.115  0.00  0.00    +0.056 C 
ATOM     16  C   UNL     1      34.025 -23.132 -16.253  0.00  0.00    +0.022 A 
ATOM     17  C   UNL     1      35.269 -22.892 -16.844  0.00  0.00    +0.059 A 
ATOM     18  C   UNL     1      32.859 -22.664 -16.849  0.00  0.00    +0.059 C 
ATOM     19  C   UNL     1      35.402 -22.193 -18.047  0.00  0.00    +0.047 C 
ATOM     20  C   UNL     1      31.539 -22.879 -16.232  0.00  0.00    +0.265 C 
ATOM     21  C   UNL     1      32.980 -21.959 -18.061  0.00  0.00    +0.034 C 
ATOM     22  C   UNL     1      34.228 -21.732 -18.646  0.00  0.00    +0.142 C 
ATOM     23  H   UNL     1      35.641 -25.592 -12.063  0.00  0.00    -0.078 HD
ATOM     24  H   UNL     1      37.197 -23.451 -16.197  0.00  0.00    +0.166 HD
ATOM     25  H   UNL     1      30.368 -23.567 -14.801  0.00  0.00    +0.178 HD
ENDROOT
TORSDOF 0
ENDMDL
MODEL 9
REMARK VINA RESULT:      -8.5      8.968     11.219
REMARK  Name = 135565554
REMARK  0 active torsions:
REMARK  status: ('A' for Active; 'I' for Inactive)
REMARK                            x       y       z     vdW  Elec       q    Type
REMARK                         _______ _______ _______ _____ _____    ______ ____
ROOT
ATOM      1  F   UNL     1      33.139 -12.020 -20.040  0.00  0.00    -0.204 F 
ATOM      2  O   UNL     1      32.720 -13.495 -24.754  0.00  0.00    -0.268 OA
ATOM      3  N   UNL     1      35.470 -19.350 -22.718  0.00  0.00    +0.397 N 
ATOM      4  N   UNL     1      35.152 -16.442 -20.373  0.00  0.00    -0.358 N 
ATOM      5  N   UNL     1      34.300 -16.706 -24.913  0.00  0.00    -0.185 NA
ATOM      6  N   UNL     1      33.653 -15.528 -25.059  0.00  0.00    -0.203 N 
ATOM      7  C   UNL     1      35.888 -18.640 -21.479  0.00  0.00    -0.007 C 
ATOM      8  C   UNL     1      35.320 -19.567 -20.401  0.00  0.00    -0.016 C 
ATOM      9  C   UNL     1      35.286 -17.268 -21.455  0.00  0.00    +0.017 A 
ATOM     10  C   UNL     1      34.150 -19.950 -22.484  0.00  0.00    -0.076 C 
ATOM     11  C   UNL     1      33.997 -20.057 -20.973  0.00  0.00    -0.024 C 
ATOM     12  C   UNL     1      35.534 -18.559 -23.959  0.00  0.00    -0.028 C 
ATOM     13  C   UNL     1      34.773 -16.614 -22.550  0.00  0.00    +0.024 A 
ATOM     14  C   UNL     1      37.415 -18.556 -21.380  0.00  0.00    -0.015 C 
ATOM     15  C   UNL     1      34.799 -17.221 -23.840  0.00  0.00    +0.056 C 
ATOM     16  C   UNL     1      34.269 -15.383 -22.135  0.00  0.00    +0.022 A 
ATOM     17  C   UNL     1      34.521 -15.279 -20.764  0.00  0.00    +0.059 A 
ATOM     18  C   UNL     1      33.623 -14.355 -22.813  0.00  0.00    +0.059 C 
ATOM     19  C   UNL     1      34.154 -14.154 -20.021  0.00  0.00    +0.047 C 
ATOM     20  C   UNL     1      33.320 -14.453 -24.252  0.00  0.00    +0.265 C 
ATOM     21  C   UNL     1      33.248 -13.216 -22.076  0.00  0.00    +0.034 C 
ATOM     22  C   UNL     1      33.513 -13.120 -20.708  0.00  0.00    +0.142 C 
ATOM     23  H   UNL     1      36.161 -20.079 -22.896  0.00  0.00    -0.078 HD
ATOM     24  H   UNL     1      35.458 -16.646 -19.460  0.00  0.00    +0.166 HD
ATOM     25  H   UNL     1      33.335 -15.401 -25.981  0.00  0.00    +0.178 HD
ENDROOT
TORSDOF 0
ENDMDL
