MODEL 1
REMARK VINA RESULT:     -11.3      0.000      0.000
REMARK  Name = 447371
REMARK  8 active torsions:
REMARK  status: ('A' for Active; 'I' for Inactive)
REMARK    1  A    between atoms: N_3  and  C_14
REMARK    2  A    between atoms: N_4  and  C_18
REMARK    3  A    between atoms: C_11  and  C_26
REMARK    4  A    between atoms: C_14  and  C_15
REMARK    5  A    between atoms: C_15  and  C_16
REMARK    6  A    between atoms: C_18  and  C_20
REMARK    7  A    between atoms: C_26  and  C_27
REMARK    8  A    between atoms: C_32  and  N_34
REMARK                            x       y       z     vdW  Elec       q    Type
REMARK                         _______ _______ _______ _____ _____    ______ ____
ROOT
ATOM      1  O   UNL     1      31.635  -8.514 -21.184  0.00  0.00    -0.246 OA
ATOM      2  O   UNL     1      35.438  -9.123 -23.869  0.00  0.00    -0.265 OA
ATOM      3  N   UNL     1      31.998 -10.614 -22.117  0.00  0.00    -0.269 N 
ATOM      4  N   UNL     1      33.539  -8.790 -22.520  0.00  0.00    -0.243 N 
ATOM      5  N   UNL     1      34.495 -11.937 -24.187  0.00  0.00    -0.313 N 
ATOM      6  N   UNL     1      32.638 -12.714 -23.231  0.00  0.00    -0.304 N 
ATOM      7  C   UNL     1      32.824 -11.395 -22.916  0.00  0.00    +0.132 A 
ATOM      8  C   UNL     1      33.958 -10.892 -23.490  0.00  0.00    +0.133 A 
ATOM      9  C   UNL     1      32.331  -9.257 -21.886  0.00  0.00    +0.335 A 
ATOM     10  C   UNL     1      34.414  -9.548 -23.343  0.00  0.00    +0.280 A 
ATOM     11  C   UNL     1      33.665 -13.011 -24.000  0.00  0.00    +0.149 C 
ATOM     12  H   UNL     1      35.322 -11.921 -24.722  0.00  0.00    +0.148 HD
ATOM     13  H   UNL     1      31.904 -13.306 -22.946  0.00  0.00    +0.150 HD
ENDROOT
BRANCH   3  14
ATOM     14  C   UNL     1      30.799 -11.195 -21.526  0.00  0.00    +0.112 C 
BRANCH  14  15
ATOM     15  C   UNL     1      30.959 -11.468 -20.034  0.00  0.00    +0.025 C 
BRANCH  15  16
ATOM     16  C   UNL     1      32.278 -12.170 -19.705  0.00  0.00    +0.002 C 
ATOM     17  C   UNL     1      32.162 -13.677 -19.877  0.00  0.00    +0.000 C 
ENDBRANCH  15  16
ENDBRANCH  14  15
ENDBRANCH   3  14
BRANCH   4  18
ATOM     18  C   UNL     1      33.900  -7.395 -22.292  0.00  0.00    +0.143 C 
BRANCH  18  20
ATOM     19  F   UNL     1      35.781  -6.105 -23.963  0.00  0.00    -0.204 F 
ATOM     20  C   UNL     1      33.501  -6.517 -23.443  0.00  0.00    +0.028 C 
ATOM     21  C   UNL     1      34.480  -5.914 -24.224  0.00  0.00    +0.138 C 
ATOM     22  C   UNL     1      32.153  -6.315 -23.715  0.00  0.00    -0.000 C 
ATOM     23  C   UNL     1      34.105  -5.097 -25.292  0.00  0.00    +0.029 C 
ATOM     24  C   UNL     1      31.778  -5.500 -24.783  0.00  0.00    -0.000 C 
ATOM     25  C   UNL     1      32.754  -4.891 -25.572  0.00  0.00    +0.002 C 
ENDBRANCH  18  20
ENDBRANCH   4  18
BRANCH  11  26
ATOM     26  C   UNL     1      33.953 -14.319 -24.619  0.00  0.00    +0.067 C 
BRANCH  26  27
ATOM     27  C   UNL     1      34.410 -15.384 -23.632  0.00  0.00    -0.019 C 
ATOM     28  C   UNL     1      34.608 -15.029 -22.314  0.00  0.00    -0.003 C 
ATOM     29  C   UNL     1      34.613 -16.671 -24.087  0.00  0.00    -0.003 C 
ATOM     30  C   UNL     1      35.026 -16.006 -21.410  0.00  0.00    +0.014 C 
ATOM     31  C   UNL     1      35.031 -17.646 -23.183  0.00  0.00    +0.014 C 
ATOM     32  C   UNL     1      35.238 -17.314 -21.844  0.00  0.00    +0.050 C 
BRANCH  32  34
ATOM     33  O   UNL     1      37.942 -18.578 -21.445  0.00  0.00    -0.275 OA
ATOM     34  N   UNL     1      35.657 -18.291 -20.940  0.00  0.00    -0.284 N 
ATOM     35  C   UNL     1      36.935 -18.847 -20.798  0.00  0.00    +0.227 C 
ATOM     36  C   UNL     1      36.976 -19.879 -19.699  0.00  0.00    +0.095 C 
ATOM     37  H   UNL     1      34.968 -18.632 -20.326  0.00  0.00    +0.155 HD
ENDBRANCH  32  34
ENDBRANCH  26  27
ENDBRANCH  11  26
TORSDOF 8
ENDMDL
MODEL 2
REMARK VINA RESULT:      -9.9      3.315      9.607
REMARK  Name = 447371
REMARK  8 active torsions:
REMARK  status: ('A' for Active; 'I' for Inactive)
REMARK    1  A    between atoms: N_3  and  C_14
REMARK    2  A    between atoms: N_4  and  C_18
REMARK    3  A    between atoms: C_11  and  C_26
REMARK    4  A    between atoms: C_14  and  C_15
REMARK    5  A    between atoms: C_15  and  C_16
REMARK    6  A    between atoms: C_18  and  C_20
REMARK    7  A    between atoms: C_26  and  C_27
REMARK    8  A    between atoms: C_32  and  N_34
REMARK                            x       y       z     vdW  Elec       q    Type
REMARK                         _______ _______ _______ _____ _____    ______ ____
ROOT
ATOM      1  O   UNL     1      35.471 -17.205 -20.331  0.00  0.00    -0.246 OA
ATOM      2  O   UNL     1      34.778 -17.324 -24.974  0.00  0.00    -0.265 OA
ATOM      3  N   UNL     1      34.659 -15.289 -21.372  0.00  0.00    -0.269 N 
ATOM      4  N   UNL     1      35.136 -17.291 -22.648  0.00  0.00    -0.243 N 
ATOM      5  N   UNL     1      33.868 -14.496 -24.691  0.00  0.00    -0.313 N 
ATOM      6  N   UNL     1      33.812 -13.424 -22.737  0.00  0.00    -0.304 N 
ATOM      7  C   UNL     1      34.272 -14.703 -22.570  0.00  0.00    +0.132 A 
ATOM      8  C   UNL     1      34.316 -15.384 -23.755  0.00  0.00    +0.133 A 
ATOM      9  C   UNL     1      35.114 -16.631 -21.367  0.00  0.00    +0.335 A 
ATOM     10  C   UNL     1      34.751 -16.736 -23.897  0.00  0.00    +0.280 A 
ATOM     11  C   UNL     1      33.577 -13.331 -24.030  0.00  0.00    +0.149 C 
ATOM     12  H   UNL     1      33.771 -14.662 -25.657  0.00  0.00    +0.148 HD
ATOM     13  H   UNL     1      33.686 -12.732 -22.048  0.00  0.00    +0.150 HD
ENDROOT
BRANCH   3  14
ATOM     14  C   UNL     1      34.594 -14.522 -20.134  0.00  0.00    +0.112 C 
BRANCH  14  15
ATOM     15  C   UNL     1      33.237 -14.636 -19.449  0.00  0.00    +0.025 C 
BRANCH  15  16
ATOM     16  C   UNL     1      32.166 -13.773 -20.121  0.00  0.00    +0.002 C 
ATOM     17  C   UNL     1      32.285 -12.316 -19.701  0.00  0.00    +0.000 C 
ENDBRANCH  15  16
ENDBRANCH  14  15
ENDBRANCH   3  14
BRANCH   4  18
ATOM     18  C   UNL     1      35.600 -18.675 -22.663  0.00  0.00    +0.143 C 
BRANCH  18  20
ATOM     19  F   UNL     1      37.121 -19.897 -20.618  0.00  0.00    -0.204 F 
ATOM     20  C   UNL     1      34.981 -19.486 -21.561  0.00  0.00    +0.028 C 
ATOM     21  C   UNL     1      35.791 -20.059 -20.586  0.00  0.00    +0.138 C 
ATOM     22  C   UNL     1      33.603 -19.657 -21.527  0.00  0.00    -0.000 C 
ATOM     23  C   UNL     1      35.213 -20.813 -19.564  0.00  0.00    +0.029 C 
ATOM     24  C   UNL     1      33.025 -20.409 -20.505  0.00  0.00    -0.000 C 
ATOM     25  C   UNL     1      33.830 -20.988 -19.523  0.00  0.00    +0.002 C 
ENDBRANCH  18  20
ENDBRANCH   4  18
BRANCH  11  26
ATOM     26  C   UNL     1      33.062 -12.150 -24.749  0.00  0.00    +0.067 C 
BRANCH  26  27
ATOM     27  C   UNL     1      33.063 -10.872 -23.922  0.00  0.00    -0.019 C 
ATOM     28  C   UNL     1      34.193 -10.080 -23.923  0.00  0.00    -0.003 C 
ATOM     29  C   UNL     1      31.936 -10.546 -23.198  0.00  0.00    -0.003 C 
ATOM     30  C   UNL     1      34.193  -8.909 -23.166  0.00  0.00    +0.014 C 
ATOM     31  C   UNL     1      31.937  -9.375 -22.441  0.00  0.00    +0.014 C 
ATOM     32  C   UNL     1      33.066  -8.556 -22.424  0.00  0.00    +0.050 C 
BRANCH  32  34
ATOM     33  O   UNL     1      33.012  -8.158 -19.440  0.00  0.00    -0.275 OA
ATOM     34  N   UNL     1      33.066  -7.384 -21.666  0.00  0.00    -0.284 N 
ATOM     35  C   UNL     1      33.039  -7.256 -20.272  0.00  0.00    +0.227 C 
ATOM     36  C   UNL     1      33.050  -5.810 -19.843  0.00  0.00    +0.095 C 
ATOM     37  H   UNL     1      33.089  -6.543 -22.176  0.00  0.00    +0.155 HD
ENDBRANCH  32  34
ENDBRANCH  26  27
ENDBRANCH  11  26
TORSDOF 8
ENDMDL
MODEL 3
REMARK VINA RESULT:      -9.7      7.145     14.441
REMARK  Name = 447371
REMARK  8 active torsions:
REMARK  status: ('A' for Active; 'I' for Inactive)
REMARK    1  A    between atoms: N_3  and  C_14
REMARK    2  A    between atoms: N_4  and  C_18
REMARK    3  A    between atoms: C_11  and  C_26
REMARK    4  A    between atoms: C_14  and  C_15
REMARK    5  A    between atoms: C_15  and  C_16
REMARK    6  A    between atoms: C_18  and  C_20
REMARK    7  A    between atoms: C_26  and  C_27
REMARK    8  A    between atoms: C_32  and  N_34
REMARK                            x       y       z     vdW  Elec       q    Type
REMARK                         _______ _______ _______ _____ _____    ______ ____
ROOT
ATOM      1  O   UNL     1      32.963 -23.760 -14.054  0.00  0.00    -0.246 OA
ATOM      2  O   UNL     1      37.305 -22.198 -14.921  0.00  0.00    -0.265 OA
ATOM      3  N   UNL     1      33.512 -23.198 -16.243  0.00  0.00    -0.269 N 
ATOM      4  N   UNL     1      35.135 -22.982 -14.458  0.00  0.00    -0.243 N 
ATOM      5  N   UNL     1      36.425 -21.985 -17.765  0.00  0.00    -0.313 N 
ATOM      6  N   UNL     1      34.376 -22.532 -18.451  0.00  0.00    -0.304 N 
ATOM      7  C   UNL     1      34.499 -22.727 -17.101  0.00  0.00    +0.132 A 
ATOM      8  C   UNL     1      35.749 -22.399 -16.653  0.00  0.00    +0.133 A 
ATOM      9  C   UNL     1      33.800 -23.345 -14.864  0.00  0.00    +0.335 A 
ATOM     10  C   UNL     1      36.175 -22.498 -15.295  0.00  0.00    +0.280 A 
ATOM     11  C   UNL     1      35.557 -22.083 -18.821  0.00  0.00    +0.149 C 
ATOM     12  H   UNL     1      37.359 -21.675 -17.801  0.00  0.00    +0.148 HD
ATOM     13  H   UNL     1      33.585 -22.691 -19.015  0.00  0.00    +0.150 HD
ENDROOT
BRANCH   3  14
ATOM     14  C   UNL     1      32.195 -23.535 -16.768  0.00  0.00    +0.112 C 
BRANCH  14  15
ATOM     15  C   UNL     1      31.153 -22.466 -16.454  0.00  0.00    +0.025 C 
BRANCH  15  16
ATOM     16  C   UNL     1      29.823 -23.063 -15.986  0.00  0.00    +0.002 C 
ATOM     17  C   UNL     1      29.556 -22.743 -14.523  0.00  0.00    +0.000 C 
ENDBRANCH  15  16
ENDBRANCH  14  15
ENDBRANCH   3  14
BRANCH   4  18
ATOM     18  C   UNL     1      35.450 -23.129 -13.041  0.00  0.00    +0.143 C 
BRANCH  18  20
ATOM     19  F   UNL     1      37.638 -22.766 -11.288  0.00  0.00    -0.204 F 
ATOM     20  C   UNL     1      36.489 -24.187 -12.804  0.00  0.00    +0.028 C 
ATOM     21  C   UNL     1      37.539 -23.940 -11.927  0.00  0.00    +0.138 C 
ATOM     22  C   UNL     1      36.390 -25.404 -13.467  0.00  0.00    -0.000 C 
ATOM     23  C   UNL     1      38.503 -24.925 -11.710  0.00  0.00    +0.029 C 
ATOM     24  C   UNL     1      37.353 -26.389 -13.249  0.00  0.00    -0.000 C 
ATOM     25  C   UNL     1      38.410 -26.150 -12.370  0.00  0.00    +0.002 C 
ENDBRANCH  18  20
ENDBRANCH   4  18
BRANCH  11  26
ATOM     26  C   UNL     1      35.969 -21.712 -20.188  0.00  0.00    +0.067 C 
BRANCH  26  27
ATOM     27  C   UNL     1      35.714 -20.252 -20.538  0.00  0.00    -0.019 C 
ATOM     28  C   UNL     1      34.411 -19.810 -20.641  0.00  0.00    -0.003 C 
ATOM     29  C   UNL     1      36.793 -19.417 -20.741  0.00  0.00    -0.003 C 
ATOM     30  C   UNL     1      34.178 -18.473 -20.961  0.00  0.00    +0.014 C 
ATOM     31  C   UNL     1      36.559 -18.080 -21.061  0.00  0.00    +0.014 C 
ATOM     32  C   UNL     1      35.251 -17.608 -21.171  0.00  0.00    +0.050 C 
BRANCH  32  34
ATOM     33  O   UNL     1      34.932 -16.265 -23.848  0.00  0.00    -0.275 OA
ATOM     34  N   UNL     1      35.017 -16.270 -21.492  0.00  0.00    -0.284 N 
ATOM     35  C   UNL     1      34.878 -15.696 -22.762  0.00  0.00    +0.227 C 
ATOM     36  C   UNL     1      34.633 -14.210 -22.680  0.00  0.00    +0.095 C 
ATOM     37  H   UNL     1      34.941 -15.652 -20.729  0.00  0.00    +0.155 HD
ENDBRANCH  32  34
ENDBRANCH  26  27
ENDBRANCH  11  26
TORSDOF 8
ENDMDL
MODEL 4
REMARK VINA RESULT:      -9.6      6.582     11.044
REMARK  Name = 447371
REMARK  8 active torsions:
REMARK  status: ('A' for Active; 'I' for Inactive)
REMARK    1  A    between atoms: N_3  and  C_14
REMARK    2  A    between atoms: N_4  and  C_18
REMARK    3  A    between atoms: C_11  and  C_26
REMARK    4  A    between atoms: C_14  and  C_15
REMARK    5  A    between atoms: C_15  and  C_16
REMARK    6  A    between atoms: C_18  and  C_20
REMARK    7  A    between atoms: C_26  and  C_27
REMARK    8  A    between atoms: C_32  and  N_34
REMARK                            x       y       z     vdW  Elec       q    Type
REMARK                         _______ _______ _______ _____ _____    ______ ____
ROOT
ATOM      1  O   UNL     1      37.666 -19.128 -20.431  0.00  0.00    -0.246 OA
ATOM      2  O   UNL     1      33.250 -19.803 -21.874  0.00  0.00    -0.265 OA
ATOM      3  N   UNL     1      36.279 -20.472 -19.135  0.00  0.00    -0.269 N 
ATOM      4  N   UNL     1      35.468 -19.447 -21.173  0.00  0.00    -0.243 N 
ATOM      5  N   UNL     1      32.942 -21.494 -19.433  0.00  0.00    -0.313 N 
ATOM      6  N   UNL     1      34.591 -21.839 -17.975  0.00  0.00    -0.304 N 
ATOM      7  C   UNL     1      35.013 -21.025 -18.992  0.00  0.00    +0.132 A 
ATOM      8  C   UNL     1      34.019 -20.797 -19.903  0.00  0.00    +0.133 A 
ATOM      9  C   UNL     1      36.558 -19.647 -20.251  0.00  0.00    +0.335 A 
ATOM     10  C   UNL     1      34.159 -19.990 -21.071  0.00  0.00    +0.280 A 
ATOM     11  C   UNL     1      33.336 -22.104 -18.271  0.00  0.00    +0.149 C 
ATOM     12  H   UNL     1      32.052 -21.548 -19.851  0.00  0.00    +0.148 HD
ATOM     13  H   UNL     1      35.109 -22.153 -17.199  0.00  0.00    +0.150 HD
ENDROOT
BRANCH   3  14
ATOM     14  C   UNL     1      37.307 -20.744 -18.137  0.00  0.00    +0.112 C 
BRANCH  14  15
ATOM     15  C   UNL     1      36.973 -21.957 -17.274  0.00  0.00    +0.025 C 
BRANCH  15  16
ATOM     16  C   UNL     1      37.445 -21.795 -15.827  0.00  0.00    +0.002 C 
ATOM     17  C   UNL     1      37.934 -23.116 -15.253  0.00  0.00    +0.000 C 
ENDBRANCH  15  16
ENDBRANCH  14  15
ENDBRANCH   3  14
BRANCH   4  18
ATOM     18  C   UNL     1      35.737 -18.601 -22.331  0.00  0.00    +0.143 C 
BRANCH  18  20
ATOM     19  F   UNL     1      35.173 -16.821 -24.454  0.00  0.00    -0.204 F 
ATOM     20  C   UNL     1      35.283 -17.187 -22.110  0.00  0.00    +0.028 C 
ATOM     21  C   UNL     1      35.022 -16.366 -23.202  0.00  0.00    +0.138 C 
ATOM     22  C   UNL     1      35.128 -16.712 -20.814  0.00  0.00    -0.000 C 
ATOM     23  C   UNL     1      34.602 -15.053 -22.993  0.00  0.00    +0.029 C 
ATOM     24  C   UNL     1      34.706 -15.399 -20.605  0.00  0.00    -0.000 C 
ATOM     25  C   UNL     1      34.443 -14.569 -21.695  0.00  0.00    +0.002 C 
ENDBRANCH  18  20
ENDBRANCH   4  18
BRANCH  11  26
ATOM     26  C   UNL     1      32.407 -22.947 -17.495  0.00  0.00    +0.067 C 
BRANCH  26  27
ATOM     27  C   UNL     1      32.937 -23.358 -16.129  0.00  0.00    -0.019 C 
ATOM     28  C   UNL     1      34.167 -23.978 -16.051  0.00  0.00    -0.003 C 
ATOM     29  C   UNL     1      32.171 -23.099 -15.011  0.00  0.00    -0.003 C 
ATOM     30  C   UNL     1      34.652 -24.355 -14.799  0.00  0.00    +0.014 C 
ATOM     31  C   UNL     1      32.657 -23.476 -13.760  0.00  0.00    +0.014 C 
ATOM     32  C   UNL     1      33.898 -24.104 -13.653  0.00  0.00    +0.050 C 
BRANCH  32  34
ATOM     33  O   UNL     1      36.279 -23.112 -12.099  0.00  0.00    -0.275 OA
ATOM     34  N   UNL     1      34.384 -24.482 -12.400  0.00  0.00    -0.284 N 
ATOM     35  C   UNL     1      35.504 -23.985 -11.722  0.00  0.00    +0.227 C 
ATOM     36  C   UNL     1      35.690 -24.658 -10.385  0.00  0.00    +0.095 C 
ATOM     37  H   UNL     1      33.875 -25.185 -11.937  0.00  0.00    +0.155 HD
ENDBRANCH  32  34
ENDBRANCH  26  27
ENDBRANCH  11  26
TORSDOF 8
ENDMDL
MODEL 5
REMARK VINA RESULT:      -9.6      3.041      9.799
REMARK  Name = 447371
REMARK  8 active torsions:
REMARK  status: ('A' for Active; 'I' for Inactive)
REMARK    1  A    between atoms: N_3  and  C_14
REMARK    2  A    between atoms: N_4  and  C_18
REMARK    3  A    between atoms: C_11  and  C_26
REMARK    4  A    between atoms: C_14  and  C_15
REMARK    5  A    between atoms: C_15  and  C_16
REMARK    6  A    between atoms: C_18  and  C_20
REMARK    7  A    between atoms: C_26  and  C_27
REMARK    8  A    between atoms: C_32  and  N_34
REMARK                            x       y       z     vdW  Elec       q    Type
REMARK                         _______ _______ _______ _____ _____    ______ ____
ROOT
ATOM      1  O   UNL     1      34.808 -16.219 -24.631  0.00  0.00    -0.246 OA
ATOM      2  O   UNL     1      35.317 -16.356 -19.966  0.00  0.00    -0.265 OA
ATOM      3  N   UNL     1      33.647 -14.661 -23.352  0.00  0.00    -0.269 N 
ATOM      4  N   UNL     1      35.079 -16.311 -22.307  0.00  0.00    -0.243 N 
ATOM      5  N   UNL     1      33.434 -14.041 -19.911  0.00  0.00    -0.313 N 
ATOM      6  N   UNL     1      32.550 -13.147 -21.751  0.00  0.00    -0.304 N 
ATOM      7  C   UNL     1      33.374 -14.192 -22.074  0.00  0.00    +0.132 A 
ATOM      8  C   UNL     1      33.931 -14.760 -20.961  0.00  0.00    +0.133 A 
ATOM      9  C   UNL     1      34.527 -15.759 -23.519  0.00  0.00    +0.335 A 
ATOM     10  C   UNL     1      34.831 -15.867 -20.981  0.00  0.00    +0.280 A 
ATOM     11  C   UNL     1      32.609 -13.082 -20.438  0.00  0.00    +0.149 C 
ATOM     12  H   UNL     1      33.633 -14.185 -18.957  0.00  0.00    +0.148 HD
ATOM     13  H   UNL     1      32.033 -12.574 -22.363  0.00  0.00    +0.150 HD
ENDROOT
BRANCH   3  14
ATOM     14  C   UNL     1      33.029 -14.023 -24.508  0.00  0.00    +0.112 C 
BRANCH  14  15
ATOM     15  C   UNL     1      33.767 -12.759 -24.938  0.00  0.00    +0.025 C 
BRANCH  15  16
ATOM     16  C   UNL     1      33.202 -11.498 -24.281  0.00  0.00    +0.002 C 
ATOM     17  C   UNL     1      34.302 -10.672 -23.632  0.00  0.00    +0.000 C 
ENDBRANCH  15  16
ENDBRANCH  14  15
ENDBRANCH   3  14
BRANCH   4  18
ATOM     18  C   UNL     1      35.989 -17.442 -22.458  0.00  0.00    +0.143 C 
BRANCH  18  20
ATOM     19  F   UNL     1      37.838 -18.780 -20.790  0.00  0.00    -0.204 F 
ATOM     20  C   UNL     1      35.605 -18.593 -21.575  0.00  0.00    +0.028 C 
ATOM     21  C   UNL     1      36.566 -19.205 -20.779  0.00  0.00    +0.138 C 
ATOM     22  C   UNL     1      34.288 -19.037 -21.563  0.00  0.00    -0.000 C 
ATOM     23  C   UNL     1      36.206 -20.275 -19.960  0.00  0.00    +0.029 C 
ATOM     24  C   UNL     1      33.927 -20.106 -20.743  0.00  0.00    -0.000 C 
ATOM     25  C   UNL     1      34.886 -20.726 -19.941  0.00  0.00    +0.002 C 
ENDBRANCH  18  20
ENDBRANCH   4  18
BRANCH  11  26
ATOM     26  C   UNL     1      31.902 -12.121 -19.570  0.00  0.00    +0.067 C 
BRANCH  26  27
ATOM     27  C   UNL     1      31.829 -10.710 -20.139  0.00  0.00    -0.019 C 
ATOM     28  C   UNL     1      32.304  -9.661 -19.380  0.00  0.00    -0.003 C 
ATOM     29  C   UNL     1      31.289 -10.526 -21.395  0.00  0.00    -0.003 C 
ATOM     30  C   UNL     1      32.237  -8.369 -19.902  0.00  0.00    +0.014 C 
ATOM     31  C   UNL     1      31.222  -9.234 -21.916  0.00  0.00    +0.014 C 
ATOM     32  C   UNL     1      31.696  -8.155 -21.169  0.00  0.00    +0.050 C 
BRANCH  32  34
ATOM     33  O   UNL     1      33.826  -6.444 -22.436  0.00  0.00    -0.275 OA
ATOM     34  N   UNL     1      31.629  -6.862 -21.691  0.00  0.00    -0.284 N 
ATOM     35  C   UNL     1      32.657  -6.109 -22.270  0.00  0.00    +0.227 C 
ATOM     36  C   UNL     1      32.173  -4.751 -22.712  0.00  0.00    +0.095 C 
ATOM     37  H   UNL     1      30.748  -6.426 -21.645  0.00  0.00    +0.155 HD
ENDBRANCH  32  34
ENDBRANCH  26  27
ENDBRANCH  11  26
TORSDOF 8
ENDMDL
MODEL 6
REMARK VINA RESULT:      -9.4      3.050      9.489
REMARK  Name = 447371
REMARK  8 active torsions:
REMARK  status: ('A' for Active; 'I' for Inactive)
REMARK    1  A    between atoms: N_3  and  C_14
REMARK    2  A    between atoms: N_4  and  C_18
REMARK    3  A    between atoms: C_11  and  C_26
REMARK    4  A    between atoms: C_14  and  C_15
REMARK    5  A    between atoms: C_15  and  C_16
REMARK    6  A    between atoms: C_18  and  C_20
REMARK    7  A    between atoms: C_26  and  C_27
REMARK    8  A    between atoms: C_32  and  N_34
REMARK                            x       y       z     vdW  Elec       q    Type
REMARK                         _______ _______ _______ _____ _____    ______ ____
ROOT
ATOM      1  O   UNL     1      30.938 -11.623 -21.514  0.00  0.00    -0.246 OA
ATOM      2  O   UNL     1      34.596 -11.897 -24.444  0.00  0.00    -0.265 OA
ATOM      3  N   UNL     1      32.184  -9.697 -21.900  0.00  0.00    -0.269 N 
ATOM      4  N   UNL     1      32.758 -11.788 -22.979  0.00  0.00    -0.243 N 
ATOM      5  N   UNL     1      34.993  -8.994 -23.872  0.00  0.00    -0.313 N 
ATOM      6  N   UNL     1      33.677  -7.833 -22.498  0.00  0.00    -0.304 N 
ATOM      7  C   UNL     1      33.264  -9.137 -22.570  0.00  0.00    +0.132 A 
ATOM      8  C   UNL     1      34.055  -9.873 -23.408  0.00  0.00    +0.133 A 
ATOM      9  C   UNL     1      31.886 -11.070 -22.083  0.00  0.00    +0.335 A 
ATOM     10  C   UNL     1      33.871 -11.260 -23.685  0.00  0.00    +0.280 A 
ATOM     11  C   UNL     1      34.723  -7.780 -23.295  0.00  0.00    +0.149 C 
ATOM     12  H   UNL     1      35.723  -9.195 -24.501  0.00  0.00    +0.148 HD
ATOM     13  H   UNL     1      33.281  -7.102 -21.970  0.00  0.00    +0.150 HD
ENDROOT
BRANCH   3  14
ATOM     14  C   UNL     1      31.369  -8.871 -21.017  0.00  0.00    +0.112 C 
BRANCH  14  15
ATOM     15  C   UNL     1      31.846  -8.922 -19.569  0.00  0.00    +0.025 C 
BRANCH  15  16
ATOM     16  C   UNL     1      31.008  -9.870 -18.709  0.00  0.00    +0.002 C 
ATOM     17  C   UNL     1      31.849 -10.522 -17.621  0.00  0.00    +0.000 C 
ENDBRANCH  15  16
ENDBRANCH  14  15
ENDBRANCH   3  14
BRANCH   4  18
ATOM     18  C   UNL     1      32.466 -13.203 -23.181  0.00  0.00    +0.143 C 
BRANCH  18  20
ATOM     19  F   UNL     1      34.286 -15.084 -24.248  0.00  0.00    -0.204 F 
ATOM     20  C   UNL     1      33.326 -14.083 -22.321  0.00  0.00    +0.028 C 
ATOM     21  C   UNL     1      34.201 -14.986 -22.914  0.00  0.00    +0.138 C 
ATOM     22  C   UNL     1      33.239 -13.984 -20.938  0.00  0.00    -0.000 C 
ATOM     23  C   UNL     1      34.999 -15.802 -22.112  0.00  0.00    +0.029 C 
ATOM     24  C   UNL     1      34.037 -14.799 -20.135  0.00  0.00    -0.000 C 
ATOM     25  C   UNL     1      34.918 -15.709 -20.722  0.00  0.00    +0.002 C 
ENDBRANCH  18  20
ENDBRANCH   4  18
BRANCH  11  26
ATOM     26  C   UNL     1      35.553  -6.595 -23.584  0.00  0.00    +0.067 C 
BRANCH  26  27
ATOM     27  C   UNL     1      35.046  -5.753 -24.748  0.00  0.00    -0.019 C 
ATOM     28  C   UNL     1      35.928  -5.405 -25.750  0.00  0.00    -0.003 C 
ATOM     29  C   UNL     1      33.723  -5.365 -24.763  0.00  0.00    -0.003 C 
ATOM     30  C   UNL     1      35.463  -4.634 -26.816  0.00  0.00    +0.014 C 
ATOM     31  C   UNL     1      33.260  -4.593 -25.828  0.00  0.00    +0.014 C 
ATOM     32  C   UNL     1      34.130  -4.228 -26.855  0.00  0.00    +0.050 C 
BRANCH  32  34
ATOM     33  O   UNL     1      32.485  -4.999 -29.257  0.00  0.00    -0.275 OA
ATOM     34  N   UNL     1      33.666  -3.456 -27.921  0.00  0.00    -0.284 N 
ATOM     35  C   UNL     1      32.901  -3.870 -29.020  0.00  0.00    +0.227 C 
ATOM     36  C   UNL     1      32.605  -2.725 -29.956  0.00  0.00    +0.095 C 
ATOM     37  H   UNL     1      33.907  -2.503 -27.898  0.00  0.00    +0.155 HD
ENDBRANCH  32  34
ENDBRANCH  26  27
ENDBRANCH  11  26
TORSDOF 8
ENDMDL
MODEL 7
REMARK VINA RESULT:      -9.2      1.697      2.130
REMARK  Name = 447371
REMARK  8 active torsions:
REMARK  status: ('A' for Active; 'I' for Inactive)
REMARK    1  A    between atoms: N_3  and  C_14
REMARK    2  A    between atoms: N_4  and  C_18
REMARK    3  A    between atoms: C_11  and  C_26
REMARK    4  A    between atoms: C_14  and  C_15
REMARK    5  A    between atoms: C_15  and  C_16
REMARK    6  A    between atoms: C_18  and  C_20
REMARK    7  A    between atoms: C_26  and  C_27
REMARK    8  A    between atoms: C_32  and  N_34
REMARK                            x       y       z     vdW  Elec       q    Type
REMARK                         _______ _______ _______ _____ _____    ______ ____
ROOT
ATOM      1  O   UNL     1      32.000  -9.797 -20.490  0.00  0.00    -0.246 OA
ATOM      2  O   UNL     1      32.619  -9.826 -25.144  0.00  0.00    -0.265 OA
ATOM      3  N   UNL     1      32.631 -11.794 -21.503  0.00  0.00    -0.269 N 
ATOM      4  N   UNL     1      32.301  -9.784 -22.813  0.00  0.00    -0.243 N 
ATOM      5  N   UNL     1      33.296 -12.714 -24.817  0.00  0.00    -0.313 N 
ATOM      6  N   UNL     1      33.296 -13.749 -22.843  0.00  0.00    -0.304 N 
ATOM      7  C   UNL     1      32.947 -12.433 -22.695  0.00  0.00    +0.132 A 
ATOM      8  C   UNL     1      32.940 -11.773 -23.893  0.00  0.00    +0.133 A 
ATOM      9  C   UNL     1      32.290 -10.419 -21.519  0.00  0.00    +0.335 A 
ATOM     10  C   UNL     1      32.616 -10.393 -24.056  0.00  0.00    +0.280 A 
ATOM     11  C   UNL     1      33.500 -13.886 -24.137  0.00  0.00    +0.149 C 
ATOM     12  H   UNL     1      33.389 -12.576 -25.788  0.00  0.00    +0.148 HD
ATOM     13  H   UNL     1      33.376 -14.436 -22.142  0.00  0.00    +0.150 HD
ENDROOT
BRANCH   3  14
ATOM     14  C   UNL     1      32.653 -12.539 -20.251  0.00  0.00    +0.112 C 
BRANCH  14  15
ATOM     15  C   UNL     1      31.867 -13.843 -20.336  0.00  0.00    +0.025 C 
BRANCH  15  16
ATOM     16  C   UNL     1      32.495 -14.962 -19.503  0.00  0.00    +0.002 C 
ATOM     17  C   UNL     1      34.000 -15.030 -19.710  0.00  0.00    +0.000 C 
ENDBRANCH  15  16
ENDBRANCH  14  15
ENDBRANCH   3  14
BRANCH   4  18
ATOM     18  C   UNL     1      31.953  -8.367 -22.849  0.00  0.00    +0.143 C 
BRANCH  18  20
ATOM     19  F   UNL     1      31.642  -6.434 -24.888  0.00  0.00    -0.204 F 
ATOM     20  C   UNL     1      33.089  -7.523 -23.353  0.00  0.00    +0.028 C 
ATOM     21  C   UNL     1      32.864  -6.590 -24.358  0.00  0.00    +0.138 C 
ATOM     22  C   UNL     1      34.357  -7.685 -22.807  0.00  0.00    -0.000 C 
ATOM     23  C   UNL     1      33.921  -5.809 -24.825  0.00  0.00    +0.029 C 
ATOM     24  C   UNL     1      35.414  -6.903 -23.272  0.00  0.00    -0.000 C 
ATOM     25  C   UNL     1      35.196  -5.964 -24.281  0.00  0.00    +0.002 C 
ENDBRANCH  18  20
ENDBRANCH   4  18
BRANCH  11  26
ATOM     26  C   UNL     1      33.902 -15.120 -24.840  0.00  0.00    +0.067 C 
BRANCH  26  27
ATOM     27  C   UNL     1      34.416 -16.218 -23.919  0.00  0.00    -0.019 C 
ATOM     28  C   UNL     1      35.108 -15.861 -22.780  0.00  0.00    -0.003 C 
ATOM     29  C   UNL     1      34.175 -17.534 -24.253  0.00  0.00    -0.003 C 
ATOM     30  C   UNL     1      35.579 -16.868 -21.937  0.00  0.00    +0.014 C 
ATOM     31  C   UNL     1      34.647 -18.540 -23.410  0.00  0.00    +0.014 C 
ATOM     32  C   UNL     1      35.349 -18.207 -22.252  0.00  0.00    +0.050 C 
BRANCH  32  34
ATOM     33  O   UNL     1      33.887 -19.947 -20.276  0.00  0.00    -0.275 OA
ATOM     34  N   UNL     1      35.821 -19.213 -21.408  0.00  0.00    -0.284 N 
ATOM     35  C   UNL     1      35.092 -19.995 -20.502  0.00  0.00    +0.227 C 
ATOM     36  C   UNL     1      35.976 -20.978 -19.776  0.00  0.00    +0.095 C 
ATOM     37  H   UNL     1      36.787 -19.396 -21.456  0.00  0.00    +0.155 HD
ENDBRANCH  32  34
ENDBRANCH  26  27
ENDBRANCH  11  26
TORSDOF 8
ENDMDL
MODEL 8
REMARK VINA RESULT:      -9.0      9.084     14.555
REMARK  Name = 447371
REMARK  8 active torsions:
REMARK  status: ('A' for Active; 'I' for Inactive)
REMARK    1  A    between atoms: N_3  and  C_14
REMARK    2  A    between atoms: N_4  and  C_18
REMARK    3  A    between atoms: C_11  and  C_26
REMARK    4  A    between atoms: C_14  and  C_15
REMARK    5  A    between atoms: C_15  and  C_16
REMARK    6  A    between atoms: C_18  and  C_20
REMARK    7  A    between atoms: C_26  and  C_27
REMARK    8  A    between atoms: C_32  and  N_34
REMARK                            x       y       z     vdW  Elec       q    Type
REMARK                         _______ _______ _______ _____ _____    ______ ____
ROOT
ATOM      1  O   UNL     1      33.182 -24.721 -12.425  0.00  0.00    -0.246 OA
ATOM      2  O   UNL     1      32.061 -23.970 -16.922  0.00  0.00    -0.265 OA
ATOM      3  N   UNL     1      34.735 -23.641 -13.780  0.00  0.00    -0.269 N 
ATOM      4  N   UNL     1      32.598 -24.360 -14.664  0.00  0.00    -0.243 N 
ATOM      5  N   UNL     1      34.749 -22.693 -17.152  0.00  0.00    -0.313 N 
ATOM      6  N   UNL     1      36.170 -22.528 -15.442  0.00  0.00    -0.304 N 
ATOM      7  C   UNL     1      35.018 -23.158 -15.051  0.00  0.00    +0.132 A 
ATOM      8  C   UNL     1      34.128 -23.272 -16.083  0.00  0.00    +0.133 A 
ATOM      9  C   UNL     1      33.490 -24.272 -13.536  0.00  0.00    +0.335 A 
ATOM     10  C   UNL     1      32.842 -23.882 -15.979  0.00  0.00    +0.280 A 
ATOM     11  C   UNL     1      35.975 -22.260 -16.717  0.00  0.00    +0.149 C 
ATOM     12  H   UNL     1      34.385 -22.602 -18.063  0.00  0.00    +0.148 HD
ATOM     13  H   UNL     1      36.962 -22.322 -14.895  0.00  0.00    +0.150 HD
ENDROOT
BRANCH   3  14
ATOM     14  C   UNL     1      35.716 -23.495 -12.712  0.00  0.00    +0.112 C 
BRANCH  14  15
ATOM     15  C   UNL     1      36.593 -24.733 -12.555  0.00  0.00    +0.025 C 
BRANCH  15  16
ATOM     16  C   UNL     1      38.051 -24.472 -12.938  0.00  0.00    +0.002 C 
ATOM     17  C   UNL     1      38.438 -25.232 -14.198  0.00  0.00    +0.000 C 
ENDBRANCH  15  16
ENDBRANCH  14  15
ENDBRANCH   3  14
BRANCH   4  18
ATOM     18  C   UNL     1      31.310 -25.006 -14.432  0.00  0.00    +0.143 C 
BRANCH  18  20
ATOM     19  F   UNL     1      30.912 -22.378 -13.468  0.00  0.00    -0.204 F 
ATOM     20  C   UNL     1      30.163 -24.142 -14.870  0.00  0.00    +0.028 C 
ATOM     21  C   UNL     1      30.028 -22.858 -14.355  0.00  0.00    +0.138 C 
ATOM     22  C   UNL     1      29.244 -24.638 -15.788  0.00  0.00    -0.000 C 
ATOM     23  C   UNL     1      28.960 -22.058 -14.764  0.00  0.00    +0.029 C 
ATOM     24  C   UNL     1      28.177 -23.838 -16.197  0.00  0.00    -0.000 C 
ATOM     25  C   UNL     1      28.035 -22.548 -15.685  0.00  0.00    +0.002 C 
ENDBRANCH  18  20
ENDBRANCH   4  18
BRANCH  11  26
ATOM     26  C   UNL     1      36.914 -21.579 -17.628  0.00  0.00    +0.067 C 
BRANCH  26  27
ATOM     27  C   UNL     1      36.248 -20.931 -18.834  0.00  0.00    -0.019 C 
ATOM     28  C   UNL     1      34.952 -21.287 -19.149  0.00  0.00    -0.003 C 
ATOM     29  C   UNL     1      36.959 -20.010 -19.573  0.00  0.00    -0.003 C 
ATOM     30  C   UNL     1      34.343 -20.693 -20.254  0.00  0.00    +0.014 C 
ATOM     31  C   UNL     1      36.349 -19.417 -20.678  0.00  0.00    +0.014 C 
ATOM     32  C   UNL     1      35.040 -19.758 -21.019  0.00  0.00    +0.050 C 
BRANCH  32  34
ATOM     33  O   UNL     1      35.279 -20.384 -23.955  0.00  0.00    -0.275 OA
ATOM     34  N   UNL     1      34.429 -19.165 -22.125  0.00  0.00    -0.284 N 
ATOM     35  C   UNL     1      34.579 -19.497 -23.477  0.00  0.00    +0.227 C 
ATOM     36  C   UNL     1      33.742 -18.611 -24.365  0.00  0.00    +0.095 C 
ATOM     37  H   UNL     1      33.818 -18.419 -21.929  0.00  0.00    +0.155 HD
ENDBRANCH  32  34
ENDBRANCH  26  27
ENDBRANCH  11  26
TORSDOF 8
ENDMDL
MODEL 9
REMARK VINA RESULT:      -8.8      7.480     14.225
REMARK  Name = 447371
REMARK  8 active torsions:
REMARK  status: ('A' for Active; 'I' for Inactive)
REMARK    1  A    between atoms: N_3  and  C_14
REMARK    2  A    between atoms: N_4  and  C_18
REMARK    3  A    between atoms: C_11  and  C_26
REMARK    4  A    between atoms: C_14  and  C_15
REMARK    5  A    between atoms: C_15  and  C_16
REMARK    6  A    between atoms: C_18  and  C_20
REMARK    7  A    between atoms: C_26  and  C_27
REMARK    8  A    between atoms: C_32  and  N_34
REMARK                            x       y       z     vdW  Elec       q    Type
REMARK                         _______ _______ _______ _____ _____    ______ ____
ROOT
ATOM      1  O   UNL     1      34.600 -23.374 -13.100  0.00  0.00    -0.246 OA
ATOM      2  O   UNL     1      31.818 -24.021 -16.827  0.00  0.00    -0.265 OA
ATOM      3  N   UNL     1      35.406 -22.760 -15.193  0.00  0.00    -0.269 N 
ATOM      4  N   UNL     1      33.192 -23.708 -14.942  0.00  0.00    -0.243 N 
ATOM      5  N   UNL     1      34.064 -22.880 -18.427  0.00  0.00    -0.313 N 
ATOM      6  N   UNL     1      35.986 -22.207 -17.521  0.00  0.00    -0.304 N 
ATOM      7  C   UNL     1      35.142 -22.686 -16.555  0.00  0.00    +0.132 A 
ATOM      8  C   UNL     1      33.953 -23.106 -17.085  0.00  0.00    +0.133 A 
ATOM      9  C   UNL     1      34.422 -23.284 -14.320  0.00  0.00    +0.335 A 
ATOM     10  C   UNL     1      32.876 -23.653 -16.325  0.00  0.00    +0.280 A 
ATOM     11  C   UNL     1      35.305 -22.338 -18.640  0.00  0.00    +0.149 C 
ATOM     12  H   UNL     1      33.382 -23.070 -19.112  0.00  0.00    +0.148 HD
ATOM     13  H   UNL     1      36.895 -21.847 -17.405  0.00  0.00    +0.150 HD
ENDROOT
BRANCH   3  14
ATOM     14  C   UNL     1      36.689 -22.299 -14.676  0.00  0.00    +0.112 C 
BRANCH  14  15
ATOM     15  C   UNL     1      37.809 -23.306 -14.917  0.00  0.00    +0.025 C 
BRANCH  15  16
ATOM     16  C   UNL     1      37.907 -24.352 -13.805  0.00  0.00    +0.002 C 
ATOM     17  C   UNL     1      38.745 -25.545 -14.239  0.00  0.00    +0.000 C 
ENDBRANCH  15  16
ENDBRANCH  14  15
ENDBRANCH   3  14
BRANCH   4  18
ATOM     18  C   UNL     1      32.165 -24.250 -14.058  0.00  0.00    +0.143 C 
BRANCH  18  20
ATOM     19  F   UNL     1      30.254 -26.116 -14.983  0.00  0.00    -0.204 F 
ATOM     20  C   UNL     1      30.784 -23.854 -14.494  0.00  0.00    +0.028 C 
ATOM     21  C   UNL     1      29.894 -24.826 -14.937  0.00  0.00    +0.138 C 
ATOM     22  C   UNL     1      30.409 -22.517 -14.450  0.00  0.00    -0.000 C 
ATOM     23  C   UNL     1      28.612 -24.454 -15.342  0.00  0.00    +0.029 C 
ATOM     24  C   UNL     1      29.127 -22.145 -14.854  0.00  0.00    -0.000 C 
ATOM     25  C   UNL     1      28.227 -23.114 -15.300  0.00  0.00    +0.002 C 
ENDBRANCH  18  20
ENDBRANCH   4  18
BRANCH  11  26
ATOM     26  C   UNL     1      35.756 -21.968 -19.995  0.00  0.00    +0.067 C 
BRANCH  26  27
ATOM     27  C   UNL     1      35.542 -20.501 -20.340  0.00  0.00    -0.019 C 
ATOM     28  C   UNL     1      36.643 -19.681 -20.476  0.00  0.00    -0.003 C 
ATOM     29  C   UNL     1      34.253 -20.036 -20.506  0.00  0.00    -0.003 C 
ATOM     30  C   UNL     1      36.446 -18.337 -20.792  0.00  0.00    +0.014 C 
ATOM     31  C   UNL     1      34.057 -18.692 -20.822  0.00  0.00    +0.014 C 
ATOM     32  C   UNL     1      35.153 -17.842 -20.965  0.00  0.00    +0.050 C 
BRANCH  32  34
ATOM     33  O   UNL     1      35.092 -16.449 -23.634  0.00  0.00    -0.275 OA
ATOM     34  N   UNL     1      34.956 -16.497 -21.281  0.00  0.00    -0.284 N 
ATOM     35  C   UNL     1      34.940 -15.900 -22.547  0.00  0.00    +0.227 C 
ATOM     36  C   UNL     1      34.695 -14.414 -22.461  0.00  0.00    +0.095 C 
ATOM     37  H   UNL     1      34.812 -15.893 -20.517  0.00  0.00    +0.155 HD
ENDBRANCH  32  34
ENDBRANCH  26  27
ENDBRANCH  11  26
TORSDOF 8
ENDMDL
