MODEL 1
REMARK VINA RESULT:     -11.4      0.000      0.000
REMARK  Name = 657131
REMARK  7 active torsions:
REMARK  status: ('A' for Active; 'I' for Inactive)
REMARK    1  A    between atoms: C_1  and  CA_2
REMARK    2  A    between atoms: C_1  and  C_3
REMARK    3  A    between atoms: CA_2  and  C_28
REMARK    4  A    between atoms: C_4  and  O_9
REMARK    5  A    between atoms: O_9  and  C_11
REMARK    6  A    between atoms: C_19  and  C_21
REMARK    7  A    between atoms: C_28  and  O_29
REMARK                            x       y       z     vdW  Elec       q    Type
REMARK                         _______ _______ _______ _____ _____    ______ ____
ROOT
ATOM      1  C   UNL     1      35.136 -15.868 -20.897  0.00  0.00    +0.074 C 
ENDROOT
BRANCH   1   2
ATOM      2  C   UNL     1      34.141 -14.817 -21.041  0.00  0.00    -0.016 C 
ATOM      3  C   UNL     1      32.234 -12.800 -21.319  0.00  0.00    +0.145 C 
ATOM      4  C   UNL     1      33.157 -14.648 -20.067  0.00  0.00    -0.001 C 
ATOM      5  C   UNL     1      34.172 -13.977 -22.154  0.00  0.00    -0.001 C 
ATOM      6  C   UNL     1      32.203 -13.640 -20.206  0.00  0.00    +0.037 C 
ATOM      7  C   UNL     1      33.218 -12.968 -22.293  0.00  0.00    +0.037 C 
BRANCH   3   8
ATOM      8  O   UNL     1      31.304 -11.816 -21.454  0.00  0.00    -0.453 OA
BRANCH   8  10
ATOM      9 BR   UNL     1      32.285  -9.600 -23.422  0.00  0.00    -0.046 Br
ATOM     10  C   UNL     1      31.551 -10.606 -20.827  0.00  0.00    +0.151 C 
ATOM     11  C   UNL     1      31.993  -9.512 -21.552  0.00  0.00    +0.069 C 
ATOM     12  C   UNL     1      31.341 -10.533 -19.461  0.00  0.00    +0.038 C 
ATOM     13  C   UNL     1      32.232  -8.308 -20.889  0.00  0.00    +0.010 C 
ATOM     14  C   UNL     1      31.579  -9.328 -18.799  0.00  0.00    +0.003 C 
ATOM     15  C   UNL     1      32.025  -8.217 -19.513  0.00  0.00    +0.001 C 
ENDBRANCH   8  10
ENDBRANCH   3   8
ENDBRANCH   1   2
BRANCH   1  16
ATOM     16  CA  UNL     1      35.029 -17.138 -21.351  0.00  0.00    +0.108 C 
ATOM     17  O   UNL     1      34.777 -19.858 -22.181  0.00  0.00    -0.270 OA
ATOM     18  N   UNL     1      34.753 -18.207 -20.544  0.00  0.00    -0.278 N 
ATOM     19  C   UNL     1      34.644 -19.507 -21.011  0.00  0.00    +0.249 C 
ATOM     20  H   UNL     1      34.626 -18.043 -19.581  0.00  0.00    +0.155 HD
BRANCH  19  21
ATOM     21  C   UNL     1      34.362 -20.538 -19.978  0.00  0.00    +0.054 C 
ATOM     22  C   UNL     1      35.419 -21.225 -19.419  0.00  0.00    +0.005 C 
ATOM     23  C   UNL     1      33.054 -20.771 -19.610  0.00  0.00    +0.005 C 
ATOM     24  C   UNL     1      35.155 -22.192 -18.449  0.00  0.00    +0.000 C 
ATOM     25  C   UNL     1      32.790 -21.738 -18.640  0.00  0.00    +0.000 C 
ATOM     26  C   UNL     1      33.841 -22.449 -18.060  0.00  0.00    +0.000 C 
ENDBRANCH  19  21
BRANCH  16  28
ATOM     27  OXT UNL     1      34.476 -17.053 -23.696  0.00  0.00    -0.244 OA
ATOM     28  C   UNL     1      35.239 -17.386 -22.802  0.00  0.00    +0.348 C 
BRANCH  28  29
ATOM     29  O   UNL     1      36.404 -18.044 -23.016  0.00  0.00    -0.476 OA
ATOM     30  H   UNL     1      37.131 -17.909 -22.441  0.00  0.00    +0.295 HD
ENDBRANCH  28  29
ENDBRANCH  16  28
ENDBRANCH   1  16
TORSDOF 7
ENDMDL
MODEL 2
REMARK VINA RESULT:     -11.2      1.706      2.361
REMARK  Name = 657131
REMARK  7 active torsions:
REMARK  status: ('A' for Active; 'I' for Inactive)
REMARK    1  A    between atoms: C_1  and  CA_2
REMARK    2  A    between atoms: C_1  and  C_3
REMARK    3  A    between atoms: CA_2  and  C_28
REMARK    4  A    between atoms: C_4  and  O_9
REMARK    5  A    between atoms: O_9  and  C_11
REMARK    6  A    between atoms: C_19  and  C_21
REMARK    7  A    between atoms: C_28  and  O_29
REMARK                            x       y       z     vdW  Elec       q    Type
REMARK                         _______ _______ _______ _____ _____    ______ ____
ROOT
ATOM      1  C   UNL     1      35.002 -14.497 -22.705  0.00  0.00    +0.074 C 
ENDROOT
BRANCH   1   2
ATOM      2  C   UNL     1      33.953 -13.533 -22.417  0.00  0.00    -0.016 C 
ATOM      3  C   UNL     1      31.940 -11.682 -21.866  0.00  0.00    +0.145 C 
ATOM      4  C   UNL     1      33.032 -13.786 -21.400  0.00  0.00    -0.001 C 
ATOM      5  C   UNL     1      33.867 -12.354 -23.158  0.00  0.00    -0.001 C 
ATOM      6  C   UNL     1      32.025 -12.860 -21.124  0.00  0.00    +0.037 C 
ATOM      7  C   UNL     1      32.860 -11.429 -22.882  0.00  0.00    +0.037 C 
BRANCH   3   8
ATOM      8  O   UNL     1      30.958 -10.779 -21.596  0.00  0.00    -0.453 OA
BRANCH   8  10
ATOM      9 BR   UNL     1      31.728 -10.287 -18.610  0.00  0.00    -0.046 Br
ATOM     10  C   UNL     1      31.337  -9.471 -21.343  0.00  0.00    +0.151 C 
ATOM     11  C   UNL     1      31.711  -9.078 -20.070  0.00  0.00    +0.069 C 
ATOM     12  C   UNL     1      31.328  -8.582 -22.403  0.00  0.00    +0.038 C 
ATOM     13  C   UNL     1      32.088  -7.752 -19.850  0.00  0.00    +0.010 C 
ATOM     14  C   UNL     1      31.705  -7.256 -22.183  0.00  0.00    +0.003 C 
ATOM     15  C   UNL     1      32.084  -6.842 -20.907  0.00  0.00    +0.001 C 
ENDBRANCH   8  10
ENDBRANCH   3   8
ENDBRANCH   1   2
BRANCH   1  16
ATOM     16  CA  UNL     1      34.828 -15.806 -23.001  0.00  0.00    +0.108 C 
ATOM     17  O   UNL     1      34.501 -18.598 -23.497  0.00  0.00    -0.270 OA
ATOM     18  N   UNL     1      35.086 -16.819 -22.119  0.00  0.00    -0.278 N 
ATOM     19  C   UNL     1      34.906 -18.159 -22.423  0.00  0.00    +0.249 C 
ATOM     20  H   UNL     1      35.417 -16.583 -21.222  0.00  0.00    +0.155 HD
BRANCH  19  21
ATOM     21  C   UNL     1      35.263 -19.115 -21.343  0.00  0.00    +0.054 C 
ATOM     22  C   UNL     1      36.558 -19.130 -20.869  0.00  0.00    +0.005 C 
ATOM     23  C   UNL     1      34.287 -19.955 -20.848  0.00  0.00    +0.005 C 
ATOM     24  C   UNL     1      36.893 -20.026 -19.855  0.00  0.00    +0.000 C 
ATOM     25  C   UNL     1      34.623 -20.852 -19.834  0.00  0.00    +0.000 C 
ATOM     26  C   UNL     1      35.926 -20.887 -19.337  0.00  0.00    +0.000 C 
ENDBRANCH  19  21
BRANCH  16  28
ATOM     27  OXT UNL     1      33.186 -16.090 -24.743  0.00  0.00    -0.244 OA
ATOM     28  C   UNL     1      34.345 -16.161 -24.361  0.00  0.00    +0.348 C 
BRANCH  28  29
ATOM     29  O   UNL     1      35.368 -16.585 -25.142  0.00  0.00    -0.476 OA
ATOM     30  H   UNL     1      36.251 -16.508 -24.840  0.00  0.00    +0.295 HD
ENDBRANCH  28  29
ENDBRANCH  16  28
ENDBRANCH   1  16
TORSDOF 7
ENDMDL
MODEL 3
REMARK VINA RESULT:     -10.8      3.471      6.353
REMARK  Name = 657131
REMARK  7 active torsions:
REMARK  status: ('A' for Active; 'I' for Inactive)
REMARK    1  A    between atoms: C_1  and  CA_2
REMARK    2  A    between atoms: C_1  and  C_3
REMARK    3  A    between atoms: CA_2  and  C_28
REMARK    4  A    between atoms: C_4  and  O_9
REMARK    5  A    between atoms: O_9  and  C_11
REMARK    6  A    between atoms: C_19  and  C_21
REMARK    7  A    between atoms: C_28  and  O_29
REMARK                            x       y       z     vdW  Elec       q    Type
REMARK                         _______ _______ _______ _____ _____    ______ ____
ROOT
ATOM      1  C   UNL     1      35.686 -21.948 -19.336  0.00  0.00    +0.074 C 
ENDROOT
BRANCH   1   2
ATOM      2  C   UNL     1      35.720 -20.712 -20.100  0.00  0.00    -0.016 C 
ATOM      3  C   UNL     1      35.782 -18.339 -21.567  0.00  0.00    +0.145 C 
ATOM      4  C   UNL     1      36.907 -19.987 -20.205  0.00  0.00    -0.001 C 
ATOM      5  C   UNL     1      34.563 -20.250 -20.730  0.00  0.00    -0.001 C 
ATOM      6  C   UNL     1      36.938 -18.800 -20.939  0.00  0.00    +0.037 C 
ATOM      7  C   UNL     1      34.595 -19.064 -21.463  0.00  0.00    +0.037 C 
BRANCH   3   8
ATOM      8  O   UNL     1      35.813 -17.183 -22.283  0.00  0.00    -0.453 OA
BRANCH   8  10
ATOM      9 BR   UNL     1      34.307 -15.761 -24.619  0.00  0.00    -0.046 Br
ATOM     10  C   UNL     1      35.012 -16.137 -21.854  0.00  0.00    +0.151 C 
ATOM     11  C   UNL     1      34.272 -15.396 -22.760  0.00  0.00    +0.069 C 
ATOM     12  C   UNL     1      34.982 -15.864 -20.497  0.00  0.00    +0.038 C 
ATOM     13  C   UNL     1      33.476 -14.350 -22.293  0.00  0.00    +0.010 C 
ATOM     14  C   UNL     1      34.185 -14.818 -20.032  0.00  0.00    +0.003 C 
ATOM     15  C   UNL     1      33.433 -14.061 -20.929  0.00  0.00    +0.001 C 
ENDBRANCH   8  10
ENDBRANCH   3   8
ENDBRANCH   1   2
BRANCH   1  16
ATOM     16  CA  UNL     1      35.595 -22.055 -17.990  0.00  0.00    +0.108 C 
ATOM     17  O   UNL     1      35.276 -22.327 -15.167  0.00  0.00    -0.270 OA
ATOM     18  N   UNL     1      34.476 -22.500 -17.343  0.00  0.00    -0.278 N 
ATOM     19  C   UNL     1      34.385 -22.610 -15.965  0.00  0.00    +0.249 C 
ATOM     20  H   UNL     1      33.695 -22.757 -17.885  0.00  0.00    +0.155 HD
BRANCH  19  21
ATOM     21  C   UNL     1      33.079 -23.092 -15.445  0.00  0.00    +0.054 C 
ATOM     22  C   UNL     1      33.034 -23.672 -14.193  0.00  0.00    +0.005 C 
ATOM     23  C   UNL     1      31.954 -22.943 -16.228  0.00  0.00    +0.005 C 
ATOM     24  C   UNL     1      31.809 -24.124 -13.705  0.00  0.00    +0.000 C 
ATOM     25  C   UNL     1      30.728 -23.395 -15.739  0.00  0.00    +0.000 C 
ATOM     26  C   UNL     1      30.656 -23.986 -14.477  0.00  0.00    +0.000 C 
ENDBRANCH  19  21
BRANCH  16  28
ATOM     27  OXT UNL     1      37.097 -20.500 -16.923  0.00  0.00    -0.244 OA
ATOM     28  C   UNL     1      36.768 -21.650 -17.171  0.00  0.00    +0.348 C 
BRANCH  28  29
ATOM     29  O   UNL     1      37.444 -22.736 -16.726  0.00  0.00    -0.476 OA
ATOM     30  H   UNL     1      37.043 -23.317 -16.110  0.00  0.00    +0.295 HD
ENDBRANCH  28  29
ENDBRANCH  16  28
ENDBRANCH   1  16
TORSDOF 7
ENDMDL
MODEL 4
REMARK VINA RESULT:     -10.8      3.548      6.415
REMARK  Name = 657131
REMARK  7 active torsions:
REMARK  status: ('A' for Active; 'I' for Inactive)
REMARK    1  A    between atoms: C_1  and  CA_2
REMARK    2  A    between atoms: C_1  and  C_3
REMARK    3  A    between atoms: CA_2  and  C_28
REMARK    4  A    between atoms: C_4  and  O_9
REMARK    5  A    between atoms: O_9  and  C_11
REMARK    6  A    between atoms: C_19  and  C_21
REMARK    7  A    between atoms: C_28  and  O_29
REMARK                            x       y       z     vdW  Elec       q    Type
REMARK                         _______ _______ _______ _____ _____    ______ ____
ROOT
ATOM      1  C   UNL     1      36.146 -21.649 -18.930  0.00  0.00    +0.074 C 
ENDROOT
BRANCH   1   2
ATOM      2  C   UNL     1      35.958 -20.552 -19.866  0.00  0.00    -0.016 C 
ATOM      3  C   UNL     1      35.600 -18.447 -21.660  0.00  0.00    +0.145 C 
ATOM      4  C   UNL     1      34.722 -20.364 -20.483  0.00  0.00    -0.001 C 
ATOM      5  C   UNL     1      37.016 -19.686 -20.145  0.00  0.00    -0.001 C 
ATOM      6  C   UNL     1      34.542 -19.312 -21.381  0.00  0.00    +0.037 C 
ATOM      7  C   UNL     1      36.837 -18.633 -21.043  0.00  0.00    +0.037 C 
BRANCH   3   8
ATOM      8  O   UNL     1      35.425 -17.419 -22.535  0.00  0.00    -0.453 OA
BRANCH   8  10
ATOM      9 BR   UNL     1      34.113 -15.656 -24.753  0.00  0.00    -0.046 Br
ATOM     10  C   UNL     1      34.895 -16.238 -22.044  0.00  0.00    +0.151 C 
ATOM     11  C   UNL     1      34.274 -15.336 -22.891  0.00  0.00    +0.069 C 
ATOM     12  C   UNL     1      35.008 -15.996 -20.686  0.00  0.00    +0.038 C 
ATOM     13  C   UNL     1      33.751 -14.156 -22.363  0.00  0.00    +0.010 C 
ATOM     14  C   UNL     1      34.484 -14.816 -20.158  0.00  0.00    +0.003 C 
ATOM     15  C   UNL     1      33.856 -13.896 -20.997  0.00  0.00    +0.001 C 
ENDBRANCH   8  10
ENDBRANCH   3   8
ENDBRANCH   1   2
BRANCH   1  16
ATOM     16  CA  UNL     1      35.181 -22.245 -18.192  0.00  0.00    +0.108 C 
ATOM     17  O   UNL     1      33.228 -23.495 -16.526  0.00  0.00    -0.270 OA
ATOM     18  N   UNL     1      35.323 -22.542 -16.865  0.00  0.00    -0.278 N 
ATOM     19  C   UNL     1      34.333 -23.152 -16.110  0.00  0.00    +0.249 C 
ATOM     20  H   UNL     1      36.172 -22.311 -16.423  0.00  0.00    +0.155 HD
BRANCH  19  21
ATOM     21  C   UNL     1      34.681 -23.416 -14.689  0.00  0.00    +0.054 C 
ATOM     22  C   UNL     1      35.945 -23.092 -14.243  0.00  0.00    +0.005 C 
ATOM     23  C   UNL     1      33.728 -23.973 -13.863  0.00  0.00    +0.005 C 
ATOM     24  C   UNL     1      36.272 -23.339 -12.910  0.00  0.00    +0.000 C 
ATOM     25  C   UNL     1      34.055 -24.220 -12.530  0.00  0.00    +0.000 C 
ATOM     26  C   UNL     1      35.327 -23.903 -12.053  0.00  0.00    +0.000 C 
ENDBRANCH  19  21
BRANCH  16  28
ATOM     27  OXT UNL     1      32.909 -21.905 -18.924  0.00  0.00    -0.244 OA
ATOM     28  C   UNL     1      33.906 -22.609 -18.864  0.00  0.00    +0.348 C 
BRANCH  28  29
ATOM     29  O   UNL     1      33.984 -23.846 -19.411  0.00  0.00    -0.476 OA
ATOM     30  H   UNL     1      34.475 -23.980 -20.198  0.00  0.00    +0.295 HD
ENDBRANCH  28  29
ENDBRANCH  16  28
ENDBRANCH   1  16
TORSDOF 7
ENDMDL
MODEL 5
REMARK VINA RESULT:     -10.7      3.453      9.359
REMARK  Name = 657131
REMARK  7 active torsions:
REMARK  status: ('A' for Active; 'I' for Inactive)
REMARK    1  A    between atoms: C_1  and  CA_2
REMARK    2  A    between atoms: C_1  and  C_3
REMARK    3  A    between atoms: CA_2  and  C_28
REMARK    4  A    between atoms: C_4  and  O_9
REMARK    5  A    between atoms: O_9  and  C_11
REMARK    6  A    between atoms: C_19  and  C_21
REMARK    7  A    between atoms: C_28  and  O_29
REMARK                            x       y       z     vdW  Elec       q    Type
REMARK                         _______ _______ _______ _____ _____    ______ ____
ROOT
ATOM      1  C   UNL     1      36.068 -17.394 -21.856  0.00  0.00    +0.074 C 
ENDROOT
BRANCH   1   2
ATOM      2  C   UNL     1      35.759 -18.608 -21.119  0.00  0.00    -0.016 C 
ATOM      3  C   UNL     1      35.167 -20.938 -19.704  0.00  0.00    +0.145 C 
ATOM      4  C   UNL     1      34.436 -19.034 -20.998  0.00  0.00    -0.001 C 
ATOM      5  C   UNL     1      36.786 -19.348 -20.532  0.00  0.00    -0.001 C 
ATOM      6  C   UNL     1      34.140 -20.199 -20.291  0.00  0.00    +0.037 C 
ATOM      7  C   UNL     1      36.489 -20.513 -19.824  0.00  0.00    +0.037 C 
BRANCH   3   8
ATOM      8  O   UNL     1      34.878 -22.075 -19.014  0.00  0.00    -0.453 OA
BRANCH   8  10
ATOM      9 BR   UNL     1      32.780 -23.139 -16.961  0.00  0.00    -0.046 Br
ATOM     10  C   UNL     1      35.389 -22.200 -17.733  0.00  0.00    +0.151 C 
ATOM     11  C   UNL     1      34.595 -22.659 -16.697  0.00  0.00    +0.069 C 
ATOM     12  C   UNL     1      36.714 -21.851 -17.531  0.00  0.00    +0.038 C 
ATOM     13  C   UNL     1      35.142 -22.772 -15.419  0.00  0.00    +0.010 C 
ATOM     14  C   UNL     1      37.261 -21.965 -16.253  0.00  0.00    +0.003 C 
ATOM     15  C   UNL     1      36.475 -22.426 -15.197  0.00  0.00    +0.001 C 
ENDBRANCH   8  10
ENDBRANCH   3   8
ENDBRANCH   1   2
BRANCH   1  16
ATOM     16  CA  UNL     1      35.184 -16.611 -22.516  0.00  0.00    +0.108 C 
ATOM     17  O   UNL     1      33.304 -14.884 -23.795  0.00  0.00    -0.270 OA
ATOM     18  N   UNL     1      34.545 -15.546 -21.943  0.00  0.00    -0.278 N 
ATOM     19  C   UNL     1      33.640 -14.744 -22.621  0.00  0.00    +0.249 C 
ATOM     20  H   UNL     1      34.739 -15.338 -21.000  0.00  0.00    +0.155 HD
BRANCH  19  21
ATOM     21  C   UNL     1      33.031 -13.649 -21.823  0.00  0.00    +0.054 C 
ATOM     22  C   UNL     1      32.638 -12.495 -22.469  0.00  0.00    +0.005 C 
ATOM     23  C   UNL     1      32.876 -13.822 -20.464  0.00  0.00    +0.005 C 
ATOM     24  C   UNL     1      32.066 -11.467 -21.721  0.00  0.00    +0.000 C 
ATOM     25  C   UNL     1      32.304 -12.793 -19.715  0.00  0.00    +0.000 C 
ATOM     26  C   UNL     1      31.899 -11.615 -20.344  0.00  0.00    +0.000 C 
ENDBRANCH  19  21
BRANCH  16  28
ATOM     27  OXT UNL     1      34.154 -17.843 -24.314  0.00  0.00    -0.244 OA
ATOM     28  C   UNL     1      34.878 -16.936 -23.935  0.00  0.00    +0.348 C 
BRANCH  28  29
ATOM     29  O   UNL     1      35.517 -16.085 -24.774  0.00  0.00    -0.476 OA
ATOM     30  H   UNL     1      35.112 -15.829 -25.579  0.00  0.00    +0.295 HD
ENDBRANCH  28  29
ENDBRANCH  16  28
ENDBRANCH   1  16
TORSDOF 7
ENDMDL
MODEL 6
REMARK VINA RESULT:     -10.7      3.677     10.135
REMARK  Name = 657131
REMARK  7 active torsions:
REMARK  status: ('A' for Active; 'I' for Inactive)
REMARK    1  A    between atoms: C_1  and  CA_2
REMARK    2  A    between atoms: C_1  and  C_3
REMARK    3  A    between atoms: CA_2  and  C_28
REMARK    4  A    between atoms: C_4  and  O_9
REMARK    5  A    between atoms: O_9  and  C_11
REMARK    6  A    between atoms: C_19  and  C_21
REMARK    7  A    between atoms: C_28  and  O_29
REMARK                            x       y       z     vdW  Elec       q    Type
REMARK                         _______ _______ _______ _____ _____    ______ ____
ROOT
ATOM      1  C   UNL     1      31.647 -12.082 -20.661  0.00  0.00    +0.074 C 
ENDROOT
BRANCH   1   2
ATOM      2  C   UNL     1      32.648 -13.034 -21.114  0.00  0.00    -0.016 C 
ATOM      3  C   UNL     1      34.567 -14.861 -21.987  0.00  0.00    +0.145 C 
ATOM      4  C   UNL     1      33.144 -13.997 -20.236  0.00  0.00    -0.001 C 
ATOM      5  C   UNL     1      33.111 -12.984 -22.429  0.00  0.00    -0.001 C 
ATOM      6  C   UNL     1      34.104 -14.911 -20.672  0.00  0.00    +0.037 C 
ATOM      7  C   UNL     1      34.071 -13.898 -22.865  0.00  0.00    +0.037 C 
BRANCH   3   8
ATOM      8  O   UNL     1      35.503 -15.752 -22.412  0.00  0.00    -0.453 OA
BRANCH   8  10
ATOM      9 BR   UNL     1      36.267 -18.358 -20.871  0.00  0.00    -0.046 Br
ATOM     10  C   UNL     1      35.057 -16.904 -23.040  0.00  0.00    +0.151 C 
ATOM     11  C   UNL     1      35.309 -18.150 -22.493  0.00  0.00    +0.069 C 
ATOM     12  C   UNL     1      34.357 -16.761 -24.226  0.00  0.00    +0.038 C 
ATOM     13  C   UNL     1      34.846 -19.289 -23.152  0.00  0.00    +0.010 C 
ATOM     14  C   UNL     1      33.893 -17.900 -24.884  0.00  0.00    +0.003 C 
ATOM     15  C   UNL     1      34.138 -19.164 -24.347  0.00  0.00    +0.001 C 
ENDBRANCH   8  10
ENDBRANCH   3   8
ENDBRANCH   1   2
BRANCH   1  16
ATOM     16  CA  UNL     1      31.837 -10.757 -20.459  0.00  0.00    +0.108 C 
ATOM     17  O   UNL     1      32.278  -7.952 -20.164  0.00  0.00    -0.270 OA
ATOM     18  N   UNL     1      32.309  -9.908 -21.421  0.00  0.00    -0.278 N 
ATOM     19  C   UNL     1      32.502  -8.551 -21.214  0.00  0.00    +0.249 C 
ATOM     20  H   UNL     1      32.522 -10.280 -22.308  0.00  0.00    +0.155 HD
BRANCH  19  21
ATOM     21  C   UNL     1      33.044  -7.795 -22.372  0.00  0.00    +0.054 C 
ATOM     22  C   UNL     1      32.199  -7.483 -23.417  0.00  0.00    +0.005 C 
ATOM     23  C   UNL     1      34.373  -7.429 -22.364  0.00  0.00    +0.005 C 
ATOM     24  C   UNL     1      32.708  -6.773 -24.504  0.00  0.00    +0.000 C 
ATOM     25  C   UNL     1      34.882  -6.718 -23.452  0.00  0.00    +0.000 C 
ATOM     26  C   UNL     1      34.049  -6.391 -24.522  0.00  0.00    +0.000 C 
ENDBRANCH  19  21
BRANCH  16  28
ATOM     27  OXT UNL     1      30.412  -9.963 -18.684  0.00  0.00    -0.244 OA
ATOM     28  C   UNL     1      31.531 -10.199 -19.116  0.00  0.00    +0.348 C 
BRANCH  28  29
ATOM     29  O   UNL     1      32.668  -9.978 -18.413  0.00  0.00    -0.476 OA
ATOM     30  H   UNL     1      32.784 -10.375 -17.573  0.00  0.00    +0.295 HD
ENDBRANCH  28  29
ENDBRANCH  16  28
ENDBRANCH   1  16
TORSDOF 7
ENDMDL
MODEL 7
REMARK VINA RESULT:     -10.7      3.123     10.078
REMARK  Name = 657131
REMARK  7 active torsions:
REMARK  status: ('A' for Active; 'I' for Inactive)
REMARK    1  A    between atoms: C_1  and  CA_2
REMARK    2  A    between atoms: C_1  and  C_3
REMARK    3  A    between atoms: CA_2  and  C_28
REMARK    4  A    between atoms: C_4  and  O_9
REMARK    5  A    between atoms: O_9  and  C_11
REMARK    6  A    between atoms: C_19  and  C_21
REMARK    7  A    between atoms: C_28  and  O_29
REMARK                            x       y       z     vdW  Elec       q    Type
REMARK                         _______ _______ _______ _____ _____    ______ ____
ROOT
ATOM      1  C   UNL     1      31.582 -12.052 -20.715  0.00  0.00    +0.074 C 
ENDROOT
BRANCH   1   2
ATOM      2  C   UNL     1      32.616 -12.973 -21.156  0.00  0.00    -0.016 C 
ATOM      3  C   UNL     1      34.602 -14.742 -21.999  0.00  0.00    +0.145 C 
ATOM      4  C   UNL     1      33.017 -12.987 -22.492  0.00  0.00    -0.001 C 
ATOM      5  C   UNL     1      33.210 -13.844 -20.241  0.00  0.00    -0.001 C 
ATOM      6  C   UNL     1      34.010 -13.872 -22.913  0.00  0.00    +0.037 C 
ATOM      7  C   UNL     1      34.203 -14.728 -20.663  0.00  0.00    +0.037 C 
BRANCH   3   8
ATOM      8  O   UNL     1      35.571 -15.604 -22.410  0.00  0.00    -0.453 OA
BRANCH   8  10
ATOM      9 BR   UNL     1      34.199 -16.800 -24.946  0.00  0.00    -0.046 Br
ATOM     10  C   UNL     1      35.317 -16.961 -22.299  0.00  0.00    +0.151 C 
ATOM     11  C   UNL     1      34.712 -17.653 -23.333  0.00  0.00    +0.069 C 
ATOM     12  C   UNL     1      35.688 -17.591 -21.124  0.00  0.00    +0.038 C 
ATOM     13  C   UNL     1      34.470 -19.019 -23.188  0.00  0.00    +0.010 C 
ATOM     14  C   UNL     1      35.446 -18.958 -20.979  0.00  0.00    +0.003 C 
ATOM     15  C   UNL     1      34.837 -19.671 -22.011  0.00  0.00    +0.001 C 
ENDBRANCH   8  10
ENDBRANCH   3   8
ENDBRANCH   1   2
BRANCH   1  16
ATOM     16  CA  UNL     1      31.742 -10.732 -20.459  0.00  0.00    +0.108 C 
ATOM     17  O   UNL     1      32.119  -7.933 -20.047  0.00  0.00    -0.270 OA
ATOM     18  N   UNL     1      32.193  -9.834 -21.385  0.00  0.00    -0.278 N 
ATOM     19  C   UNL     1      32.355  -8.483 -21.121  0.00  0.00    +0.249 C 
ATOM     20  H   UNL     1      32.414 -10.164 -22.286  0.00  0.00    +0.155 HD
BRANCH  19  21
ATOM     21  C   UNL     1      32.879  -7.667 -22.248  0.00  0.00    +0.054 C 
ATOM     22  C   UNL     1      34.237  -7.443 -22.331  0.00  0.00    +0.005 C 
ATOM     23  C   UNL     1      31.991  -7.165 -23.175  0.00  0.00    +0.005 C 
ATOM     24  C   UNL     1      34.729  -6.678 -23.388  0.00  0.00    +0.000 C 
ATOM     25  C   UNL     1      32.483  -6.400 -24.233  0.00  0.00    +0.000 C 
ATOM     26  C   UNL     1      33.853  -6.157 -24.339  0.00  0.00    +0.000 C 
ENDBRANCH  19  21
BRANCH  16  28
ATOM     27  OXT UNL     1      30.302 -10.025 -18.659  0.00  0.00    -0.244 OA
ATOM     28  C   UNL     1      31.424 -10.238 -19.093  0.00  0.00    +0.348 C 
BRANCH  28  29
ATOM     29  O   UNL     1      32.556 -10.047 -18.373  0.00  0.00    -0.476 OA
ATOM     30  H   UNL     1      32.588  -9.375 -17.720  0.00  0.00    +0.295 HD
ENDBRANCH  28  29
ENDBRANCH  16  28
ENDBRANCH   1  16
TORSDOF 7
ENDMDL
MODEL 8
REMARK VINA RESULT:     -10.5      4.964      7.987
REMARK  Name = 657131
REMARK  7 active torsions:
REMARK  status: ('A' for Active; 'I' for Inactive)
REMARK    1  A    between atoms: C_1  and  CA_2
REMARK    2  A    between atoms: C_1  and  C_3
REMARK    3  A    between atoms: CA_2  and  C_28
REMARK    4  A    between atoms: C_4  and  O_9
REMARK    5  A    between atoms: O_9  and  C_11
REMARK    6  A    between atoms: C_19  and  C_21
REMARK    7  A    between atoms: C_28  and  O_29
REMARK                            x       y       z     vdW  Elec       q    Type
REMARK                         _______ _______ _______ _____ _____    ______ ____
ROOT
ATOM      1  C   UNL     1      34.532 -22.974 -18.478  0.00  0.00    +0.074 C 
ENDROOT
BRANCH   1   2
ATOM      2  C   UNL     1      34.841 -21.724 -19.151  0.00  0.00    -0.016 C 
ATOM      3  C   UNL     1      35.431 -19.323 -20.444  0.00  0.00    +0.145 C 
ATOM      4  C   UNL     1      36.164 -21.296 -19.259  0.00  0.00    -0.001 C 
ATOM      5  C   UNL     1      33.813 -20.950 -19.691  0.00  0.00    -0.001 C 
ATOM      6  C   UNL     1      36.460 -20.095 -19.905  0.00  0.00    +0.037 C 
ATOM      7  C   UNL     1      34.108 -19.750 -20.337  0.00  0.00    +0.037 C 
BRANCH   3   8
ATOM      8  O   UNL     1      35.720 -18.153 -21.075  0.00  0.00    -0.453 OA
BRANCH   8  10
ATOM      9 BR   UNL     1      34.956 -15.174 -21.615  0.00  0.00    -0.046 Br
ATOM     10  C   UNL     1      35.184 -17.951 -22.336  0.00  0.00    +0.151 C 
ATOM     11  C   UNL     1      34.790 -16.688 -22.743  0.00  0.00    +0.069 C 
ATOM     12  C   UNL     1      35.058 -19.052 -23.166  0.00  0.00    +0.038 C 
ATOM     13  C   UNL     1      34.253 -16.521 -24.020  0.00  0.00    +0.010 C 
ATOM     14  C   UNL     1      34.523 -18.884 -24.444  0.00  0.00    +0.003 C 
ATOM     15  C   UNL     1      34.120 -17.619 -24.870  0.00  0.00    +0.001 C 
ENDBRANCH   8  10
ENDBRANCH   3   8
ENDBRANCH   1   2
BRANCH   1  16
ATOM     16  CA  UNL     1      34.071 -23.110 -17.212  0.00  0.00    +0.108 C 
ATOM     17  O   UNL     1      32.973 -23.405 -14.594  0.00  0.00    -0.270 OA
ATOM     18  N   UNL     1      32.748 -23.257 -16.904  0.00  0.00    -0.278 N 
ATOM     19  C   UNL     1      32.278 -23.397 -15.607  0.00  0.00    +0.249 C 
ATOM     20  H   UNL     1      32.095 -23.266 -17.641  0.00  0.00    +0.155 HD
BRANCH  19  21
ATOM     21  C   UNL     1      30.803 -23.522 -15.470  0.00  0.00    +0.054 C 
ATOM     22  C   UNL     1      30.290 -24.594 -14.769  0.00  0.00    +0.005 C 
ATOM     23  C   UNL     1      29.997 -22.563 -16.044  0.00  0.00    +0.005 C 
ATOM     24  C   UNL     1      28.907 -24.712 -14.640  0.00  0.00    +0.000 C 
ATOM     25  C   UNL     1      28.613 -22.681 -15.914  0.00  0.00    +0.000 C 
ATOM     26  C   UNL     1      28.068 -23.756 -15.212  0.00  0.00    +0.000 C 
ENDBRANCH  19  21
BRANCH  16  28
ATOM     27  OXT UNL     1      35.560 -22.072 -15.625  0.00  0.00    -0.244 OA
ATOM     28  C   UNL     1      35.056 -23.080 -16.099  0.00  0.00    +0.348 C 
BRANCH  28  29
ATOM     29  O   UNL     1      35.333 -24.333 -15.664  0.00  0.00    -0.476 OA
ATOM     30  H   UNL     1      35.224 -25.063 -16.241  0.00  0.00    +0.295 HD
ENDBRANCH  28  29
ENDBRANCH  16  28
ENDBRANCH   1  16
TORSDOF 7
ENDMDL
MODEL 9
REMARK VINA RESULT:     -10.4      6.229      9.937
REMARK  Name = 657131
REMARK  7 active torsions:
REMARK  status: ('A' for Active; 'I' for Inactive)
REMARK    1  A    between atoms: C_1  and  CA_2
REMARK    2  A    between atoms: C_1  and  C_3
REMARK    3  A    between atoms: CA_2  and  C_28
REMARK    4  A    between atoms: C_4  and  O_9
REMARK    5  A    between atoms: O_9  and  C_11
REMARK    6  A    between atoms: C_19  and  C_21
REMARK    7  A    between atoms: C_28  and  O_29
REMARK                            x       y       z     vdW  Elec       q    Type
REMARK                         _______ _______ _______ _____ _____    ______ ____
ROOT
ATOM      1  C   UNL     1      35.690 -22.763 -14.486  0.00  0.00    +0.074 C 
ENDROOT
BRANCH   1   2
ATOM      2  C   UNL     1      35.687 -22.500 -15.915  0.00  0.00    -0.016 C 
ATOM      3  C   UNL     1      35.684 -21.992 -18.658  0.00  0.00    +0.145 C 
ATOM      4  C   UNL     1      34.577 -22.843 -16.687  0.00  0.00    -0.001 C 
ATOM      5  C   UNL     1      36.795 -21.901 -16.516  0.00  0.00    -0.001 C 
ATOM      6  C   UNL     1      34.575 -22.589 -18.059  0.00  0.00    +0.037 C 
ATOM      7  C   UNL     1      36.793 -21.647 -17.887  0.00  0.00    +0.037 C 
BRANCH   3   8
ATOM      8  O   UNL     1      35.681 -21.743 -19.996  0.00  0.00    -0.453 OA
BRANCH   8  10
ATOM      9 BR   UNL     1      32.841 -20.459 -20.183  0.00  0.00    -0.046 Br
ATOM     10  C   UNL     1      35.711 -20.421 -20.406  0.00  0.00    +0.151 C 
ATOM     11  C   UNL     1      34.539 -19.697 -20.543  0.00  0.00    +0.069 C 
ATOM     12  C   UNL     1      36.946 -19.856 -20.672  0.00  0.00    +0.038 C 
ATOM     13  C   UNL     1      34.605 -18.367 -20.958  0.00  0.00    +0.010 C 
ATOM     14  C   UNL     1      37.012 -18.525 -21.086  0.00  0.00    +0.003 C 
ATOM     15  C   UNL     1      35.841 -17.781 -21.230  0.00  0.00    +0.001 C 
ENDBRANCH   8  10
ENDBRANCH   3   8
ENDBRANCH   1   2
BRANCH   1  16
ATOM     16  CA  UNL     1      34.746 -23.446 -13.796  0.00  0.00    +0.108 C 
ATOM     17  O   UNL     1      32.664 -24.845 -12.434  0.00  0.00    -0.270 OA
ATOM     18  N   UNL     1      33.432 -23.503 -14.171  0.00  0.00    -0.278 N 
ATOM     19  C   UNL     1      32.467 -24.203 -13.463  0.00  0.00    +0.249 C 
ATOM     20  H   UNL     1      33.158 -23.022 -14.985  0.00  0.00    +0.155 HD
BRANCH  19  21
ATOM     21  C   UNL     1      31.089 -24.128 -14.014  0.00  0.00    +0.054 C 
ATOM     22  C   UNL     1      30.657 -22.941 -14.567  0.00  0.00    +0.005 C 
ATOM     23  C   UNL     1      30.288 -25.249 -13.956  0.00  0.00    +0.005 C 
ATOM     24  C   UNL     1      29.364 -22.871 -15.084  0.00  0.00    +0.000 C 
ATOM     25  C   UNL     1      28.994 -25.179 -14.473  0.00  0.00    +0.000 C 
ATOM     26  C   UNL     1      28.532 -23.989 -15.037  0.00  0.00    +0.000 C 
ENDBRANCH  19  21
BRANCH  16  28
ATOM     27  OXT UNL     1      35.136 -23.687 -11.429  0.00  0.00    -0.244 OA
ATOM     28  C   UNL     1      35.157 -24.157 -12.557  0.00  0.00    +0.348 C 
BRANCH  28  29
ATOM     29  O   UNL     1      35.570 -25.417 -12.837  0.00  0.00    -0.476 OA
ATOM     30  H   UNL     1      36.043 -25.908 -12.195  0.00  0.00    +0.295 HD
ENDBRANCH  28  29
ENDBRANCH  16  28
ENDBRANCH   1  16
TORSDOF 7
ENDMDL
