MODEL 1
REMARK VINA RESULT:     -11.1      0.000      0.000
REMARK  Name = 9933475
REMARK  8 active torsions:
REMARK  status: ('A' for Active; 'I' for Inactive)
REMARK    1  A    between atoms: C_3  and  O_13
REMARK    2  A    between atoms: C_4  and  O_11
REMARK    3  A    between atoms: C_9  and  O_23
REMARK    4  A    between atoms: O_13  and  C_14
REMARK    5  A    between atoms: C_14  and  C_15
REMARK    6  A    between atoms: C_15  and  C_16
REMARK    7  A    between atoms: C_16  and  N_17
REMARK    8  A    between atoms: O_23  and  C_31
REMARK                            x       y       z     vdW  Elec       q    Type
REMARK                         _______ _______ _______ _____ _____    ______ ____
ROOT
ATOM      1  N   UNL     1      34.122 -17.990 -25.004  0.00  0.00    -0.248 NA
ATOM      2  N   UNL     1      34.971 -19.710 -23.545  0.00  0.00    -0.214 NA
ATOM      3  C   UNL     1      34.329 -14.745 -23.332  0.00  0.00    +0.173 C 
ATOM      4  C   UNL     1      34.880 -15.089 -22.108  0.00  0.00    +0.169 C 
ATOM      5  C   UNL     1      34.076 -15.718 -24.298  0.00  0.00    +0.055 C 
ATOM      6  C   UNL     1      34.927 -17.403 -22.823  0.00  0.00    +0.141 C 
ATOM      7  C   UNL     1      34.369 -17.060 -24.065  0.00  0.00    +0.072 C 
ATOM      8  C   UNL     1      35.182 -16.422 -21.849  0.00  0.00    +0.029 C 
ATOM      9  C   UNL     1      35.205 -18.753 -22.627  0.00  0.00    +0.213 C 
ATOM     10  C   UNL     1      34.436 -19.264 -24.694  0.00  0.00    +0.253 C 
ENDROOT
BRANCH   4  11
ATOM     11  O   UNL     1      35.129 -14.145 -21.159  0.00  0.00    -0.469 OA
ATOM     12  C   UNL     1      34.243 -14.098 -20.042  0.00  0.00    +0.253 C 
ENDBRANCH   4  11
BRANCH   3  13
ATOM     13  O   UNL     1      34.021 -13.438 -23.609  0.00  0.00    -0.472 OA
BRANCH  13  14
ATOM     14  C   UNL     1      32.703 -13.008 -23.299  0.00  0.00    +0.203 C 
BRANCH  14  15
ATOM     15  C   UNL     1      32.783 -11.720 -22.491  0.00  0.00    +0.025 C 
BRANCH  15  16
ATOM     16  C   UNL     1      31.411 -11.071 -22.336  0.00  0.00    -0.074 C 
BRANCH  16  17
ATOM     17  N   UNL     1      31.246 -10.557 -20.984  0.00  0.00    +0.387 N 
ATOM     18  C   UNL     1      31.773 -11.469 -19.971  0.00  0.00    -0.077 C 
ATOM     19  C   UNL     1      31.963  -9.300 -20.774  0.00  0.00    -0.077 C 
ATOM     20  C   UNL     1      31.856 -10.592 -18.731  0.00  0.00    -0.025 C 
ATOM     21  C   UNL     1      31.977  -9.165 -19.258  0.00  0.00    -0.025 C 
ATOM     22  H   UNL     1      30.238 -10.433 -20.889  0.00  0.00    -0.080 HD
ENDBRANCH  16  17
ENDBRANCH  15  16
ENDBRANCH  14  15
ENDBRANCH  13  14
ENDBRANCH   3  13
BRANCH   9  23
ATOM     23  O   UNL     1      35.753 -19.185 -21.447  0.00  0.00    -0.437 OA
BRANCH  23  31
ATOM     24  F   UNL     1      36.885 -20.867 -19.594  0.00  0.00    -0.201 F 
ATOM     25  N   UNL     1      32.772 -22.289 -18.050  0.00  0.00    -0.316 N 
ATOM     26  C   UNL     1      34.723 -21.557 -18.846  0.00  0.00    +0.045 C 
ATOM     27  C   UNL     1      33.338 -21.442 -18.977  0.00  0.00    +0.050 C 
ATOM     28  C   UNL     1      33.749 -22.932 -17.340  0.00  0.00    +0.026 C 
ATOM     29  C   UNL     1      34.969 -22.500 -17.809  0.00  0.00    +0.014 C 
ATOM     30  C   UNL     1      35.550 -20.786 -19.688  0.00  0.00    +0.176 C 
ATOM     31  C   UNL     1      34.951 -19.942 -20.617  0.00  0.00    +0.174 C 
ATOM     32  C   UNL     1      32.735 -20.593 -19.911  0.00  0.00    +0.018 C 
ATOM     33  C   UNL     1      33.574 -19.839 -20.736  0.00  0.00    +0.041 C 
ATOM     34  C   UNL     1      33.414 -23.900 -16.279  0.00  0.00    +0.047 C 
ATOM     35  H   UNL     1      31.805 -22.413 -17.917  0.00  0.00    +0.152 HD
ENDBRANCH  23  31
ENDBRANCH   9  23
TORSDOF 8
ENDMDL
MODEL 2
REMARK VINA RESULT:     -10.4      3.738     11.139
REMARK  Name = 9933475
REMARK  8 active torsions:
REMARK  status: ('A' for Active; 'I' for Inactive)
REMARK    1  A    between atoms: C_3  and  O_13
REMARK    2  A    between atoms: C_4  and  O_11
REMARK    3  A    between atoms: C_9  and  O_23
REMARK    4  A    between atoms: O_13  and  C_14
REMARK    5  A    between atoms: C_14  and  C_15
REMARK    6  A    between atoms: C_15  and  C_16
REMARK    7  A    between atoms: C_16  and  N_17
REMARK    8  A    between atoms: O_23  and  C_31
REMARK                            x       y       z     vdW  Elec       q    Type
REMARK                         _______ _______ _______ _____ _____    ______ ____
ROOT
ATOM      1  N   UNL     1      32.688 -12.726 -19.579  0.00  0.00    -0.248 NA
ATOM      2  N   UNL     1      31.508 -10.912 -20.637  0.00  0.00    -0.214 NA
ATOM      3  C   UNL     1      34.254 -14.828 -22.128  0.00  0.00    +0.173 C 
ATOM      4  C   UNL     1      33.879 -14.186 -23.297  0.00  0.00    +0.169 C 
ATOM      5  C   UNL     1      33.854 -14.337 -20.886  0.00  0.00    +0.055 C 
ATOM      6  C   UNL     1      32.691 -12.545 -21.969  0.00  0.00    +0.141 C 
ATOM      7  C   UNL     1      33.068 -13.191 -20.781  0.00  0.00    +0.072 C 
ATOM      8  C   UNL     1      33.094 -13.041 -23.222  0.00  0.00    +0.029 C 
ATOM      9  C   UNL     1      31.906 -11.404 -21.825  0.00  0.00    +0.213 C 
ATOM     10  C   UNL     1      31.929 -11.612 -19.571  0.00  0.00    +0.253 C 
ENDROOT
BRANCH   4  11
ATOM     11  O   UNL     1      34.265 -14.660 -24.514  0.00  0.00    -0.469 OA
ATOM     12  C   UNL     1      33.238 -14.885 -25.479  0.00  0.00    +0.253 C 
ENDBRANCH   4  11
BRANCH   3  13
ATOM     13  O   UNL     1      35.026 -15.961 -22.177  0.00  0.00    -0.472 OA
BRANCH  13  14
ATOM     14  C   UNL     1      35.084 -16.750 -20.997  0.00  0.00    +0.203 C 
BRANCH  14  15
ATOM     15  C   UNL     1      35.906 -18.000 -21.281  0.00  0.00    +0.025 C 
BRANCH  15  16
ATOM     16  C   UNL     1      35.013 -19.211 -21.533  0.00  0.00    -0.074 C 
BRANCH  16  17
ATOM     17  N   UNL     1      34.676 -19.861 -20.276  0.00  0.00    +0.387 N 
ATOM     18  C   UNL     1      33.324 -20.419 -20.280  0.00  0.00    -0.077 C 
ATOM     19  C   UNL     1      35.553 -20.993 -19.980  0.00  0.00    -0.077 C 
ATOM     20  C   UNL     1      33.336 -21.353 -19.080  0.00  0.00    -0.025 C 
ATOM     21  C   UNL     1      34.802 -21.728 -18.879  0.00  0.00    -0.025 C 
ATOM     22  H   UNL     1      34.773 -19.121 -19.581  0.00  0.00    -0.080 HD
ENDBRANCH  16  17
ENDBRANCH  15  16
ENDBRANCH  14  15
ENDBRANCH  13  14
ENDBRANCH   3  13
BRANCH   9  23
ATOM     23  O   UNL     1      31.488 -10.704 -22.927  0.00  0.00    -0.437 OA
BRANCH  23  31
ATOM     24  F   UNL     1      29.850  -8.536 -23.323  0.00  0.00    -0.201 F 
ATOM     25  N   UNL     1      33.420  -5.637 -23.735  0.00  0.00    -0.316 N 
ATOM     26  C   UNL     1      31.745  -7.095 -23.526  0.00  0.00    +0.045 C 
ATOM     27  C   UNL     1      33.135  -6.967 -23.518  0.00  0.00    +0.050 C 
ATOM     28  C   UNL     1      32.262  -4.923 -23.879  0.00  0.00    +0.026 C 
ATOM     29  C   UNL     1      31.206  -5.797 -23.753  0.00  0.00    +0.014 C 
ATOM     30  C   UNL     1      31.180  -8.370 -23.323  0.00  0.00    +0.176 C 
ATOM     31  C   UNL     1      32.033  -9.451 -23.124  0.00  0.00    +0.174 C 
ATOM     32  C   UNL     1      33.993  -8.054 -23.318  0.00  0.00    +0.018 C 
ATOM     33  C   UNL     1      33.411  -9.309 -23.120  0.00  0.00    +0.041 C 
ATOM     34  C   UNL     1      32.283  -3.469 -24.121  0.00  0.00    +0.047 C 
ATOM     35  H   UNL     1      34.327  -5.256 -23.779  0.00  0.00    +0.152 HD
ENDBRANCH  23  31
ENDBRANCH   9  23
TORSDOF 8
ENDMDL
MODEL 3
REMARK VINA RESULT:     -10.0      4.256      8.478
REMARK  Name = 9933475
REMARK  8 active torsions:
REMARK  status: ('A' for Active; 'I' for Inactive)
REMARK    1  A    between atoms: C_3  and  O_13
REMARK    2  A    between atoms: C_4  and  O_11
REMARK    3  A    between atoms: C_9  and  O_23
REMARK    4  A    between atoms: O_13  and  C_14
REMARK    5  A    between atoms: C_14  and  C_15
REMARK    6  A    between atoms: C_15  and  C_16
REMARK    7  A    between atoms: C_16  and  N_17
REMARK    8  A    between atoms: O_23  and  C_31
REMARK                            x       y       z     vdW  Elec       q    Type
REMARK                         _______ _______ _______ _____ _____    ______ ____
ROOT
ATOM      1  N   UNL     1      31.612 -23.165 -16.938  0.00  0.00    -0.248 NA
ATOM      2  N   UNL     1      32.083 -23.825 -14.669  0.00  0.00    -0.214 NA
ATOM      3  C   UNL     1      34.662 -21.903 -18.511  0.00  0.00    +0.173 C 
ATOM      4  C   UNL     1      35.586 -22.032 -17.486  0.00  0.00    +0.169 C 
ATOM      5  C   UNL     1      33.333 -22.283 -18.323  0.00  0.00    +0.055 C 
ATOM      6  C   UNL     1      33.835 -22.930 -16.072  0.00  0.00    +0.141 C 
ATOM      7  C   UNL     1      32.895 -22.802 -17.107  0.00  0.00    +0.072 C 
ATOM      8  C   UNL     1      35.175 -22.546 -16.261  0.00  0.00    +0.029 C 
ATOM      9  C   UNL     1      33.360 -23.451 -14.872  0.00  0.00    +0.213 C 
ATOM     10  C   UNL     1      31.275 -23.657 -15.728  0.00  0.00    +0.253 C 
ENDROOT
BRANCH   4  11
ATOM     11  O   UNL     1      36.885 -21.662 -17.660  0.00  0.00    -0.469 OA
ATOM     12  C   UNL     1      37.586 -21.191 -16.511  0.00  0.00    +0.253 C 
ENDBRANCH   4  11
BRANCH   3  13
ATOM     13  O   UNL     1      35.043 -21.397 -19.727  0.00  0.00    -0.472 OA
BRANCH  13  14
ATOM     14  C   UNL     1      34.357 -20.241 -20.184  0.00  0.00    +0.203 C 
BRANCH  14  15
ATOM     15  C   UNL     1      34.996 -19.770 -21.484  0.00  0.00    +0.025 C 
BRANCH  15  16
ATOM     16  C   UNL     1      35.948 -18.602 -21.248  0.00  0.00    -0.074 C 
BRANCH  16  17
ATOM     17  N   UNL     1      35.841 -17.636 -22.331  0.00  0.00    +0.387 N 
ATOM     18  C   UNL     1      34.980 -18.106 -23.416  0.00  0.00    -0.077 C 
ATOM     19  C   UNL     1      35.247 -16.372 -21.895  0.00  0.00    -0.077 C 
ATOM     20  C   UNL     1      34.703 -16.837 -24.207  0.00  0.00    -0.025 C 
ATOM     21  C   UNL     1      34.883 -15.696 -23.209  0.00  0.00    -0.025 C 
ATOM     22  H   UNL     1      36.803 -17.509 -22.645  0.00  0.00    -0.080 HD
ENDBRANCH  16  17
ENDBRANCH  15  16
ENDBRANCH  14  15
ENDBRANCH  13  14
ENDBRANCH   3  13
BRANCH   9  23
ATOM     23  O   UNL     1      34.203 -23.615 -13.804  0.00  0.00    -0.437 OA
BRANCH  23  31
ATOM     24  F   UNL     1      36.664 -22.902 -12.813  0.00  0.00    -0.201 F 
ATOM     25  N   UNL     1      38.655 -26.765 -14.374  0.00  0.00    -0.316 N 
ATOM     26  C   UNL     1      37.627 -24.922 -13.649  0.00  0.00    +0.045 C 
ATOM     27  C   UNL     1      37.437 -26.124 -14.335  0.00  0.00    +0.050 C 
ATOM     28  C   UNL     1      39.605 -26.012 -13.738  0.00  0.00    +0.026 C 
ATOM     29  C   UNL     1      38.999 -24.866 -13.278  0.00  0.00    +0.014 C 
ATOM     30  C   UNL     1      36.524 -24.065 -13.466  0.00  0.00    +0.176 C 
ATOM     31  C   UNL     1      35.289 -24.450 -13.977  0.00  0.00    +0.174 C 
ATOM     32  C   UNL     1      36.195 -26.512 -14.849  0.00  0.00    +0.018 C 
ATOM     33  C   UNL     1      35.116 -25.645 -14.656  0.00  0.00    +0.041 C 
ATOM     34  C   UNL     1      41.003 -26.471 -13.635  0.00  0.00    +0.047 C 
ATOM     35  H   UNL     1      38.818 -27.638 -14.797  0.00  0.00    +0.152 HD
ENDBRANCH  23  31
ENDBRANCH   9  23
TORSDOF 8
ENDMDL
MODEL 4
REMARK VINA RESULT:     -10.0      4.340     11.552
REMARK  Name = 9933475
REMARK  8 active torsions:
REMARK  status: ('A' for Active; 'I' for Inactive)
REMARK    1  A    between atoms: C_3  and  O_13
REMARK    2  A    between atoms: C_4  and  O_11
REMARK    3  A    between atoms: C_9  and  O_23
REMARK    4  A    between atoms: O_13  and  C_14
REMARK    5  A    between atoms: C_14  and  C_15
REMARK    6  A    between atoms: C_15  and  C_16
REMARK    7  A    between atoms: C_16  and  N_17
REMARK    8  A    between atoms: O_23  and  C_31
REMARK                            x       y       z     vdW  Elec       q    Type
REMARK                         _______ _______ _______ _____ _____    ______ ____
ROOT
ATOM      1  N   UNL     1      31.961 -10.407 -18.680  0.00  0.00    -0.248 NA
ATOM      2  N   UNL     1      31.401  -8.520 -20.071  0.00  0.00    -0.214 NA
ATOM      3  C   UNL     1      32.646 -13.322 -20.778  0.00  0.00    +0.173 C 
ATOM      4  C   UNL     1      32.456 -12.808 -22.051  0.00  0.00    +0.169 C 
ATOM      5  C   UNL     1      32.479 -12.515 -19.653  0.00  0.00    +0.055 C 
ATOM      6  C   UNL     1      31.927 -10.660 -21.064  0.00  0.00    +0.141 C 
ATOM      7  C   UNL     1      32.119 -11.175 -19.772  0.00  0.00    +0.072 C 
ATOM      8  C   UNL     1      32.095 -11.473 -22.199  0.00  0.00    +0.029 C 
ATOM      9  C   UNL     1      31.567  -9.318 -21.143  0.00  0.00    +0.213 C 
ATOM     10  C   UNL     1      31.611  -9.121 -18.888  0.00  0.00    +0.253 C 
ENDROOT
BRANCH   4  11
ATOM     11  O   UNL     1      32.616 -13.589 -23.156  0.00  0.00    -0.469 OA
ATOM     12  C   UNL     1      33.572 -13.159 -24.123  0.00  0.00    +0.253 C 
ENDBRANCH   4  11
BRANCH   3  13
ATOM     13  O   UNL     1      33.001 -14.636 -20.608  0.00  0.00    -0.472 OA
BRANCH  13  14
ATOM     14  C   UNL     1      34.351 -14.895 -20.250  0.00  0.00    +0.203 C 
BRANCH  14  15
ATOM     15  C   UNL     1      34.794 -16.194 -20.908  0.00  0.00    +0.025 C 
BRANCH  15  16
ATOM     16  C   UNL     1      35.277 -15.961 -22.337  0.00  0.00    -0.074 C 
BRANCH  16  17
ATOM     17  N   UNL     1      35.341 -17.222 -23.060  0.00  0.00    +0.387 N 
ATOM     18  C   UNL     1      35.146 -18.378 -22.186  0.00  0.00    -0.077 C 
ATOM     19  C   UNL     1      34.296 -17.335 -24.078  0.00  0.00    -0.077 C 
ATOM     20  C   UNL     1      34.862 -19.505 -23.168  0.00  0.00    -0.025 C 
ATOM     21  C   UNL     1      34.307 -18.819 -24.414  0.00  0.00    -0.025 C 
ATOM     22  H   UNL     1      36.271 -17.220 -23.478  0.00  0.00    -0.080 HD
ENDBRANCH  16  17
ENDBRANCH  15  16
ENDBRANCH  14  15
ENDBRANCH  13  14
ENDBRANCH   3  13
BRANCH   9  23
ATOM     23  O   UNL     1      31.359  -8.725 -22.361  0.00  0.00    -0.437 OA
BRANCH  23  31
ATOM     24  F   UNL     1      30.980  -7.236 -24.638  0.00  0.00    -0.201 F 
ATOM     25  N   UNL     1      35.367  -5.796 -24.690  0.00  0.00    -0.316 N 
ATOM     26  C   UNL     1      33.263  -6.532 -24.602  0.00  0.00    +0.045 C 
ATOM     27  C   UNL     1      34.503  -6.585 -23.963  0.00  0.00    +0.050 C 
ATOM     28  C   UNL     1      34.716  -5.247 -25.762  0.00  0.00    +0.026 C 
ATOM     29  C   UNL     1      33.411  -5.683 -25.734  0.00  0.00    +0.014 C 
ATOM     30  C   UNL     1      32.187  -7.261 -24.056  0.00  0.00    +0.176 C 
ATOM     31  C   UNL     1      32.406  -8.006 -22.902  0.00  0.00    +0.174 C 
ATOM     32  C   UNL     1      34.724  -7.334 -22.802  0.00  0.00    +0.018 C 
ATOM     33  C   UNL     1      33.644  -8.050 -22.279  0.00  0.00    +0.041 C 
ATOM     34  C   UNL     1      35.414  -4.356 -26.707  0.00  0.00    +0.047 C 
ATOM     35  H   UNL     1      36.315  -5.647 -24.469  0.00  0.00    +0.152 HD
ENDBRANCH  23  31
ENDBRANCH   9  23
TORSDOF 8
ENDMDL
MODEL 5
REMARK VINA RESULT:     -10.0      3.925      7.757
REMARK  Name = 9933475
REMARK  8 active torsions:
REMARK  status: ('A' for Active; 'I' for Inactive)
REMARK    1  A    between atoms: C_3  and  O_13
REMARK    2  A    between atoms: C_4  and  O_11
REMARK    3  A    between atoms: C_9  and  O_23
REMARK    4  A    between atoms: O_13  and  C_14
REMARK    5  A    between atoms: C_14  and  C_15
REMARK    6  A    between atoms: C_15  and  C_16
REMARK    7  A    between atoms: C_16  and  N_17
REMARK    8  A    between atoms: O_23  and  C_31
REMARK                            x       y       z     vdW  Elec       q    Type
REMARK                         _______ _______ _______ _____ _____    ______ ____
ROOT
ATOM      1  N   UNL     1      30.909 -10.795 -20.774  0.00  0.00    -0.248 NA
ATOM      2  N   UNL     1      31.875 -12.461 -22.221  0.00  0.00    -0.214 NA
ATOM      3  C   UNL     1      32.499  -7.560 -21.387  0.00  0.00    +0.173 C 
ATOM      4  C   UNL     1      33.411  -7.874 -22.383  0.00  0.00    +0.169 C 
ATOM      5  C   UNL     1      31.664  -8.540 -20.852  0.00  0.00    +0.055 C 
ATOM      6  C   UNL     1      32.645 -10.172 -22.305  0.00  0.00    +0.141 C 
ATOM      7  C   UNL     1      31.719  -9.858 -21.297  0.00  0.00    +0.072 C 
ATOM      8  C   UNL     1      33.488  -9.184 -22.846  0.00  0.00    +0.029 C 
ATOM      9  C   UNL     1      32.672 -11.499 -22.724  0.00  0.00    +0.213 C 
ATOM     10  C   UNL     1      31.031 -12.045 -21.264  0.00  0.00    +0.253 C 
ENDROOT
BRANCH   4  11
ATOM     11  O   UNL     1      34.231  -6.924 -22.911  0.00  0.00    -0.469 OA
ATOM     12  C   UNL     1      35.412  -7.378 -23.570  0.00  0.00    +0.253 C 
ENDBRANCH   4  11
BRANCH   3  13
ATOM     13  O   UNL     1      32.407  -6.276 -20.914  0.00  0.00    -0.472 OA
BRANCH  13  14
ATOM     14  C   UNL     1      31.144  -5.637 -21.036  0.00  0.00    +0.203 C 
BRANCH  14  15
ATOM     15  C   UNL     1      31.351  -4.247 -21.622  0.00  0.00    +0.025 C 
BRANCH  15  16
ATOM     16  C   UNL     1      31.013  -4.210 -23.109  0.00  0.00    -0.074 C 
BRANCH  16  17
ATOM     17  N   UNL     1      32.075  -4.834 -23.884  0.00  0.00    +0.387 N 
ATOM     18  C   UNL     1      31.563  -5.788 -24.867  0.00  0.00    -0.077 C 
ATOM     19  C   UNL     1      32.843  -3.862 -24.662  0.00  0.00    -0.077 C 
ATOM     20  C   UNL     1      32.755  -6.002 -25.788  0.00  0.00    -0.025 C 
ATOM     21  C   UNL     1      33.599  -4.738 -25.651  0.00  0.00    -0.025 C 
ATOM     22  H   UNL     1      32.655  -5.294 -23.183  0.00  0.00    -0.080 HD
ENDBRANCH  16  17
ENDBRANCH  15  16
ENDBRANCH  14  15
ENDBRANCH  13  14
ENDBRANCH   3  13
BRANCH   9  23
ATOM     23  O   UNL     1      33.541 -11.901 -23.704  0.00  0.00    -0.437 OA
BRANCH  23  31
ATOM     24  F   UNL     1      34.910 -13.307 -21.783  0.00  0.00    -0.201 F 
ATOM     25  N   UNL     1      34.475 -17.290 -24.078  0.00  0.00    -0.316 N 
ATOM     26  C   UNL     1      34.647 -15.331 -23.025  0.00  0.00    +0.045 C 
ATOM     27  C   UNL     1      34.142 -15.957 -24.167  0.00  0.00    +0.050 C 
ATOM     28  C   UNL     1      35.170 -17.528 -22.923  0.00  0.00    +0.026 C 
ATOM     29  C   UNL     1      35.292 -16.334 -22.249  0.00  0.00    +0.014 C 
ATOM     30  C   UNL     1      34.442 -13.947 -22.865  0.00  0.00    +0.176 C 
ATOM     31  C   UNL     1      33.745 -13.258 -23.852  0.00  0.00    +0.174 C 
ATOM     32  C   UNL     1      33.441 -15.266 -25.161  0.00  0.00    +0.018 C 
ATOM     33  C   UNL     1      33.250 -13.893 -24.980  0.00  0.00    +0.041 C 
ATOM     34  C   UNL     1      35.648 -18.880 -22.580  0.00  0.00    +0.047 C 
ATOM     35  H   UNL     1      34.245 -17.974 -24.748  0.00  0.00    +0.152 HD
ENDBRANCH  23  31
ENDBRANCH   9  23
TORSDOF 8
ENDMDL
MODEL 6
REMARK VINA RESULT:      -9.7      3.648     10.916
REMARK  Name = 9933475
REMARK  8 active torsions:
REMARK  status: ('A' for Active; 'I' for Inactive)
REMARK    1  A    between atoms: C_3  and  O_13
REMARK    2  A    between atoms: C_4  and  O_11
REMARK    3  A    between atoms: C_9  and  O_23
REMARK    4  A    between atoms: O_13  and  C_14
REMARK    5  A    between atoms: C_14  and  C_15
REMARK    6  A    between atoms: C_15  and  C_16
REMARK    7  A    between atoms: C_16  and  N_17
REMARK    8  A    between atoms: O_23  and  C_31
REMARK                            x       y       z     vdW  Elec       q    Type
REMARK                         _______ _______ _______ _____ _____    ______ ____
ROOT
ATOM      1  N   UNL     1      34.142 -12.165 -24.286  0.00  0.00    -0.248 NA
ATOM      2  N   UNL     1      32.701 -10.383 -23.540  0.00  0.00    -0.214 NA
ATOM      3  C   UNL     1      34.329 -14.755 -21.712  0.00  0.00    +0.173 C 
ATOM      4  C   UNL     1      33.507 -14.236 -20.724  0.00  0.00    +0.169 C 
ATOM      5  C   UNL     1      34.539 -14.059 -22.902  0.00  0.00    +0.055 C 
ATOM      6  C   UNL     1      33.101 -12.305 -22.131  0.00  0.00    +0.141 C 
ATOM      7  C   UNL     1      33.933 -12.827 -23.135  0.00  0.00    +0.072 C 
ATOM      8  C   UNL     1      32.890 -13.007 -20.930  0.00  0.00    +0.029 C 
ATOM      9  C   UNL     1      32.514 -11.072 -22.399  0.00  0.00    +0.213 C 
ATOM     10  C   UNL     1      33.515 -10.979 -24.427  0.00  0.00    +0.253 C 
ENDROOT
BRANCH   4  11
ATOM     11  O   UNL     1      33.298 -14.908 -19.559  0.00  0.00    -0.469 OA
ATOM     12  C   UNL     1      31.980 -14.869 -19.014  0.00  0.00    +0.253 C 
ENDBRANCH   4  11
BRANCH   3  13
ATOM     13  O   UNL     1      34.950 -15.964 -21.531  0.00  0.00    -0.472 OA
BRANCH  13  14
ATOM     14  C   UNL     1      35.363 -16.655 -22.701  0.00  0.00    +0.203 C 
BRANCH  14  15
ATOM     15  C   UNL     1      35.386 -18.149 -22.408  0.00  0.00    +0.025 C 
BRANCH  15  16
ATOM     16  C   UNL     1      36.289 -18.473 -21.221  0.00  0.00    -0.074 C 
BRANCH  16  17
ATOM     17  N   UNL     1      35.573 -19.286 -20.249  0.00  0.00    +0.387 N 
ATOM     18  C   UNL     1      34.289 -19.764 -20.759  0.00  0.00    -0.077 C 
ATOM     19  C   UNL     1      36.310 -20.494 -19.881  0.00  0.00    -0.077 C 
ATOM     20  C   UNL     1      33.922 -20.867 -19.778  0.00  0.00    -0.025 C 
ATOM     21  C   UNL     1      35.249 -21.345 -19.198  0.00  0.00    -0.025 C 
ATOM     22  H   UNL     1      35.450 -18.664 -19.450  0.00  0.00    -0.080 HD
ENDBRANCH  16  17
ENDBRANCH  15  16
ENDBRANCH  14  15
ENDBRANCH  13  14
ENDBRANCH   3  13
BRANCH   9  23
ATOM     23  O   UNL     1      31.685 -10.483 -21.480  0.00  0.00    -0.437 OA
BRANCH  23  31
ATOM     24  F   UNL     1      30.376  -8.676 -23.082  0.00  0.00    -0.201 F 
ATOM     25  N   UNL     1      32.148  -5.059 -20.825  0.00  0.00    -0.316 N 
ATOM     26  C   UNL     1      31.330  -6.853 -21.868  0.00  0.00    +0.045 C 
ATOM     27  C   UNL     1      32.161  -6.436 -20.826  0.00  0.00    +0.050 C 
ATOM     28  C   UNL     1      31.339  -4.593 -21.825  0.00  0.00    +0.026 C 
ATOM     29  C   UNL     1      30.817  -5.680 -22.489  0.00  0.00    +0.014 C 
ATOM     30  C   UNL     1      31.165  -8.234 -22.092  0.00  0.00    +0.176 C 
ATOM     31  C   UNL     1      31.839  -9.128 -21.266  0.00  0.00    +0.174 C 
ATOM     32  C   UNL     1      32.840  -7.334 -19.995  0.00  0.00    +0.018 C 
ATOM     33  C   UNL     1      32.662  -8.699 -20.236  0.00  0.00    +0.041 C 
ATOM     34  C   UNL     1      31.146  -3.148 -22.044  0.00  0.00    +0.047 C 
ATOM     35  H   UNL     1      32.647  -4.492 -20.193  0.00  0.00    +0.152 HD
ENDBRANCH  23  31
ENDBRANCH   9  23
TORSDOF 8
ENDMDL
MODEL 7
REMARK VINA RESULT:      -9.5      3.957      7.655
REMARK  Name = 9933475
REMARK  8 active torsions:
REMARK  status: ('A' for Active; 'I' for Inactive)
REMARK    1  A    between atoms: C_3  and  O_13
REMARK    2  A    between atoms: C_4  and  O_11
REMARK    3  A    between atoms: C_9  and  O_23
REMARK    4  A    between atoms: O_13  and  C_14
REMARK    5  A    between atoms: C_14  and  C_15
REMARK    6  A    between atoms: C_15  and  C_16
REMARK    7  A    between atoms: C_16  and  N_17
REMARK    8  A    between atoms: O_23  and  C_31
REMARK                            x       y       z     vdW  Elec       q    Type
REMARK                         _______ _______ _______ _____ _____    ______ ____
ROOT
ATOM      1  N   UNL     1      37.653 -21.697 -15.956  0.00  0.00    -0.248 NA
ATOM      2  N   UNL     1      36.501 -23.458 -14.782  0.00  0.00    -0.214 NA
ATOM      3  C   UNL     1      35.817 -20.842 -19.001  0.00  0.00    +0.173 C 
ATOM      4  C   UNL     1      34.741 -21.714 -18.939  0.00  0.00    +0.169 C 
ATOM      5  C   UNL     1      36.789 -20.840 -18.001  0.00  0.00    +0.055 C 
ATOM      6  C   UNL     1      35.619 -22.590 -16.858  0.00  0.00    +0.141 C 
ATOM      7  C   UNL     1      36.710 -21.709 -16.915  0.00  0.00    +0.072 C 
ATOM      8  C   UNL     1      34.638 -22.593 -17.866  0.00  0.00    +0.029 C 
ATOM      9  C   UNL     1      35.575 -23.443 -15.758  0.00  0.00    +0.213 C 
ATOM     10  C   UNL     1      37.498 -22.572 -14.942  0.00  0.00    +0.253 C 
ENDROOT
BRANCH   4  11
ATOM     11  O   UNL     1      33.788 -21.724 -19.912  0.00  0.00    -0.469 OA
ATOM     12  C   UNL     1      32.809 -20.687 -19.871  0.00  0.00    +0.253 C 
ENDBRANCH   4  11
BRANCH   3  13
ATOM     13  O   UNL     1      35.940 -19.968 -20.050  0.00  0.00    -0.472 OA
BRANCH  13  14
ATOM     14  C   UNL     1      37.208 -19.353 -20.226  0.00  0.00    +0.203 C 
BRANCH  14  15
ATOM     15  C   UNL     1      37.207 -18.593 -21.546  0.00  0.00    +0.025 C 
BRANCH  15  16
ATOM     16  C   UNL     1      35.815 -18.558 -22.170  0.00  0.00    -0.074 C 
BRANCH  16  17
ATOM     17  N   UNL     1      35.644 -17.345 -22.956  0.00  0.00    +0.387 N 
ATOM     18  C   UNL     1      34.643 -17.499 -24.010  0.00  0.00    -0.077 C 
ATOM     19  C   UNL     1      35.175 -16.219 -22.148  0.00  0.00    -0.077 C 
ATOM     20  C   UNL     1      34.354 -16.063 -24.418  0.00  0.00    -0.025 C 
ATOM     21  C   UNL     1      34.707 -15.220 -23.196  0.00  0.00    -0.025 C 
ATOM     22  H   UNL     1      36.571 -17.168 -23.342  0.00  0.00    -0.080 HD
ENDBRANCH  16  17
ENDBRANCH  15  16
ENDBRANCH  14  15
ENDBRANCH  13  14
ENDBRANCH   3  13
BRANCH   9  23
ATOM     23  O   UNL     1      34.547 -24.338 -15.615  0.00  0.00    -0.437 OA
BRANCH  23  31
ATOM     24  F   UNL     1      32.370 -24.278 -17.289  0.00  0.00    -0.201 F 
ATOM     25  N   UNL     1      29.653 -22.429 -14.046  0.00  0.00    -0.316 N 
ATOM     26  C   UNL     1      31.023 -23.321 -15.563  0.00  0.00    +0.045 C 
ATOM     27  C   UNL     1      30.944 -22.862 -14.246  0.00  0.00    +0.050 C 
ATOM     28  C   UNL     1      28.915 -22.598 -15.186  0.00  0.00    +0.026 C 
ATOM     29  C   UNL     1      29.736 -23.150 -16.144  0.00  0.00    +0.014 C 
ATOM     30  C   UNL     1      32.252 -23.827 -16.031  0.00  0.00    +0.176 C 
ATOM     31  C   UNL     1      33.338 -23.847 -15.163  0.00  0.00    +0.174 C 
ATOM     32  C   UNL     1      32.036 -22.882 -13.372  0.00  0.00    +0.018 C 
ATOM     33  C   UNL     1      33.245 -23.387 -13.859  0.00  0.00    +0.041 C 
ATOM     34  C   UNL     1      27.493 -22.213 -15.243  0.00  0.00    +0.047 C 
ATOM     35  H   UNL     1      29.309 -22.052 -13.203  0.00  0.00    +0.152 HD
ENDBRANCH  23  31
ENDBRANCH   9  23
TORSDOF 8
ENDMDL
MODEL 8
REMARK VINA RESULT:      -9.5      3.140     10.067
REMARK  Name = 9933475
REMARK  8 active torsions:
REMARK  status: ('A' for Active; 'I' for Inactive)
REMARK    1  A    between atoms: C_3  and  O_13
REMARK    2  A    between atoms: C_4  and  O_11
REMARK    3  A    between atoms: C_9  and  O_23
REMARK    4  A    between atoms: O_13  and  C_14
REMARK    5  A    between atoms: C_14  and  C_15
REMARK    6  A    between atoms: C_15  and  C_16
REMARK    7  A    between atoms: C_16  and  N_17
REMARK    8  A    between atoms: O_23  and  C_31
REMARK                            x       y       z     vdW  Elec       q    Type
REMARK                         _______ _______ _______ _____ _____    ______ ____
ROOT
ATOM      1  N   UNL     1      33.710 -15.276 -25.732  0.00  0.00    -0.248 NA
ATOM      2  N   UNL     1      32.549 -13.252 -25.129  0.00  0.00    -0.214 NA
ATOM      3  C   UNL     1      35.180 -16.790 -22.746  0.00  0.00    +0.173 C 
ATOM      4  C   UNL     1      34.795 -15.899 -21.756  0.00  0.00    +0.169 C 
ATOM      5  C   UNL     1      34.814 -16.577 -24.075  0.00  0.00    +0.055 C 
ATOM      6  C   UNL     1      33.670 -14.571 -23.441  0.00  0.00    +0.141 C 
ATOM      7  C   UNL     1      34.056 -15.470 -24.448  0.00  0.00    +0.072 C 
ATOM      8  C   UNL     1      34.038 -14.784 -22.101  0.00  0.00    +0.029 C 
ATOM      9  C   UNL     1      32.914 -13.477 -23.852  0.00  0.00    +0.213 C 
ATOM     10  C   UNL     1      32.975 -14.178 -26.003  0.00  0.00    +0.253 C 
ENDROOT
BRANCH   4  11
ATOM     11  O   UNL     1      35.148 -16.098 -20.456  0.00  0.00    -0.469 OA
ATOM     12  C   UNL     1      34.531 -15.261 -19.480  0.00  0.00    +0.253 C 
ENDBRANCH   4  11
BRANCH   3  13
ATOM     13  O   UNL     1      35.928 -17.894 -22.431  0.00  0.00    -0.472 OA
BRANCH  13  14
ATOM     14  C   UNL     1      35.392 -19.158 -22.797  0.00  0.00    +0.203 C 
BRANCH  14  15
ATOM     15  C   UNL     1      34.659 -19.748 -21.600  0.00  0.00    +0.025 C 
BRANCH  15  16
ATOM     16  C   UNL     1      35.620 -20.075 -20.461  0.00  0.00    -0.074 C 
BRANCH  16  17
ATOM     17  N   UNL     1      34.904 -20.698 -19.358  0.00  0.00    +0.387 N 
ATOM     18  C   UNL     1      33.477 -20.855 -19.637  0.00  0.00    -0.077 C 
ATOM     19  C   UNL     1      35.386 -22.050 -19.073  0.00  0.00    -0.077 C 
ATOM     20  C   UNL     1      33.028 -21.844 -18.572  0.00  0.00    -0.025 C 
ATOM     21  C   UNL     1      34.283 -22.627 -18.197  0.00  0.00    -0.025 C 
ATOM     22  H   UNL     1      35.065 -20.070 -18.572  0.00  0.00    -0.080 HD
ENDBRANCH  16  17
ENDBRANCH  15  16
ENDBRANCH  14  15
ENDBRANCH  13  14
ENDBRANCH   3  13
BRANCH   9  23
ATOM     23  O   UNL     1      32.488 -12.545 -22.941  0.00  0.00    -0.437 OA
BRANCH  23  31
ATOM     24  F   UNL     1      30.719 -10.485 -22.530  0.00  0.00    -0.201 F 
ATOM     25  N   UNL     1      33.844  -7.282 -23.669  0.00  0.00    -0.316 N 
ATOM     26  C   UNL     1      32.387  -8.883 -23.131  0.00  0.00    +0.045 C 
ATOM     27  C   UNL     1      33.700  -8.646 -23.542  0.00  0.00    +0.050 C 
ATOM     28  C   UNL     1      32.672  -6.652 -23.353  0.00  0.00    +0.026 C 
ATOM     29  C   UNL     1      31.750  -7.616 -23.015  0.00  0.00    +0.014 C 
ATOM     30  C   UNL     1      31.972 -10.214 -22.925  0.00  0.00    +0.176 C 
ATOM     31  C   UNL     1      32.888 -11.238 -23.139  0.00  0.00    +0.174 C 
ATOM     32  C   UNL     1      34.623  -9.676 -23.759  0.00  0.00    +0.018 C 
ATOM     33  C   UNL     1      34.188 -10.987 -23.548  0.00  0.00    +0.041 C 
ATOM     34  C   UNL     1      32.553  -5.183 -23.406  0.00  0.00    +0.047 C 
ATOM     35  H   UNL     1      34.672  -6.827 -23.946  0.00  0.00    +0.152 HD
ENDBRANCH  23  31
ENDBRANCH   9  23
TORSDOF 8
ENDMDL
MODEL 9
REMARK VINA RESULT:      -9.3      3.046     10.266
REMARK  Name = 9933475
REMARK  8 active torsions:
REMARK  status: ('A' for Active; 'I' for Inactive)
REMARK    1  A    between atoms: C_3  and  O_13
REMARK    2  A    between atoms: C_4  and  O_11
REMARK    3  A    between atoms: C_9  and  O_23
REMARK    4  A    between atoms: O_13  and  C_14
REMARK    5  A    between atoms: C_14  and  C_15
REMARK    6  A    between atoms: C_15  and  C_16
REMARK    7  A    between atoms: C_16  and  N_17
REMARK    8  A    between atoms: O_23  and  C_31
REMARK                            x       y       z     vdW  Elec       q    Type
REMARK                         _______ _______ _______ _____ _____    ______ ____
ROOT
ATOM      1  N   UNL     1      37.835 -19.662 -20.293  0.00  0.00    -0.248 NA
ATOM      2  N   UNL     1      37.031 -18.127 -21.968  0.00  0.00    -0.214 NA
ATOM      3  C   UNL     1      35.044 -21.625 -18.981  0.00  0.00    +0.173 C 
ATOM      4  C   UNL     1      33.975 -21.121 -19.705  0.00  0.00    +0.169 C 
ATOM      5  C   UNL     1      36.333 -21.134 -19.180  0.00  0.00    +0.055 C 
ATOM      6  C   UNL     1      35.501 -19.620 -20.840  0.00  0.00    +0.141 C 
ATOM      7  C   UNL     1      36.587 -20.127 -20.109  0.00  0.00    +0.072 C 
ATOM      8  C   UNL     1      34.200 -20.115 -20.639  0.00  0.00    +0.029 C 
ATOM      9  C   UNL     1      35.794 -18.616 -21.758  0.00  0.00    +0.213 C 
ATOM     10  C   UNL     1      37.989 -18.687 -21.212  0.00  0.00    +0.253 C 
ENDROOT
BRANCH   4  11
ATOM     11  O   UNL     1      32.712 -21.595 -19.516  0.00  0.00    -0.469 OA
ATOM     12  C   UNL     1      32.221 -21.617 -18.177  0.00  0.00    +0.253 C 
ENDBRANCH   4  11
BRANCH   3  13
ATOM     13  O   UNL     1      34.846 -22.616 -18.053  0.00  0.00    -0.472 OA
BRANCH  13  14
ATOM     14  C   UNL     1      35.537 -22.487 -16.819  0.00  0.00    +0.203 C 
BRANCH  14  15
ATOM     15  C   UNL     1      34.697 -23.116 -15.717  0.00  0.00    +0.025 C 
BRANCH  15  16
ATOM     16  C   UNL     1      35.539 -23.435 -14.484  0.00  0.00    -0.074 C 
BRANCH  16  17
ATOM     17  N   UNL     1      36.542 -24.440 -14.804  0.00  0.00    +0.387 N 
ATOM     18  C   UNL     1      37.708 -24.363 -13.926  0.00  0.00    -0.077 C 
ATOM     19  C   UNL     1      36.036 -25.803 -14.645  0.00  0.00    -0.077 C 
ATOM     20  C   UNL     1      38.405 -25.693 -14.167  0.00  0.00    -0.025 C 
ATOM     21  C   UNL     1      37.307 -26.640 -14.644  0.00  0.00    -0.025 C 
ATOM     22  H   UNL     1      36.789 -24.242 -15.773  0.00  0.00    -0.080 HD
ENDBRANCH  16  17
ENDBRANCH  15  16
ENDBRANCH  14  15
ENDBRANCH  13  14
ENDBRANCH   3  13
BRANCH   9  23
ATOM     23  O   UNL     1      34.799 -18.059 -22.519  0.00  0.00    -0.437 OA
BRANCH  23  31
ATOM     24  F   UNL     1      34.144 -16.558 -24.724  0.00  0.00    -0.201 F 
ATOM     25  N   UNL     1      33.941 -12.649 -22.275  0.00  0.00    -0.316 N 
ATOM     26  C   UNL     1      34.057 -14.575 -23.394  0.00  0.00    +0.045 C 
ATOM     27  C   UNL     1      34.191 -13.996 -22.131  0.00  0.00    +0.050 C 
ATOM     28  C   UNL     1      33.654 -12.359 -23.581  0.00  0.00    +0.026 C 
ATOM     29  C   UNL     1      33.716 -13.531 -24.299  0.00  0.00    +0.014 C 
ATOM     30  C   UNL     1      34.263 -15.963 -23.529  0.00  0.00    +0.176 C 
ATOM     31  C   UNL     1      34.593 -16.699 -22.396  0.00  0.00    +0.174 C 
ATOM     32  C   UNL     1      34.524 -14.736 -20.991  0.00  0.00    +0.018 C 
ATOM     33  C   UNL     1      34.724 -16.110 -21.149  0.00  0.00    +0.041 C 
ATOM     34  C   UNL     1      33.345 -10.982 -24.010  0.00  0.00    +0.047 C 
ATOM     35  H   UNL     1      33.965 -11.991 -21.543  0.00  0.00    +0.152 HD
ENDBRANCH  23  31
ENDBRANCH   9  23
TORSDOF 8
ENDMDL
