MODEL 1
REMARK VINA RESULT:     -10.3      0.000      0.000
REMARK  Name = 6914621
REMARK  7 active torsions:
REMARK  status: ('A' for Active; 'I' for Inactive)
REMARK    1  A    between atoms: C_1  and  C_9
REMARK    2  A    between atoms: C_6  and  O_22
REMARK    3  A    between atoms: N_8  and  C_14
REMARK    4  A    between atoms: C_14  and  C_18
REMARK    5  A    between atoms: N_17  and  O_20
REMARK    6  A    between atoms: O_22  and  C_23
REMARK    7  A    between atoms: C_23  and  C_25
REMARK                            x       y       z     vdW  Elec       q    Type
REMARK                         _______ _______ _______ _____ _____    ______ ____
ROOT
ATOM      1  C   UNL     1      34.938 -22.891 -16.498  0.00  0.00    -0.014 C 
ATOM      2  C   UNL     1      36.185 -22.292 -16.649  0.00  0.00    -0.001 C 
ATOM      3  C   UNL     1      33.997 -22.829 -17.521  0.00  0.00    -0.001 C 
ATOM      4  C   UNL     1      36.494 -21.626 -17.836  0.00  0.00    +0.037 C 
ATOM      5  C   UNL     1      34.306 -22.164 -18.707  0.00  0.00    +0.037 C 
ATOM      6  C   UNL     1      35.554 -21.562 -18.865  0.00  0.00    +0.139 C 
ENDROOT
BRANCH   1   9
ATOM      7  O   UNL     1      35.499 -25.897 -15.363  0.00  0.00    -0.275 OA
ATOM      8  N   UNL     1      36.503 -24.295 -13.971  0.00  0.00    -0.273 N 
ATOM      9  C   UNL     1      34.598 -23.621 -15.194  0.00  0.00    +0.089 C 
ATOM     10  C   UNL     1      34.818 -22.711 -13.960  0.00  0.00    +0.034 C 
ATOM     11  C   UNL     1      36.277 -22.920 -13.601  0.00  0.00    +0.095 C 
ATOM     12  C   UNL     1      35.555 -24.777 -14.873  0.00  0.00    +0.229 C 
ATOM     13  C   UNL     1      33.161 -24.161 -15.237  0.00  0.00    +0.014 C 
BRANCH   8  14
ATOM     14  C   UNL     1      37.660 -25.026 -13.500  0.00  0.00    +0.154 C 
ATOM     15  C   UNL     1      38.101 -24.539 -12.128  0.00  0.00    +0.031 C 
BRANCH  14  18
ATOM     16  O   UNL     1      39.019 -23.781 -15.072  0.00  0.00    -0.271 OA
ATOM     17  N   UNL     1      39.434 -26.032 -14.773  0.00  0.00    -0.196 N 
ATOM     18  C   UNL     1      38.774 -24.853 -14.522  0.00  0.00    +0.262 C 
ATOM     19  H   UNL     1      39.204 -26.869 -14.307  0.00  0.00    +0.182 HD
BRANCH  17  20
ATOM     20  O   UNL     1      40.455 -25.971 -15.731  0.00  0.00    -0.295 OA
ATOM     21  H   UNL     1      40.599 -25.049 -15.993  0.00  0.00    +0.241 HD
ENDBRANCH  17  20
ENDBRANCH  14  18
ENDBRANCH   8  14
ENDBRANCH   1   9
BRANCH   6  22
ATOM     22  O   UNL     1      35.856 -20.914 -20.022  0.00  0.00    -0.471 OA
BRANCH  22  23
ATOM     23  C   UNL     1      35.732 -19.492 -20.022  0.00  0.00    +0.229 C 
BRANCH  23  25
ATOM     24  N   UNL     1      34.709 -18.279 -23.994  0.00  0.00    -0.410 NA
ATOM     25  C   UNL     1      35.370 -19.031 -21.403  0.00  0.00    +0.012 C 
ATOM     26  C   UNL     1      35.127 -17.684 -21.696  0.00  0.00    +0.096 C 
ATOM     27  C   UNL     1      35.284 -19.993 -22.395  0.00  0.00    +0.023 C 
ATOM     28  C   UNL     1      34.794 -17.347 -23.026  0.00  0.00    +0.116 C 
ATOM     29  C   UNL     1      34.952 -19.568 -23.665  0.00  0.00    +0.109 C 
ATOM     30  C   UNL     1      35.208 -16.686 -20.710  0.00  0.00    -0.015 C 
ATOM     31  C   UNL     1      34.552 -16.009 -23.320  0.00  0.00    +0.028 C 
ATOM     32  C   UNL     1      34.961 -15.355 -21.033  0.00  0.00    -0.004 C 
ATOM     33  C   UNL     1      34.846 -20.567 -24.769  0.00  0.00    +0.066 C 
ATOM     34  C   UNL     1      34.632 -15.017 -22.340  0.00  0.00    +0.002 C 
ENDBRANCH  23  25
ENDBRANCH  22  23
ENDBRANCH   6  22
TORSDOF 7
ENDMDL
MODEL 2
REMARK VINA RESULT:     -10.1      4.438      8.220
REMARK  Name = 6914621
REMARK  7 active torsions:
REMARK  status: ('A' for Active; 'I' for Inactive)
REMARK    1  A    between atoms: C_1  and  C_9
REMARK    2  A    between atoms: C_6  and  O_22
REMARK    3  A    between atoms: N_8  and  C_14
REMARK    4  A    between atoms: C_14  and  C_18
REMARK    5  A    between atoms: N_17  and  O_20
REMARK    6  A    between atoms: O_22  and  C_23
REMARK    7  A    between atoms: C_23  and  C_25
REMARK                            x       y       z     vdW  Elec       q    Type
REMARK                         _______ _______ _______ _____ _____    ______ ____
ROOT
ATOM      1  C   UNL     1      35.368 -17.217 -21.748  0.00  0.00    -0.014 C 
ATOM      2  C   UNL     1      35.122 -16.667 -20.494  0.00  0.00    -0.001 C 
ATOM      3  C   UNL     1      35.132 -16.477 -22.902  0.00  0.00    -0.001 C 
ATOM      4  C   UNL     1      34.633 -15.363 -20.394  0.00  0.00    +0.037 C 
ATOM      5  C   UNL     1      34.644 -15.174 -22.802  0.00  0.00    +0.037 C 
ATOM      6  C   UNL     1      34.395 -14.617 -21.548  0.00  0.00    +0.139 C 
ENDROOT
BRANCH   1   9
ATOM      7  O   UNL     1      37.137 -19.139 -19.795  0.00  0.00    -0.275 OA
ATOM      8  N   UNL     1      35.037 -20.104 -20.210  0.00  0.00    -0.273 N 
ATOM      9  C   UNL     1      35.903 -18.649 -21.858  0.00  0.00    +0.089 C 
ATOM     10  C   UNL     1      34.844 -19.605 -22.461  0.00  0.00    +0.034 C 
ATOM     11  C   UNL     1      34.049 -20.081 -21.259  0.00  0.00    +0.095 C 
ATOM     12  C   UNL     1      36.152 -19.315 -20.498  0.00  0.00    +0.229 C 
ATOM     13  C   UNL     1      37.204 -18.678 -22.672  0.00  0.00    +0.014 C 
BRANCH   8  14
ATOM     14  C   UNL     1      34.809 -20.812 -18.968  0.00  0.00    +0.154 C 
ATOM     15  C   UNL     1      36.118 -21.268 -18.343  0.00  0.00    +0.031 C 
BRANCH  14  18
ATOM     16  O   UNL     1      32.684 -21.905 -19.369  0.00  0.00    -0.271 OA
ATOM     17  N   UNL     1      34.612 -23.175 -19.360  0.00  0.00    -0.196 N 
ATOM     18  C   UNL     1      33.906 -22.000 -19.264  0.00  0.00    +0.262 C 
ATOM     19  H   UNL     1      35.592 -23.205 -19.270  0.00  0.00    +0.182 HD
BRANCH  17  20
ATOM     20  O   UNL     1      33.853 -24.329 -19.597  0.00  0.00    -0.295 OA
ATOM     21  H   UNL     1      34.400 -25.114 -19.441  0.00  0.00    +0.241 HD
ENDBRANCH  17  20
ENDBRANCH  14  18
ENDBRANCH   8  14
ENDBRANCH   1   9
BRANCH   6  22
ATOM     22  O   UNL     1      33.919 -13.346 -21.450  0.00  0.00    -0.471 OA
BRANCH  22  23
ATOM     23  C   UNL     1      32.588 -13.113 -21.908  0.00  0.00    +0.229 C 
BRANCH  23  25
ATOM     24  N   UNL     1      31.854  -8.901 -22.058  0.00  0.00    -0.410 NA
ATOM     25  C   UNL     1      32.326 -11.636 -21.923  0.00  0.00    +0.012 C 
ATOM     26  C   UNL     1      32.058 -10.917 -20.752  0.00  0.00    +0.096 C 
ATOM     27  C   UNL     1      32.358 -10.994 -23.150  0.00  0.00    +0.023 C 
ATOM     28  C   UNL     1      31.824  -9.530 -20.867  0.00  0.00    +0.116 C 
ATOM     29  C   UNL     1      32.117  -9.635 -23.162  0.00  0.00    +0.109 C 
ATOM     30  C   UNL     1      32.020 -11.541 -19.494  0.00  0.00    -0.015 C 
ATOM     31  C   UNL     1      31.558  -8.812 -19.705  0.00  0.00    +0.028 C 
ATOM     32  C   UNL     1      31.751 -10.799 -18.347  0.00  0.00    -0.004 C 
ATOM     33  C   UNL     1      32.140  -8.898 -24.460  0.00  0.00    +0.066 C 
ATOM     34  C   UNL     1      31.520  -9.433 -18.454  0.00  0.00    +0.002 C 
ENDBRANCH  23  25
ENDBRANCH  22  23
ENDBRANCH   6  22
TORSDOF 7
ENDMDL
MODEL 3
REMARK VINA RESULT:     -10.0      4.412      8.263
REMARK  Name = 6914621
REMARK  7 active torsions:
REMARK  status: ('A' for Active; 'I' for Inactive)
REMARK    1  A    between atoms: C_1  and  C_9
REMARK    2  A    between atoms: C_6  and  O_22
REMARK    3  A    between atoms: N_8  and  C_14
REMARK    4  A    between atoms: C_14  and  C_18
REMARK    5  A    between atoms: N_17  and  O_20
REMARK    6  A    between atoms: O_22  and  C_23
REMARK    7  A    between atoms: C_23  and  C_25
REMARK                            x       y       z     vdW  Elec       q    Type
REMARK                         _______ _______ _______ _____ _____    ______ ____
ROOT
ATOM      1  C   UNL     1      35.432 -17.289 -21.831  0.00  0.00    -0.014 C 
ATOM      2  C   UNL     1      35.080 -16.729 -20.607  0.00  0.00    -0.001 C 
ATOM      3  C   UNL     1      35.303 -16.554 -23.006  0.00  0.00    -0.001 C 
ATOM      4  C   UNL     1      34.594 -15.422 -20.557  0.00  0.00    +0.037 C 
ATOM      5  C   UNL     1      34.818 -15.248 -22.956  0.00  0.00    +0.037 C 
ATOM      6  C   UNL     1      34.463 -14.681 -21.732  0.00  0.00    +0.139 C 
ENDROOT
BRANCH   1   9
ATOM      7  O   UNL     1      37.177 -19.146 -19.795  0.00  0.00    -0.275 OA
ATOM      8  N   UNL     1      35.079 -20.120 -20.197  0.00  0.00    -0.273 N 
ATOM      9  C   UNL     1      35.964 -18.725 -21.886  0.00  0.00    +0.089 C 
ATOM     10  C   UNL     1      34.909 -19.700 -22.465  0.00  0.00    +0.034 C 
ATOM     11  C   UNL     1      34.101 -20.132 -21.256  0.00  0.00    +0.095 C 
ATOM     12  C   UNL     1      36.198 -19.344 -20.501  0.00  0.00    +0.229 C 
ATOM     13  C   UNL     1      37.274 -18.785 -22.685  0.00  0.00    +0.014 C 
BRANCH   8  14
ATOM     14  C   UNL     1      34.837 -20.783 -18.934  0.00  0.00    +0.154 C 
ATOM     15  C   UNL     1      36.137 -21.239 -18.290  0.00  0.00    +0.031 C 
BRANCH  14  18
ATOM     16  O   UNL     1      32.699 -21.852 -19.332  0.00  0.00    -0.271 OA
ATOM     17  N   UNL     1      34.599 -23.159 -19.217  0.00  0.00    -0.196 N 
ATOM     18  C   UNL     1      33.916 -21.966 -19.194  0.00  0.00    +0.262 C 
ATOM     19  H   UNL     1      35.576 -23.203 -19.102  0.00  0.00    +0.182 HD
BRANCH  17  20
ATOM     20  O   UNL     1      33.822 -24.307 -19.416  0.00  0.00    -0.295 OA
ATOM     21  H   UNL     1      33.012 -24.246 -18.886  0.00  0.00    +0.241 HD
ENDBRANCH  17  20
ENDBRANCH  14  18
ENDBRANCH   8  14
ENDBRANCH   1   9
BRANCH   6  22
ATOM     22  O   UNL     1      33.990 -13.406 -21.683  0.00  0.00    -0.471 OA
BRANCH  22  23
ATOM     23  C   UNL     1      32.576 -13.241 -21.602  0.00  0.00    +0.229 C 
BRANCH  23  25
ATOM     24  N   UNL     1      31.701  -9.440 -19.845  0.00  0.00    -0.410 NA
ATOM     25  C   UNL     1      32.272 -11.892 -21.021  0.00  0.00    +0.012 C 
ATOM     26  C   UNL     1      32.202 -10.740 -21.812  0.00  0.00    +0.096 C 
ATOM     27  C   UNL     1      32.058 -11.820 -19.654  0.00  0.00    +0.023 C 
ATOM     28  C   UNL     1      31.910  -9.516 -21.173  0.00  0.00    +0.116 C 
ATOM     29  C   UNL     1      31.778 -10.578 -19.120  0.00  0.00    +0.109 C 
ATOM     30  C   UNL     1      32.414 -10.783 -23.201  0.00  0.00    -0.015 C 
ATOM     31  C   UNL     1      31.840  -8.369 -21.958  0.00  0.00    +0.028 C 
ATOM     32  C   UNL     1      32.338  -9.620 -23.961  0.00  0.00    -0.004 C 
ATOM     33  C   UNL     1      31.540 -10.448 -17.652  0.00  0.00    +0.066 C 
ATOM     34  C   UNL     1      32.051  -8.411 -23.339  0.00  0.00    +0.002 C 
ENDBRANCH  23  25
ENDBRANCH  22  23
ENDBRANCH   6  22
TORSDOF 7
ENDMDL
MODEL 4
REMARK VINA RESULT:      -9.7      1.173      1.559
REMARK  Name = 6914621
REMARK  7 active torsions:
REMARK  status: ('A' for Active; 'I' for Inactive)
REMARK    1  A    between atoms: C_1  and  C_9
REMARK    2  A    between atoms: C_6  and  O_22
REMARK    3  A    between atoms: N_8  and  C_14
REMARK    4  A    between atoms: C_14  and  C_18
REMARK    5  A    between atoms: N_17  and  O_20
REMARK    6  A    between atoms: O_22  and  C_23
REMARK    7  A    between atoms: C_23  and  C_25
REMARK                            x       y       z     vdW  Elec       q    Type
REMARK                         _______ _______ _______ _____ _____    ______ ____
ROOT
ATOM      1  C   UNL     1      35.198 -22.748 -16.574  0.00  0.00    -0.014 C 
ATOM      2  C   UNL     1      36.379 -22.094 -16.911  0.00  0.00    -0.001 C 
ATOM      3  C   UNL     1      34.132 -22.783 -17.467  0.00  0.00    -0.001 C 
ATOM      4  C   UNL     1      36.494 -21.469 -18.153  0.00  0.00    +0.037 C 
ATOM      5  C   UNL     1      34.246 -22.159 -18.708  0.00  0.00    +0.037 C 
ATOM      6  C   UNL     1      35.428 -21.502 -19.052  0.00  0.00    +0.139 C 
ENDROOT
BRANCH   1   9
ATOM      7  O   UNL     1      36.028 -25.682 -15.417  0.00  0.00    -0.275 OA
ATOM      8  N   UNL     1      37.152 -23.990 -14.240  0.00  0.00    -0.273 N 
ATOM      9  C   UNL     1      35.071 -23.433 -15.209  0.00  0.00    +0.089 C 
ATOM     10  C   UNL     1      35.423 -22.465 -14.052  0.00  0.00    +0.034 C 
ATOM     11  C   UNL     1      36.926 -22.609 -13.894  0.00  0.00    +0.095 C 
ATOM     12  C   UNL     1      36.107 -24.542 -14.982  0.00  0.00    +0.229 C 
ATOM     13  C   UNL     1      33.664 -24.023 -15.030  0.00  0.00    +0.014 C 
BRANCH   8  14
ATOM     14  C   UNL     1      38.391 -24.661 -13.908  0.00  0.00    +0.154 C 
ATOM     15  C   UNL     1      39.202 -24.973 -15.156  0.00  0.00    +0.031 C 
BRANCH  14  18
ATOM     16  O   UNL     1      38.297 -27.060 -13.581  0.00  0.00    -0.271 OA
ATOM     17  N   UNL     1      37.401 -25.675 -11.966  0.00  0.00    -0.196 N 
ATOM     18  C   UNL     1      38.047 -25.935 -13.151  0.00  0.00    +0.262 C 
ATOM     19  H   UNL     1      37.222 -24.756 -11.660  0.00  0.00    +0.182 HD
BRANCH  17  20
ATOM     20  O   UNL     1      37.015 -26.795 -11.219  0.00  0.00    -0.295 OA
ATOM     21  H   UNL     1      36.148 -26.632 -10.816  0.00  0.00    +0.241 HD
ENDBRANCH  17  20
ENDBRANCH  14  18
ENDBRANCH   8  14
ENDBRANCH   1   9
BRANCH   6  22
ATOM     22  O   UNL     1      35.541 -20.893 -20.264  0.00  0.00    -0.471 OA
BRANCH  22  23
ATOM     23  C   UNL     1      35.639 -19.470 -20.269  0.00  0.00    +0.229 C 
BRANCH  23  25
ATOM     24  N   UNL     1      34.594 -18.111 -24.189  0.00  0.00    -0.410 NA
ATOM     25  C   UNL     1      35.271 -18.958 -21.630  0.00  0.00    +0.012 C 
ATOM     26  C   UNL     1      35.061 -17.597 -21.880  0.00  0.00    +0.096 C 
ATOM     27  C   UNL     1      35.145 -19.888 -22.649  0.00  0.00    +0.023 C 
ATOM     28  C   UNL     1      34.719 -17.212 -23.194  0.00  0.00    +0.116 C 
ATOM     29  C   UNL     1      34.807 -19.415 -23.901  0.00  0.00    +0.109 C 
ATOM     30  C   UNL     1      35.183 -16.632 -20.866  0.00  0.00    -0.015 C 
ATOM     31  C   UNL     1      34.509 -15.859 -23.446  0.00  0.00    +0.028 C 
ATOM     32  C   UNL     1      34.968 -15.285 -21.146  0.00  0.00    -0.004 C 
ATOM     33  C   UNL     1      34.658 -20.378 -25.033  0.00  0.00    +0.066 C 
ATOM     34  C   UNL     1      34.630 -14.899 -22.437  0.00  0.00    +0.002 C 
ENDBRANCH  23  25
ENDBRANCH  22  23
ENDBRANCH   6  22
TORSDOF 7
ENDMDL
MODEL 5
REMARK VINA RESULT:      -9.4      8.522     15.019
REMARK  Name = 6914621
REMARK  7 active torsions:
REMARK  status: ('A' for Active; 'I' for Inactive)
REMARK    1  A    between atoms: C_1  and  C_9
REMARK    2  A    between atoms: C_6  and  O_22
REMARK    3  A    between atoms: N_8  and  C_14
REMARK    4  A    between atoms: C_14  and  C_18
REMARK    5  A    between atoms: N_17  and  O_20
REMARK    6  A    between atoms: O_22  and  C_23
REMARK    7  A    between atoms: C_23  and  C_25
REMARK                            x       y       z     vdW  Elec       q    Type
REMARK                         _______ _______ _______ _____ _____    ______ ____
ROOT
ATOM      1  C   UNL     1      32.351  -8.518 -21.196  0.00  0.00    -0.014 C 
ATOM      2  C   UNL     1      32.716  -9.084 -22.413  0.00  0.00    -0.001 C 
ATOM      3  C   UNL     1      31.858  -9.314 -20.168  0.00  0.00    -0.001 C 
ATOM      4  C   UNL     1      32.586 -10.460 -22.604  0.00  0.00    +0.037 C 
ATOM      5  C   UNL     1      31.728 -10.690 -20.357  0.00  0.00    +0.037 C 
ATOM      6  C   UNL     1      32.093 -11.263 -21.576  0.00  0.00    +0.139 C 
ENDROOT
BRANCH   1   9
ATOM      7  O   UNL     1      34.265  -6.214 -22.486  0.00  0.00    -0.275 OA
ATOM      8  N   UNL     1      32.008  -5.742 -22.924  0.00  0.00    -0.273 N 
ATOM      9  C   UNL     1      32.491  -7.006 -20.988  0.00  0.00    +0.089 C 
ATOM     10  C   UNL     1      31.109  -6.318 -20.872  0.00  0.00    +0.034 C 
ATOM     11  C   UNL     1      30.731  -6.003 -22.307  0.00  0.00    +0.095 C 
ATOM     12  C   UNL     1      33.077  -6.273 -22.202  0.00  0.00    +0.229 C 
ATOM     13  C   UNL     1      33.364  -6.710 -19.760  0.00  0.00    +0.014 C 
BRANCH   8  14
ATOM     14  C   UNL     1      32.109  -5.075 -24.205  0.00  0.00    +0.154 C 
ATOM     15  C   UNL     1      30.734  -4.766 -24.777  0.00  0.00    +0.031 C 
BRANCH  14  18
ATOM     16  O   UNL     1      32.515  -7.097 -25.477  0.00  0.00    -0.271 OA
ATOM     17  N   UNL     1      34.086  -5.407 -25.532  0.00  0.00    -0.196 N 
ATOM     18  C   UNL     1      32.897  -5.978 -25.143  0.00  0.00    +0.262 C 
ATOM     19  H   UNL     1      34.353  -4.505 -25.239  0.00  0.00    +0.182 HD
BRANCH  17  20
ATOM     20  O   UNL     1      34.894  -6.185 -26.370  0.00  0.00    -0.295 OA
ATOM     21  H   UNL     1      34.892  -5.808 -27.264  0.00  0.00    +0.241 HD
ENDBRANCH  17  20
ENDBRANCH  14  18
ENDBRANCH   8  14
ENDBRANCH   1   9
BRANCH   6  22
ATOM     22  O   UNL     1      31.967 -12.605 -21.761  0.00  0.00    -0.471 OA
BRANCH  22  23
ATOM     23  C   UNL     1      33.059 -13.424 -21.344  0.00  0.00    +0.229 C 
BRANCH  23  25
ATOM     24  N   UNL     1      34.225 -15.835 -24.680  0.00  0.00    -0.410 NA
ATOM     25  C   UNL     1      33.486 -14.293 -22.490  0.00  0.00    +0.012 C 
ATOM     26  C   UNL     1      34.246 -15.452 -22.300  0.00  0.00    +0.096 C 
ATOM     27  C   UNL     1      33.098 -13.907 -23.763  0.00  0.00    +0.023 C 
ATOM     28  C   UNL     1      34.599 -16.205 -23.440  0.00  0.00    +0.116 C 
ATOM     29  C   UNL     1      33.491 -14.708 -24.816  0.00  0.00    +0.109 C 
ATOM     30  C   UNL     1      34.654 -15.868 -21.021  0.00  0.00    -0.015 C 
ATOM     31  C   UNL     1      35.355 -17.359 -23.254  0.00  0.00    +0.028 C 
ATOM     32  C   UNL     1      35.409 -17.026 -20.864  0.00  0.00    -0.004 C 
ATOM     33  C   UNL     1      33.098 -14.335 -26.207  0.00  0.00    +0.066 C 
ATOM     34  C   UNL     1      35.761 -17.772 -21.983  0.00  0.00    +0.002 C 
ENDBRANCH  23  25
ENDBRANCH  22  23
ENDBRANCH   6  22
TORSDOF 7
ENDMDL
MODEL 6
REMARK VINA RESULT:      -9.4      7.750     13.531
REMARK  Name = 6914621
REMARK  7 active torsions:
REMARK  status: ('A' for Active; 'I' for Inactive)
REMARK    1  A    between atoms: C_1  and  C_9
REMARK    2  A    between atoms: C_6  and  O_22
REMARK    3  A    between atoms: N_8  and  C_14
REMARK    4  A    between atoms: C_14  and  C_18
REMARK    5  A    between atoms: N_17  and  O_20
REMARK    6  A    between atoms: O_22  and  C_23
REMARK    7  A    between atoms: C_23  and  C_25
REMARK                            x       y       z     vdW  Elec       q    Type
REMARK                         _______ _______ _______ _____ _____    ______ ____
ROOT
ATOM      1  C   UNL     1      31.983  -9.903 -20.802  0.00  0.00    -0.014 C 
ATOM      2  C   UNL     1      32.262 -10.551 -22.001  0.00  0.00    -0.001 C 
ATOM      3  C   UNL     1      31.972 -10.610 -19.603  0.00  0.00    -0.001 C 
ATOM      4  C   UNL     1      32.533 -11.920 -22.001  0.00  0.00    +0.037 C 
ATOM      5  C   UNL     1      32.243 -11.978 -19.604  0.00  0.00    +0.037 C 
ATOM      6  C   UNL     1      32.524 -12.633 -20.803  0.00  0.00    +0.139 C 
ENDROOT
BRANCH   1   9
ATOM      7  O   UNL     1      33.778  -7.228 -20.296  0.00  0.00    -0.275 OA
ATOM      8  N   UNL     1      32.868  -7.206 -22.460  0.00  0.00    -0.273 N 
ATOM      9  C   UNL     1      31.683  -8.400 -20.801  0.00  0.00    +0.089 C 
ATOM     10  C   UNL     1      30.753  -8.006 -21.975  0.00  0.00    +0.034 C 
ATOM     11  C   UNL     1      31.704  -7.734 -23.126  0.00  0.00    +0.095 C 
ATOM     12  C   UNL     1      32.912  -7.532 -21.104  0.00  0.00    +0.229 C 
ATOM     13  C   UNL     1      31.089  -7.969 -19.453  0.00  0.00    +0.014 C 
BRANCH   8  14
ATOM     14  C   UNL     1      33.901  -6.498 -23.186  0.00  0.00    +0.154 C 
ATOM     15  C   UNL     1      33.465  -6.192 -24.611  0.00  0.00    +0.031 C 
BRANCH  14  18
ATOM     16  O   UNL     1      36.251  -6.943 -22.798  0.00  0.00    -0.271 OA
ATOM     17  N   UNL     1      34.923  -8.620 -23.666  0.00  0.00    -0.196 N 
ATOM     18  C   UNL     1      35.156  -7.358 -23.175  0.00  0.00    +0.262 C 
ATOM     19  H   UNL     1      34.028  -8.910 -23.958  0.00  0.00    +0.182 HD
BRANCH  17  20
ATOM     20  O   UNL     1      36.034  -9.470 -23.726  0.00  0.00    -0.295 OA
ATOM     21  H   UNL     1      36.842  -8.960 -23.560  0.00  0.00    +0.241 HD
ENDBRANCH  17  20
ENDBRANCH  14  18
ENDBRANCH   8  14
ENDBRANCH   1   9
BRANCH   6  22
ATOM     22  O   UNL     1      32.789 -13.968 -20.803  0.00  0.00    -0.471 OA
BRANCH  22  23
ATOM     23  C   UNL     1      34.146 -14.361 -21.006  0.00  0.00    +0.229 C 
BRANCH  23  25
ATOM     24  N   UNL     1      34.362 -16.587 -24.653  0.00  0.00    -0.410 NA
ATOM     25  C   UNL     1      34.238 -15.170 -22.266  0.00  0.00    +0.012 C 
ATOM     26  C   UNL     1      34.787 -16.457 -22.284  0.00  0.00    +0.096 C 
ATOM     27  C   UNL     1      33.755 -14.595 -23.431  0.00  0.00    +0.023 C 
ATOM     28  C   UNL     1      34.830 -17.140 -23.519  0.00  0.00    +0.116 C 
ATOM     29  C   UNL     1      33.840 -15.341 -24.589  0.00  0.00    +0.109 C 
ATOM     30  C   UNL     1      35.285 -17.065 -21.119  0.00  0.00    -0.015 C 
ATOM     31  C   UNL     1      35.376 -18.420 -23.539  0.00  0.00    +0.028 C 
ATOM     32  C   UNL     1      35.825 -18.347 -21.169  0.00  0.00    -0.004 C 
ATOM     33  C   UNL     1      33.333 -14.766 -25.870  0.00  0.00    +0.066 C 
ATOM     34  C   UNL     1      35.871 -19.024 -22.380  0.00  0.00    +0.002 C 
ENDBRANCH  23  25
ENDBRANCH  22  23
ENDBRANCH   6  22
TORSDOF 7
ENDMDL
MODEL 7
REMARK VINA RESULT:      -9.3      8.262     15.161
REMARK  Name = 6914621
REMARK  7 active torsions:
REMARK  status: ('A' for Active; 'I' for Inactive)
REMARK    1  A    between atoms: C_1  and  C_9
REMARK    2  A    between atoms: C_6  and  O_22
REMARK    3  A    between atoms: N_8  and  C_14
REMARK    4  A    between atoms: C_14  and  C_18
REMARK    5  A    between atoms: N_17  and  O_20
REMARK    6  A    between atoms: O_22  and  C_23
REMARK    7  A    between atoms: C_23  and  C_25
REMARK                            x       y       z     vdW  Elec       q    Type
REMARK                         _______ _______ _______ _____ _____    ______ ____
ROOT
ATOM      1  C   UNL     1      32.124  -8.988 -21.726  0.00  0.00    -0.014 C 
ATOM      2  C   UNL     1      31.633  -9.624 -20.591  0.00  0.00    -0.001 C 
ATOM      3  C   UNL     1      32.679  -9.728 -22.766  0.00  0.00    -0.001 C 
ATOM      4  C   UNL     1      31.699 -11.015 -20.494  0.00  0.00    +0.037 C 
ATOM      5  C   UNL     1      32.745 -11.117 -22.669  0.00  0.00    +0.037 C 
ATOM      6  C   UNL     1      32.254 -11.761 -21.533  0.00  0.00    +0.139 C 
ENDROOT
BRANCH   1   9
ATOM      7  O   UNL     1      34.319  -6.647 -22.310  0.00  0.00    -0.275 OA
ATOM      8  N   UNL     1      32.654  -6.639 -23.965  0.00  0.00    -0.273 N 
ATOM      9  C   UNL     1      32.054  -7.460 -21.832  0.00  0.00    +0.089 C 
ATOM     10  C   UNL     1      30.805  -7.003 -22.624  0.00  0.00    +0.034 C 
ATOM     11  C   UNL     1      31.262  -7.001 -24.071  0.00  0.00    +0.095 C 
ATOM     12  C   UNL     1      33.175  -6.855 -22.689  0.00  0.00    +0.229 C 
ATOM     13  C   UNL     1      32.094  -6.820 -20.437  0.00  0.00    +0.014 C 
BRANCH   8  14
ATOM     14  C   UNL     1      33.409  -6.190 -25.115  0.00  0.00    +0.154 C 
ATOM     15  C   UNL     1      34.901  -6.155 -24.817  0.00  0.00    +0.031 C 
BRANCH  14  18
ATOM     16  O   UNL     1      32.799  -3.882 -24.702  0.00  0.00    -0.271 OA
ATOM     17  N   UNL     1      32.540  -4.744 -26.827  0.00  0.00    -0.196 N 
ATOM     18  C   UNL     1      32.900  -4.810 -25.502  0.00  0.00    +0.262 C 
ATOM     19  H   UNL     1      32.638  -5.514 -27.434  0.00  0.00    +0.182 HD
BRANCH  17  20
ATOM     20  O   UNL     1      32.025  -3.516 -27.263  0.00  0.00    -0.295 OA
ATOM     21  H   UNL     1      32.736  -2.990 -27.661  0.00  0.00    +0.241 HD
ENDBRANCH  17  20
ENDBRANCH  14  18
ENDBRANCH   8  14
ENDBRANCH   1   9
BRANCH   6  22
ATOM     22  O   UNL     1      32.316 -13.118 -21.439  0.00  0.00    -0.471 OA
BRANCH  22  23
ATOM     23  C   UNL     1      33.613 -13.702 -21.331  0.00  0.00    +0.229 C 
BRANCH  23  25
ATOM     24  N   UNL     1      34.241 -16.168 -24.770  0.00  0.00    -0.410 NA
ATOM     25  C   UNL     1      33.851 -14.592 -22.515  0.00  0.00    +0.012 C 
ATOM     26  C   UNL     1      34.506 -15.823 -22.399  0.00  0.00    +0.096 C 
ATOM     27  C   UNL     1      33.395 -14.151 -23.746  0.00  0.00    +0.023 C 
ATOM     28  C   UNL     1      34.682 -16.591 -23.570  0.00  0.00    +0.116 C 
ATOM     29  C   UNL     1      33.614 -14.971 -24.835  0.00  0.00    +0.109 C 
ATOM     30  C   UNL     1      34.979 -16.296 -21.163  0.00  0.00    -0.015 C 
ATOM     31  C   UNL     1      35.333 -17.816 -23.458  0.00  0.00    +0.028 C 
ATOM     32  C   UNL     1      35.626 -17.525 -21.080  0.00  0.00    -0.004 C 
ATOM     33  C   UNL     1      33.141 -14.541 -26.184  0.00  0.00    +0.066 C 
ATOM     34  C   UNL     1      35.804 -18.286 -22.229  0.00  0.00    +0.002 C 
ENDBRANCH  23  25
ENDBRANCH  22  23
ENDBRANCH   6  22
TORSDOF 7
ENDMDL
MODEL 8
REMARK VINA RESULT:      -9.0      1.110      2.590
REMARK  Name = 6914621
REMARK  7 active torsions:
REMARK  status: ('A' for Active; 'I' for Inactive)
REMARK    1  A    between atoms: C_1  and  C_9
REMARK    2  A    between atoms: C_6  and  O_22
REMARK    3  A    between atoms: N_8  and  C_14
REMARK    4  A    between atoms: C_14  and  C_18
REMARK    5  A    between atoms: N_17  and  O_20
REMARK    6  A    between atoms: O_22  and  C_23
REMARK    7  A    between atoms: C_23  and  C_25
REMARK                            x       y       z     vdW  Elec       q    Type
REMARK                         _______ _______ _______ _____ _____    ______ ____
ROOT
ATOM      1  C   UNL     1      35.116 -22.689 -16.562  0.00  0.00    -0.014 C 
ATOM      2  C   UNL     1      34.071 -22.739 -17.479  0.00  0.00    -0.001 C 
ATOM      3  C   UNL     1      36.297 -22.023 -16.874  0.00  0.00    -0.001 C 
ATOM      4  C   UNL     1      34.209 -22.118 -18.721  0.00  0.00    +0.037 C 
ATOM      5  C   UNL     1      36.435 -21.402 -18.115  0.00  0.00    +0.037 C 
ATOM      6  C   UNL     1      35.391 -21.449 -19.038  0.00  0.00    +0.139 C 
ENDROOT
BRANCH   1   9
ATOM      7  O   UNL     1      34.985 -25.796 -15.581  0.00  0.00    -0.275 OA
ATOM      8  N   UNL     1      36.824 -24.708 -14.608  0.00  0.00    -0.273 N 
ATOM      9  C   UNL     1      34.966 -23.373 -15.199  0.00  0.00    +0.089 C 
ATOM     10  C   UNL     1      35.828 -22.678 -14.116  0.00  0.00    +0.034 C 
ATOM     11  C   UNL     1      37.178 -23.364 -14.221  0.00  0.00    +0.095 C 
ATOM     12  C   UNL     1      35.545 -24.793 -15.160  0.00  0.00    +0.229 C 
ATOM     13  C   UNL     1      33.489 -23.426 -14.782  0.00  0.00    +0.014 C 
BRANCH   8  14
ATOM     14  C   UNL     1      37.766 -25.801 -14.499  0.00  0.00    +0.154 C 
ATOM     15  C   UNL     1      37.225 -26.911 -13.611  0.00  0.00    +0.031 C 
BRANCH  14  18
ATOM     16  O   UNL     1      39.197 -24.880 -12.775  0.00  0.00    -0.271 OA
ATOM     17  N   UNL     1      40.051 -25.171 -14.899  0.00  0.00    -0.196 N 
ATOM     18  C   UNL     1      39.068 -25.245 -13.941  0.00  0.00    +0.262 C 
ATOM     19  H   UNL     1      39.903 -25.477 -15.824  0.00  0.00    +0.182 HD
BRANCH  17  20
ATOM     20  O   UNL     1      41.276 -24.637 -14.481  0.00  0.00    -0.295 OA
ATOM     21  H   UNL     1      41.763 -24.300 -15.249  0.00  0.00    +0.241 HD
ENDBRANCH  17  20
ENDBRANCH  14  18
ENDBRANCH   8  14
ENDBRANCH   1   9
BRANCH   6  22
ATOM     22  O   UNL     1      35.525 -20.842 -20.249  0.00  0.00    -0.471 OA
BRANCH  22  23
ATOM     23  C   UNL     1      36.411 -19.726 -20.322  0.00  0.00    +0.229 C 
BRANCH  23  25
ATOM     24  N   UNL     1      34.535 -16.513 -22.433  0.00  0.00    -0.410 NA
ATOM     25  C   UNL     1      35.749 -18.622 -21.092  0.00  0.00    +0.012 C 
ATOM     26  C   UNL     1      35.256 -18.813 -22.388  0.00  0.00    +0.096 C 
ATOM     27  C   UNL     1      35.636 -17.389 -20.471  0.00  0.00    +0.023 C 
ATOM     28  C   UNL     1      34.648 -17.714 -23.031  0.00  0.00    +0.116 C 
ATOM     29  C   UNL     1      35.025 -16.375 -21.180  0.00  0.00    +0.109 C 
ATOM     30  C   UNL     1      35.356 -20.052 -23.042  0.00  0.00    -0.015 C 
ATOM     31  C   UNL     1      34.157 -17.900 -24.321  0.00  0.00    +0.028 C 
ATOM     32  C   UNL     1      34.856 -20.210 -24.331  0.00  0.00    -0.004 C 
ATOM     33  C   UNL     1      34.880 -15.027 -20.555  0.00  0.00    +0.066 C 
ATOM     34  C   UNL     1      34.257 -19.133 -24.971  0.00  0.00    +0.002 C 
ENDBRANCH  23  25
ENDBRANCH  22  23
ENDBRANCH   6  22
TORSDOF 7
ENDMDL
MODEL 9
REMARK VINA RESULT:      -8.9      8.867     15.707
REMARK  Name = 6914621
REMARK  7 active torsions:
REMARK  status: ('A' for Active; 'I' for Inactive)
REMARK    1  A    between atoms: C_1  and  C_9
REMARK    2  A    between atoms: C_6  and  O_22
REMARK    3  A    between atoms: N_8  and  C_14
REMARK    4  A    between atoms: C_14  and  C_18
REMARK    5  A    between atoms: N_17  and  O_20
REMARK    6  A    between atoms: O_22  and  C_23
REMARK    7  A    between atoms: C_23  and  C_25
REMARK                            x       y       z     vdW  Elec       q    Type
REMARK                         _______ _______ _______ _____ _____    ______ ____
ROOT
ATOM      1  C   UNL     1      33.998  -8.600 -23.423  0.00  0.00    -0.014 C 
ATOM      2  C   UNL     1      35.151  -9.351 -23.625  0.00  0.00    -0.001 C 
ATOM      3  C   UNL     1      32.742  -9.168 -23.615  0.00  0.00    -0.001 C 
ATOM      4  C   UNL     1      35.047 -10.685 -24.023  0.00  0.00    +0.037 C 
ATOM      5  C   UNL     1      32.639 -10.501 -24.013  0.00  0.00    +0.037 C 
ATOM      6  C   UNL     1      33.791 -11.260 -24.216  0.00  0.00    +0.139 C 
ENDROOT
BRANCH   1   9
ATOM      7  O   UNL     1      33.299  -5.747 -24.840  0.00  0.00    -0.275 OA
ATOM      8  N   UNL     1      32.030  -6.022 -22.885  0.00  0.00    -0.273 N 
ATOM      9  C   UNL     1      34.111  -7.135 -22.987  0.00  0.00    +0.089 C 
ATOM     10  C   UNL     1      33.655  -6.941 -21.520  0.00  0.00    +0.034 C 
ATOM     11  C   UNL     1      32.159  -6.710 -21.625  0.00  0.00    +0.095 C 
ATOM     12  C   UNL     1      33.134  -6.202 -23.717  0.00  0.00    +0.229 C 
ATOM     13  C   UNL     1      35.542  -6.619 -23.197  0.00  0.00    +0.014 C 
BRANCH   8  14
ATOM     14  C   UNL     1      30.821  -5.308 -23.238  0.00  0.00    +0.154 C 
ATOM     15  C   UNL     1      30.905  -4.741 -24.647  0.00  0.00    +0.031 C 
BRANCH  14  18
ATOM     16  O   UNL     1      29.732  -4.228 -21.363  0.00  0.00    -0.271 OA
ATOM     17  N   UNL     1      31.502  -3.163 -22.394  0.00  0.00    -0.196 N 
ATOM     18  C   UNL     1      30.615  -4.199 -22.218  0.00  0.00    +0.262 C 
ATOM     19  H   UNL     1      32.195  -3.182 -23.093  0.00  0.00    +0.182 HD
BRANCH  17  20
ATOM     20  O   UNL     1      31.360  -2.079 -21.518  0.00  0.00    -0.295 OA
ATOM     21  H   UNL     1      30.484  -2.110 -21.102  0.00  0.00    +0.241 HD
ENDBRANCH  17  20
ENDBRANCH  14  18
ENDBRANCH   8  14
ENDBRANCH   1   9
BRANCH   6  22
ATOM     22  O   UNL     1      33.690 -12.560 -24.604  0.00  0.00    -0.471 OA
BRANCH  22  23
ATOM     23  C   UNL     1      32.634 -13.329 -24.029  0.00  0.00    +0.229 C 
BRANCH  23  25
ATOM     24  N   UNL     1      33.665 -14.367 -20.009  0.00  0.00    -0.410 NA
ATOM     25  C   UNL     1      33.016 -13.722 -22.633  0.00  0.00    +0.012 C 
ATOM     26  C   UNL     1      33.861 -14.807 -22.371  0.00  0.00    +0.096 C 
ATOM     27  C   UNL     1      32.501 -12.965 -21.593  0.00  0.00    +0.023 C 
ATOM     28  C   UNL     1      34.164 -15.098 -21.024  0.00  0.00    +0.116 C 
ATOM     29  C   UNL     1      32.853 -13.327 -20.309  0.00  0.00    +0.109 C 
ATOM     30  C   UNL     1      34.399 -15.591 -23.406  0.00  0.00    -0.015 C 
ATOM     31  C   UNL     1      35.004 -16.177 -20.761  0.00  0.00    +0.028 C 
ATOM     32  C   UNL     1      35.236 -16.664 -23.113  0.00  0.00    -0.004 C 
ATOM     33  C   UNL     1      32.323 -12.544 -19.154  0.00  0.00    +0.066 C 
ATOM     34  C   UNL     1      35.538 -16.957 -21.789  0.00  0.00    +0.002 C 
ENDBRANCH  23  25
ENDBRANCH  22  23
ENDBRANCH   6  22
TORSDOF 7
ENDMDL
