MODEL 1
REMARK VINA RESULT:     -11.5      0.000      0.000
REMARK  Name = 2765355
REMARK  2 active torsions:
REMARK  status: ('A' for Active; 'I' for Inactive)
REMARK    1  A    between atoms: C_4  and  C_20
REMARK    2  A    between atoms: C_6  and  C_13
REMARK                            x       y       z     vdW  Elec       q    Type
REMARK                         _______ _______ _______ _____ _____    ______ ____
ROOT
ATOM      1  O   UNL     1      36.622 -22.471 -16.955  0.00  0.00    -0.353 OA
ATOM      2  N   UNL     1      36.608 -23.215 -15.783  0.00  0.00    -0.077 NA
ATOM      3  C   UNL     1      34.495 -22.833 -16.501  0.00  0.00    +0.058 A 
ATOM      4  C   UNL     1      35.352 -22.245 -17.381  0.00  0.00    +0.177 A 
ATOM      5  C   UNL     1      35.315 -23.447 -15.490  0.00  0.00    +0.123 A 
ATOM      6  C   UNL     1      32.548 -23.538 -15.498  0.00  0.00    +0.031 C 
ATOM      7  C   UNL     1      33.110 -22.832 -16.580  0.00  0.00    +0.007 C 
ATOM      8  C   UNL     1      34.731 -24.146 -14.419  0.00  0.00    +0.023 C 
ATOM      9  C   UNL     1      33.318 -24.165 -14.467  0.00  0.00    +0.004 C 
ENDROOT
BRANCH   6  13
ATOM     10  N   UNL     1      30.643 -24.658 -14.677  0.00  0.00    -0.338 NA
ATOM     11  N   UNL     1      28.406 -23.934 -15.203  0.00  0.00    -0.170 NA
ATOM     12  N   UNL     1      28.777 -25.806 -13.836  0.00  0.00    -0.293 N 
ATOM     13  C   UNL     1      31.103 -23.637 -15.424  0.00  0.00    +0.146 C 
ATOM     14  C   UNL     1      30.299 -22.734 -16.082  0.00  0.00    +0.055 C 
ATOM     15  C   UNL     1      28.941 -22.934 -15.934  0.00  0.00    +0.114 C 
ATOM     16  C   UNL     1      29.302 -24.747 -14.610  0.00  0.00    +0.141 C 
ATOM     17  H   UNL     1      29.386 -26.431 -13.380  0.00  0.00    +0.155 HD
ATOM     18  H   UNL     1      27.803 -25.918 -13.753  0.00  0.00    +0.155 HD
ENDBRANCH   6  13
BRANCH   4  20
ATOM     19 CL   UNL     1      34.865 -19.073 -22.396  0.00  0.00    -0.082 Cl
ATOM     20  C   UNL     1      35.235 -21.481 -18.591  0.00  0.00    +0.037 C 
ATOM     21  C   UNL     1      36.366 -20.893 -19.165  0.00  0.00    +0.004 C 
ATOM     22  C   UNL     1      33.989 -21.317 -19.203  0.00  0.00    +0.004 C 
ATOM     23  C   UNL     1      36.253 -20.150 -20.341  0.00  0.00    +0.011 C 
ATOM     24  C   UNL     1      33.875 -20.574 -20.378  0.00  0.00    +0.011 C 
ATOM     25  C   UNL     1      35.006 -19.990 -20.946  0.00  0.00    +0.058 C 
ENDBRANCH   4  20
TORSDOF 2
ENDMDL
MODEL 2
REMARK VINA RESULT:     -11.4      2.106      5.158
REMARK  Name = 2765355
REMARK  2 active torsions:
REMARK  status: ('A' for Active; 'I' for Inactive)
REMARK    1  A    between atoms: C_4  and  C_20
REMARK    2  A    between atoms: C_6  and  C_13
REMARK                            x       y       z     vdW  Elec       q    Type
REMARK                         _______ _______ _______ _____ _____    ______ ____
ROOT
ATOM      1  O   UNL     1      31.576 -22.635 -17.313  0.00  0.00    -0.353 OA
ATOM      2  N   UNL     1      31.123 -23.318 -16.191  0.00  0.00    -0.077 NA
ATOM      3  C   UNL     1      33.374 -23.086 -16.120  0.00  0.00    +0.058 A 
ATOM      4  C   UNL     1      32.927 -22.499 -17.264  0.00  0.00    +0.177 A 
ATOM      5  C   UNL     1      32.209 -23.601 -15.449  0.00  0.00    +0.123 A 
ATOM      6  C   UNL     1      34.786 -23.838 -14.466  0.00  0.00    +0.031 C 
ATOM      7  C   UNL     1      34.693 -23.161 -15.698  0.00  0.00    +0.007 C 
ATOM      8  C   UNL     1      32.327 -24.274 -14.221  0.00  0.00    +0.023 C 
ATOM      9  C   UNL     1      33.660 -24.370 -13.760  0.00  0.00    +0.004 C 
ENDROOT
BRANCH   6  13
ATOM     10  N   UNL     1      37.032 -24.511 -14.708  0.00  0.00    -0.338 NA
ATOM     11  N   UNL     1      38.612 -24.375 -12.893  0.00  0.00    -0.170 NA
ATOM     12  N   UNL     1      39.259 -25.194 -14.995  0.00  0.00    -0.293 N 
ATOM     13  C   UNL     1      36.100 -24.008 -13.877  0.00  0.00    +0.146 C 
ATOM     14  C   UNL     1      36.335 -23.667 -12.564  0.00  0.00    +0.055 C 
ATOM     15  C   UNL     1      37.626 -23.875 -12.120  0.00  0.00    +0.114 C 
ATOM     16  C   UNL     1      38.251 -24.667 -14.157  0.00  0.00    +0.141 C 
ATOM     17  H   UNL     1      39.051 -25.425 -15.930  0.00  0.00    +0.155 HD
ATOM     18  H   UNL     1      40.168 -25.329 -14.645  0.00  0.00    +0.155 HD
ENDBRANCH   6  13
BRANCH   4  20
ATOM     19 CL   UNL     1      35.371 -19.625 -21.869  0.00  0.00    -0.082 Cl
ATOM     20  C   UNL     1      33.516 -21.807 -18.375  0.00  0.00    +0.037 C 
ATOM     21  C   UNL     1      34.876 -21.961 -18.660  0.00  0.00    +0.004 C 
ATOM     22  C   UNL     1      32.735 -20.973 -19.180  0.00  0.00    +0.004 C 
ATOM     23  C   UNL     1      35.449 -21.288 -19.739  0.00  0.00    +0.011 C 
ATOM     24  C   UNL     1      33.307 -20.300 -20.259  0.00  0.00    +0.011 C 
ATOM     25  C   UNL     1      34.664 -20.456 -20.539  0.00  0.00    +0.058 C 
ENDBRANCH   4  20
TORSDOF 2
ENDMDL
MODEL 3
REMARK VINA RESULT:     -11.3      2.309      5.067
REMARK  Name = 2765355
REMARK  2 active torsions:
REMARK  status: ('A' for Active; 'I' for Inactive)
REMARK    1  A    between atoms: C_4  and  C_20
REMARK    2  A    between atoms: C_6  and  C_13
REMARK                            x       y       z     vdW  Elec       q    Type
REMARK                         _______ _______ _______ _____ _____    ______ ____
ROOT
ATOM      1  O   UNL     1      31.577 -22.592 -17.312  0.00  0.00    -0.353 OA
ATOM      2  N   UNL     1      31.125 -23.276 -16.191  0.00  0.00    -0.077 NA
ATOM      3  C   UNL     1      33.381 -23.089 -16.146  0.00  0.00    +0.058 A 
ATOM      4  C   UNL     1      32.931 -22.483 -17.280  0.00  0.00    +0.177 A 
ATOM      5  C   UNL     1      32.214 -23.587 -15.465  0.00  0.00    +0.123 A 
ATOM      6  C   UNL     1      34.798 -23.885 -14.517  0.00  0.00    +0.031 C 
ATOM      7  C   UNL     1      34.703 -23.195 -15.742  0.00  0.00    +0.007 C 
ATOM      8  C   UNL     1      32.334 -24.274 -14.245  0.00  0.00    +0.023 C 
ATOM      9  C   UNL     1      33.671 -24.400 -13.802  0.00  0.00    +0.004 C 
ENDROOT
BRANCH   6  13
ATOM     10  N   UNL     1      36.270 -23.609 -12.697  0.00  0.00    -0.338 NA
ATOM     11  N   UNL     1      38.546 -24.399 -12.760  0.00  0.00    -0.170 NA
ATOM     12  N   UNL     1      37.700 -23.312 -10.860  0.00  0.00    -0.293 N 
ATOM     13  C   UNL     1      36.116 -24.086 -13.946  0.00  0.00    +0.146 C 
ATOM     14  C   UNL     1      37.106 -24.720 -14.662  0.00  0.00    +0.055 C 
ATOM     15  C   UNL     1      38.316 -24.850 -14.010  0.00  0.00    +0.114 C 
ATOM     16  C   UNL     1      37.495 -23.797 -12.171  0.00  0.00    +0.141 C 
ATOM     17  H   UNL     1      36.966 -22.863 -10.381  0.00  0.00    +0.155 HD
ATOM     18  H   UNL     1      38.576 -23.422 -10.426  0.00  0.00    +0.155 HD
ENDBRANCH   6  13
BRANCH   4  20
ATOM     19 CL   UNL     1      35.374 -19.614 -21.889  0.00  0.00    -0.082 Cl
ATOM     20  C   UNL     1      33.520 -21.793 -18.391  0.00  0.00    +0.037 C 
ATOM     21  C   UNL     1      34.882 -21.939 -18.670  0.00  0.00    +0.004 C 
ATOM     22  C   UNL     1      32.736 -20.966 -19.203  0.00  0.00    +0.004 C 
ATOM     23  C   UNL     1      35.455 -21.267 -19.751  0.00  0.00    +0.011 C 
ATOM     24  C   UNL     1      33.309 -20.295 -20.283  0.00  0.00    +0.011 C 
ATOM     25  C   UNL     1      34.668 -20.444 -20.557  0.00  0.00    +0.058 C 
ENDBRANCH   4  20
TORSDOF 2
ENDMDL
MODEL 4
REMARK VINA RESULT:     -11.1      1.553      2.041
REMARK  Name = 2765355
REMARK  2 active torsions:
REMARK  status: ('A' for Active; 'I' for Inactive)
REMARK    1  A    between atoms: C_4  and  C_20
REMARK    2  A    between atoms: C_6  and  C_13
REMARK                            x       y       z     vdW  Elec       q    Type
REMARK                         _______ _______ _______ _____ _____    ______ ____
ROOT
ATOM      1  O   UNL     1      35.305 -23.185 -16.851  0.00  0.00    -0.353 OA
ATOM      2  N   UNL     1      35.037 -23.936 -15.715  0.00  0.00    -0.077 NA
ATOM      3  C   UNL     1      33.141 -22.972 -16.491  0.00  0.00    +0.058 A 
ATOM      4  C   UNL     1      34.165 -22.609 -17.312  0.00  0.00    +0.177 A 
ATOM      5  C   UNL     1      33.718 -23.819 -15.479  0.00  0.00    +0.123 A 
ATOM      6  C   UNL     1      31.032 -23.157 -15.591  0.00  0.00    +0.031 C 
ATOM      7  C   UNL     1      31.813 -22.593 -16.619  0.00  0.00    +0.007 C 
ATOM      8  C   UNL     1      32.918 -24.368 -14.462  0.00  0.00    +0.023 C 
ATOM      9  C   UNL     1      31.556 -24.003 -14.561  0.00  0.00    +0.004 C 
ENDROOT
BRANCH   6  13
ATOM     10  N   UNL     1      29.021 -22.851 -16.782  0.00  0.00    -0.338 NA
ATOM     11  N   UNL     1      26.945 -22.324 -15.677  0.00  0.00    -0.170 NA
ATOM     12  N   UNL     1      27.043 -22.554 -18.010  0.00  0.00    -0.293 N 
ATOM     13  C   UNL     1      29.612 -22.863 -15.572  0.00  0.00    +0.146 C 
ATOM     14  C   UNL     1      28.956 -22.621 -14.387  0.00  0.00    +0.055 C 
ATOM     15  C   UNL     1      27.606 -22.353 -14.501  0.00  0.00    +0.114 C 
ATOM     16  C   UNL     1      27.703 -22.578 -16.761  0.00  0.00    +0.141 C 
ATOM     17  H   UNL     1      27.548 -22.734 -18.837  0.00  0.00    +0.155 HD
ATOM     18  H   UNL     1      26.080 -22.360 -18.054  0.00  0.00    +0.155 HD
ENDBRANCH   6  13
BRANCH   4  20
ATOM     19 CL   UNL     1      34.783 -19.259 -22.194  0.00  0.00    -0.082 Cl
ATOM     20  C   UNL     1      34.314 -21.802 -18.490  0.00  0.00    +0.037 C 
ATOM     21  C   UNL     1      35.587 -21.519 -18.993  0.00  0.00    +0.004 C 
ATOM     22  C   UNL     1      33.187 -21.292 -19.142  0.00  0.00    +0.004 C 
ATOM     23  C   UNL     1      35.733 -20.734 -20.138  0.00  0.00    +0.011 C 
ATOM     24  C   UNL     1      33.332 -20.508 -20.286  0.00  0.00    +0.011 C 
ATOM     25  C   UNL     1      34.605 -20.227 -20.783  0.00  0.00    +0.058 C 
ENDBRANCH   4  20
TORSDOF 2
ENDMDL
MODEL 5
REMARK VINA RESULT:     -10.7     10.747     13.443
REMARK  Name = 2765355
REMARK  2 active torsions:
REMARK  status: ('A' for Active; 'I' for Inactive)
REMARK    1  A    between atoms: C_4  and  C_20
REMARK    2  A    between atoms: C_6  and  C_13
REMARK                            x       y       z     vdW  Elec       q    Type
REMARK                         _______ _______ _______ _____ _____    ______ ____
ROOT
ATOM      1  O   UNL     1      31.567  -9.490 -20.224  0.00  0.00    -0.353 OA
ATOM      2  N   UNL     1      31.544 -10.616 -19.413  0.00  0.00    -0.077 NA
ATOM      3  C   UNL     1      32.252 -11.157 -21.494  0.00  0.00    +0.058 A 
ATOM      4  C   UNL     1      31.993  -9.820 -21.472  0.00  0.00    +0.177 A 
ATOM      5  C   UNL     1      31.961 -11.646 -20.171  0.00  0.00    +0.123 A 
ATOM      6  C   UNL     1      32.868 -13.243 -22.243  0.00  0.00    +0.031 C 
ATOM      7  C   UNL     1      32.708 -11.886 -22.582  0.00  0.00    +0.007 C 
ATOM      8  C   UNL     1      32.127 -13.006 -19.857  0.00  0.00    +0.023 C 
ATOM      9  C   UNL     1      32.591 -13.780 -20.945  0.00  0.00    +0.004 C 
ENDROOT
BRANCH   6  13
ATOM     10  N   UNL     1      34.156 -15.129 -22.828  0.00  0.00    -0.338 NA
ATOM     11  N   UNL     1      34.297 -15.929 -25.097  0.00  0.00    -0.170 NA
ATOM     12  N   UNL     1      35.452 -17.011 -23.363  0.00  0.00    -0.293 N 
ATOM     13  C   UNL     1      33.340 -14.153 -23.269  0.00  0.00    +0.146 C 
ATOM     14  C   UNL     1      32.959 -13.996 -24.582  0.00  0.00    +0.055 C 
ATOM     15  C   UNL     1      33.475 -14.925 -25.463  0.00  0.00    +0.114 C 
ATOM     16  C   UNL     1      34.592 -15.972 -23.783  0.00  0.00    +0.141 C 
ATOM     17  H   UNL     1      35.701 -17.090 -22.413  0.00  0.00    +0.155 HD
ATOM     18  H   UNL     1      35.801 -17.656 -24.019  0.00  0.00    +0.155 HD
ENDBRANCH   6  13
BRANCH   4  20
ATOM     19 CL   UNL     1      32.263  -5.313 -25.351  0.00  0.00    -0.082 Cl
ATOM     20  C   UNL     1      32.059  -8.734 -22.407  0.00  0.00    +0.037 C 
ATOM     21  C   UNL     1      33.202  -7.932 -22.477  0.00  0.00    +0.004 C 
ATOM     22  C   UNL     1      30.979  -8.469 -23.256  0.00  0.00    +0.004 C 
ATOM     23  C   UNL     1      33.266  -6.876 -23.387  0.00  0.00    +0.011 C 
ATOM     24  C   UNL     1      31.043  -7.413 -24.165  0.00  0.00    +0.011 C 
ATOM     25  C   UNL     1      32.185  -6.616 -24.230  0.00  0.00    +0.058 C 
ENDBRANCH   4  20
TORSDOF 2
ENDMDL
MODEL 6
REMARK VINA RESULT:     -10.6     11.245     14.036
REMARK  Name = 2765355
REMARK  2 active torsions:
REMARK  status: ('A' for Active; 'I' for Inactive)
REMARK    1  A    between atoms: C_4  and  C_20
REMARK    2  A    between atoms: C_6  and  C_13
REMARK                            x       y       z     vdW  Elec       q    Type
REMARK                         _______ _______ _______ _____ _____    ______ ____
ROOT
ATOM      1  O   UNL     1      32.025  -8.473 -21.218  0.00  0.00    -0.353 OA
ATOM      2  N   UNL     1      31.451  -9.476 -20.449  0.00  0.00    -0.077 NA
ATOM      3  C   UNL     1      32.583 -10.370 -22.193  0.00  0.00    +0.058 A 
ATOM      4  C   UNL     1      32.703  -9.015 -22.263  0.00  0.00    +0.177 A 
ATOM      5  C   UNL     1      31.782 -10.644 -21.028  0.00  0.00    +0.123 A 
ATOM      6  C   UNL     1      32.804 -12.605 -22.693  0.00  0.00    +0.031 C 
ATOM      7  C   UNL     1      33.132 -11.289 -23.075  0.00  0.00    +0.007 C 
ATOM      8  C   UNL     1      31.468 -11.966 -20.669  0.00  0.00    +0.023 C 
ATOM      9  C   UNL     1      32.011 -12.930 -21.547  0.00  0.00    +0.004 C 
ENDROOT
BRANCH   6  13
ATOM     10  N   UNL     1      34.164 -14.521 -22.889  0.00  0.00    -0.338 NA
ATOM     11  N   UNL     1      34.305 -15.788 -24.934  0.00  0.00    -0.170 NA
ATOM     12  N   UNL     1      35.533 -16.421 -23.037  0.00  0.00    -0.293 N 
ATOM     13  C   UNL     1      33.300 -13.696 -23.510  0.00  0.00    +0.146 C 
ATOM     14  C   UNL     1      32.892 -13.843 -24.816  0.00  0.00    +0.055 C 
ATOM     15  C   UNL     1      33.434 -14.920 -25.488  0.00  0.00    +0.114 C 
ATOM     16  C   UNL     1      34.622 -15.532 -23.650  0.00  0.00    +0.141 C 
ATOM     17  H   UNL     1      35.800 -16.283 -22.099  0.00  0.00    +0.155 HD
ATOM     18  H   UNL     1      35.900 -17.179 -23.546  0.00  0.00    +0.155 HD
ENDBRANCH   6  13
BRANCH   4  20
ATOM     19 CL   UNL     1      35.356  -5.107 -25.886  0.00  0.00    -0.082 Cl
ATOM     20  C   UNL     1      33.343  -8.074 -23.137  0.00  0.00    +0.037 C 
ATOM     21  C   UNL     1      34.663  -7.677 -22.900  0.00  0.00    +0.004 C 
ATOM     22  C   UNL     1      32.652  -7.545 -24.231  0.00  0.00    +0.004 C 
ATOM     23  C   UNL     1      35.285  -6.761 -23.749  0.00  0.00    +0.011 C 
ATOM     24  C   UNL     1      33.273  -6.630 -25.080  0.00  0.00    +0.011 C 
ATOM     25  C   UNL     1      34.589  -6.237 -24.839  0.00  0.00    +0.058 C 
ENDBRANCH   4  20
TORSDOF 2
ENDMDL
MODEL 7
REMARK VINA RESULT:      -9.7      7.621     10.423
REMARK  Name = 2765355
REMARK  2 active torsions:
REMARK  status: ('A' for Active; 'I' for Inactive)
REMARK    1  A    between atoms: C_4  and  C_20
REMARK    2  A    between atoms: C_6  and  C_13
REMARK                            x       y       z     vdW  Elec       q    Type
REMARK                         _______ _______ _______ _____ _____    ______ ____
ROOT
ATOM      1  O   UNL     1      35.222 -17.764 -24.225  0.00  0.00    -0.353 OA
ATOM      2  N   UNL     1      34.829 -16.784 -25.126  0.00  0.00    -0.077 NA
ATOM      3  C   UNL     1      34.370 -16.138 -23.005  0.00  0.00    +0.058 A 
ATOM      4  C   UNL     1      34.944 -17.372 -22.954  0.00  0.00    +0.177 A 
ATOM      5  C   UNL     1      34.306 -15.780 -24.398  0.00  0.00    +0.123 A 
ATOM      6  C   UNL     1      33.396 -14.160 -22.345  0.00  0.00    +0.031 C 
ATOM      7  C   UNL     1      33.939 -15.389 -21.920  0.00  0.00    +0.007 C 
ATOM      8  C   UNL     1      33.758 -14.549 -24.798  0.00  0.00    +0.023 C 
ATOM      9  C   UNL     1      33.308 -13.758 -23.716  0.00  0.00    +0.004 C 
ENDROOT
BRANCH   6  13
ATOM     10  N   UNL     1      32.535 -12.036 -21.796  0.00  0.00    -0.338 NA
ATOM     11  N   UNL     1      31.938 -11.441 -19.538  0.00  0.00    -0.170 NA
ATOM     12  N   UNL     1      31.682  -9.907 -21.296  0.00  0.00    -0.293 N 
ATOM     13  C   UNL     1      32.895 -13.248 -21.335  0.00  0.00    +0.146 C 
ATOM     14  C   UNL     1      32.811 -13.633 -20.016  0.00  0.00    +0.055 C 
ATOM     15  C   UNL     1      32.319 -12.676 -19.151  0.00  0.00    +0.114 C 
ATOM     16  C   UNL     1      32.071 -11.192 -20.855  0.00  0.00    +0.141 C 
ATOM     17  H   UNL     1      31.757  -9.671 -22.249  0.00  0.00    +0.155 HD
ATOM     18  H   UNL     1      31.335  -9.251 -20.651  0.00  0.00    +0.155 HD
ENDBRANCH   6  13
BRANCH   4  20
ATOM     19 CL   UNL     1      36.444 -21.255 -18.699  0.00  0.00    -0.082 Cl
ATOM     20  C   UNL     1      35.306 -18.307 -21.928  0.00  0.00    +0.037 C 
ATOM     21  C   UNL     1      36.590 -18.286 -21.375  0.00  0.00    +0.004 C 
ATOM     22  C   UNL     1      34.377 -19.248 -21.473  0.00  0.00    +0.004 C 
ATOM     23  C   UNL     1      36.942 -19.195 -20.377  0.00  0.00    +0.011 C 
ATOM     24  C   UNL     1      34.728 -20.158 -20.476  0.00  0.00    +0.011 C 
ATOM     25  C   UNL     1      36.011 -20.133 -19.929  0.00  0.00    +0.058 C 
ENDBRANCH   4  20
TORSDOF 2
ENDMDL
MODEL 8
REMARK VINA RESULT:      -9.3      6.901     10.132
REMARK  Name = 2765355
REMARK  2 active torsions:
REMARK  status: ('A' for Active; 'I' for Inactive)
REMARK    1  A    between atoms: C_4  and  C_20
REMARK    2  A    between atoms: C_6  and  C_13
REMARK                            x       y       z     vdW  Elec       q    Type
REMARK                         _______ _______ _______ _____ _____    ______ ____
ROOT
ATOM      1  O   UNL     1      33.034 -13.572 -24.152  0.00  0.00    -0.353 OA
ATOM      2  N   UNL     1      33.477 -14.458 -25.124  0.00  0.00    -0.077 NA
ATOM      3  C   UNL     1      33.915 -15.270 -23.057  0.00  0.00    +0.058 A 
ATOM      4  C   UNL     1      33.300 -14.064 -22.914  0.00  0.00    +0.177 A 
ATOM      5  C   UNL     1      34.018 -15.504 -24.474  0.00  0.00    +0.123 A 
ATOM      6  C   UNL     1      34.938 -17.267 -22.547  0.00  0.00    +0.031 C 
ATOM      7  C   UNL     1      34.348 -16.097 -22.031  0.00  0.00    +0.007 C 
ATOM      8  C   UNL     1      34.613 -16.679 -24.965  0.00  0.00    +0.023 C 
ATOM      9  C   UNL     1      35.066 -17.547 -23.945  0.00  0.00    +0.004 C 
ENDROOT
BRANCH   6  13
ATOM     10  N   UNL     1      34.521 -19.081 -21.101  0.00  0.00    -0.338 NA
ATOM     11  N   UNL     1      36.276 -20.135 -19.830  0.00  0.00    -0.170 NA
ATOM     12  N   UNL     1      34.057 -20.885 -19.673  0.00  0.00    -0.293 N 
ATOM     13  C   UNL     1      35.448 -18.247 -21.608  0.00  0.00    +0.146 C 
ATOM     14  C   UNL     1      36.786 -18.287 -21.285  0.00  0.00    +0.055 C 
ATOM     15  C   UNL     1      37.147 -19.264 -20.380  0.00  0.00    +0.114 C 
ATOM     16  C   UNL     1      34.998 -19.989 -20.229  0.00  0.00    +0.141 C 
ATOM     17  H   UNL     1      33.108 -20.824 -19.929  0.00  0.00    +0.155 HD
ATOM     18  H   UNL     1      34.351 -21.569 -19.030  0.00  0.00    +0.155 HD
ENDBRANCH   6  13
BRANCH   4  20
ATOM     19 CL   UNL     1      31.586 -10.613 -18.375  0.00  0.00    -0.082 Cl
ATOM     20  C   UNL     1      32.888 -13.232 -21.819  0.00  0.00    +0.037 C 
ATOM     21  C   UNL     1      32.920 -13.722 -20.510  0.00  0.00    +0.004 C 
ATOM     22  C   UNL     1      32.449 -11.925 -22.054  0.00  0.00    +0.004 C 
ATOM     23  C   UNL     1      32.519 -12.914 -19.446  0.00  0.00    +0.011 C 
ATOM     24  C   UNL     1      32.048 -11.117 -20.990  0.00  0.00    +0.011 C 
ATOM     25  C   UNL     1      32.082 -11.610 -19.687  0.00  0.00    +0.058 C 
ENDBRANCH   4  20
TORSDOF 2
ENDMDL
MODEL 9
REMARK VINA RESULT:      -9.1      4.154      6.733
REMARK  Name = 2765355
REMARK  2 active torsions:
REMARK  status: ('A' for Active; 'I' for Inactive)
REMARK    1  A    between atoms: C_4  and  C_20
REMARK    2  A    between atoms: C_6  and  C_13
REMARK                            x       y       z     vdW  Elec       q    Type
REMARK                         _______ _______ _______ _____ _____    ______ ____
ROOT
ATOM      1  O   UNL     1      33.652 -22.233 -17.825  0.00  0.00    -0.353 OA
ATOM      2  N   UNL     1      34.959 -21.893 -18.149  0.00  0.00    -0.077 NA
ATOM      3  C   UNL     1      34.879 -22.862 -16.104  0.00  0.00    +0.058 A 
ATOM      4  C   UNL     1      33.610 -22.814 -16.597  0.00  0.00    +0.177 A 
ATOM      5  C   UNL     1      35.724 -22.271 -17.109  0.00  0.00    +0.123 A 
ATOM      6  C   UNL     1      36.655 -23.265 -14.699  0.00  0.00    +0.031 C 
ATOM      7  C   UNL     1      35.263 -23.381 -14.877  0.00  0.00    +0.007 C 
ATOM      8  C   UNL     1      37.111 -22.165 -16.907  0.00  0.00    +0.023 C 
ATOM      9  C   UNL     1      37.539 -22.686 -15.665  0.00  0.00    +0.004 C 
ENDROOT
BRANCH   6  13
ATOM     10  N   UNL     1      36.713 -23.224 -12.343  0.00  0.00    -0.338 NA
ATOM     11  N   UNL     1      38.223 -24.610 -11.074  0.00  0.00    -0.170 NA
ATOM     12  N   UNL     1      36.735 -23.148  -9.997  0.00  0.00    -0.293 N 
ATOM     13  C   UNL     1      37.230 -23.762 -13.463  0.00  0.00    +0.146 C 
ATOM     14  C   UNL     1      38.226 -24.712 -13.479  0.00  0.00    +0.055 C 
ATOM     15  C   UNL     1      38.691 -25.103 -12.239  0.00  0.00    +0.114 C 
ATOM     16  C   UNL     1      37.249 -23.687 -11.198  0.00  0.00    +0.141 C 
ATOM     17  H   UNL     1      36.022 -22.470 -10.028  0.00  0.00    +0.155 HD
ATOM     18  H   UNL     1      37.090 -23.451  -9.131  0.00  0.00    +0.155 HD
ENDBRANCH   6  13
BRANCH   4  20
ATOM     19 CL   UNL     1      28.200 -24.463 -14.739  0.00  0.00    -0.082 Cl
ATOM     20  C   UNL     1      32.306 -23.211 -16.148  0.00  0.00    +0.037 C 
ATOM     21  C   UNL     1      32.165 -24.254 -15.228  0.00  0.00    +0.004 C 
ATOM     22  C   UNL     1      31.167 -22.559 -16.629  0.00  0.00    +0.004 C 
ATOM     23  C   UNL     1      30.897 -24.641 -14.792  0.00  0.00    +0.011 C 
ATOM     24  C   UNL     1      29.899 -22.945 -16.194  0.00  0.00    +0.011 C 
ATOM     25  C   UNL     1      29.764 -23.986 -15.276  0.00  0.00    +0.058 C 
ENDBRANCH   4  20
TORSDOF 2
ENDMDL
