MODEL 1
REMARK VINA RESULT:     -11.6      0.000      0.000
REMARK  Name = 5496659
REMARK  9 active torsions:
REMARK  status: ('A' for Active; 'I' for Inactive)
REMARK    1  A    between atoms: C_1  and  N_4
REMARK    2  A    between atoms: C_1  and  C_20
REMARK    3  A    between atoms: C_5  and  C_7
REMARK    4  A    between atoms: C_10  and  C_15
REMARK    5  A    between atoms: C_20  and  C_22
REMARK    6  A    between atoms: C_20  and  C_25
REMARK    7  A    between atoms: C_22  and  O_23
REMARK    8  A    between atoms: C_25  and  C_26
REMARK    9  A    between atoms: C_29  and  C_34
REMARK                            x       y       z     vdW  Elec       q    Type
REMARK                         _______ _______ _______ _____ _____    ______ ____
ROOT
ATOM      1  C   UNL     1      33.396 -23.715 -15.589  0.00  0.00    +0.083 C 
ATOM      2  C   UNL     1      32.127 -23.372 -14.812  0.00  0.00    +0.022 C 
ENDROOT
BRANCH   1   4
ATOM      3  O   UNL     1      33.758 -24.288 -18.379  0.00  0.00    -0.270 OA
ATOM      4  N   UNL     1      33.608 -22.755 -16.646  0.00  0.00    -0.302 N 
ATOM      5  C   UNL     1      33.773 -23.130 -17.971  0.00  0.00    +0.246 C 
ATOM      6  H   UNL     1      33.637 -21.797 -16.418  0.00  0.00    +0.150 HD
BRANCH   5   7
ATOM      7  C   UNL     1      34.007 -22.024 -18.934  0.00  0.00    +0.053 C 
ATOM      8  C   UNL     1      35.298 -21.754 -19.386  0.00  0.00    +0.005 C 
ATOM      9  C   UNL     1      32.936 -21.254 -19.386  0.00  0.00    +0.005 C 
ATOM     10  C   UNL     1      34.446 -19.946 -20.743  0.00  0.00    +0.000 C 
ATOM     11  C   UNL     1      35.518 -20.715 -20.291  0.00  0.00    +0.000 C 
ATOM     12  C   UNL     1      33.154 -20.216 -20.289  0.00  0.00    +0.000 C 
BRANCH  10  15
ATOM     13  O   UNL     1      35.304 -15.836 -24.308  0.00  0.00    -0.163 OA
ATOM     14  N   UNL     1      35.106 -16.786 -23.485  0.00  0.00    -0.127 N 
ATOM     15  C   UNL     1      34.672 -18.866 -21.679  0.00  0.00    +0.003 C 
ATOM     16  C   UNL     1      34.410 -19.053 -23.032  0.00  0.00    +0.022 C 
ATOM     17  C   UNL     1      35.151 -17.642 -21.228  0.00  0.00    +0.022 C 
ATOM     18  C   UNL     1      34.630 -18.007 -23.922  0.00  0.00    +0.121 C 
ATOM     19  C   UNL     1      35.364 -16.612 -22.139  0.00  0.00    +0.121 C 
ENDBRANCH  10  15
ENDBRANCH   5   7
ENDBRANCH   1   4
BRANCH   1  20
ATOM     20  C   UNL     1      34.627 -23.863 -14.665  0.00  0.00    +0.121 C 
BRANCH  20  22
ATOM     21  O   UNL     1      35.813 -21.774 -14.249  0.00  0.00    -0.250 OA
ATOM     22  C   UNL     1      35.660 -22.774 -14.939  0.00  0.00    +0.319 C 
BRANCH  22  23
ATOM     23  O   UNL     1      36.373 -23.087 -16.060  0.00  0.00    -0.444 OA
ATOM     24  C   UNL     1      37.328 -22.106 -16.476  0.00  0.00    +0.256 C 
ENDBRANCH  22  23
ENDBRANCH  20  22
BRANCH  20  25
ATOM     25  C   UNL     1      35.285 -25.253 -14.795  0.00  0.00    +0.039 C 
BRANCH  25  26
ATOM     26  C   UNL     1      36.507 -25.407 -13.919  0.00  0.00    -0.021 C 
ATOM     27  C   UNL     1      37.738 -25.731 -14.490  0.00  0.00    -0.002 C 
ATOM     28  C   UNL     1      36.403 -25.227 -12.539  0.00  0.00    -0.004 C 
ATOM     29  C   UNL     1      38.864 -25.875 -13.681  0.00  0.00    +0.030 C 
ATOM     30  C   UNL     1      37.530 -25.370 -11.731  0.00  0.00    -0.000 C 
ATOM     31  C   UNL     1      38.761 -25.695 -12.302  0.00  0.00    +0.003 C 
BRANCH  29  34
ATOM     32  N   UNL     1      41.129 -26.886 -13.548  0.00  0.00    -0.343 N 
ATOM     33  N   UNL     1      40.400 -25.882 -15.529  0.00  0.00    -0.285 NA
ATOM     34  C   UNL     1      40.148 -26.215 -14.276  0.00  0.00    +0.117 C 
ATOM     35  H   UNL     1      41.991 -27.106 -13.970  0.00  0.00    +0.144 HD
ATOM     36  H   UNL     1      40.960 -27.139 -12.612  0.00  0.00    +0.144 HD
ATOM     37  H   UNL     1      41.269 -26.112 -15.933  0.00  0.00    +0.188 HD
ENDBRANCH  29  34
ENDBRANCH  25  26
ENDBRANCH  20  25
ENDBRANCH   1  20
TORSDOF 9
ENDMDL
MODEL 2
REMARK VINA RESULT:     -11.2      1.513      2.524
REMARK  Name = 5496659
REMARK  9 active torsions:
REMARK  status: ('A' for Active; 'I' for Inactive)
REMARK    1  A    between atoms: C_1  and  N_4
REMARK    2  A    between atoms: C_1  and  C_20
REMARK    3  A    between atoms: C_5  and  C_7
REMARK    4  A    between atoms: C_10  and  C_15
REMARK    5  A    between atoms: C_20  and  C_22
REMARK    6  A    between atoms: C_20  and  C_25
REMARK    7  A    between atoms: C_22  and  O_23
REMARK    8  A    between atoms: C_25  and  C_26
REMARK    9  A    between atoms: C_29  and  C_34
REMARK                            x       y       z     vdW  Elec       q    Type
REMARK                         _______ _______ _______ _____ _____    ______ ____
ROOT
ATOM      1  C   UNL     1      32.378 -23.632 -15.451  0.00  0.00    +0.083 C 
ATOM      2  C   UNL     1      31.149 -23.113 -14.705  0.00  0.00    +0.022 C 
ENDROOT
BRANCH   1   4
ATOM      3  O   UNL     1      33.879 -24.284 -17.809  0.00  0.00    -0.270 OA
ATOM      4  N   UNL     1      32.721 -22.736 -16.530  0.00  0.00    -0.302 N 
ATOM      5  C   UNL     1      33.453 -23.145 -17.633  0.00  0.00    +0.246 C 
ATOM      6  H   UNL     1      32.424 -21.798 -16.480  0.00  0.00    +0.150 HD
BRANCH   5   7
ATOM      7  C   UNL     1      33.745 -22.097 -18.644  0.00  0.00    +0.053 C 
ATOM      8  C   UNL     1      35.046 -21.927 -19.117  0.00  0.00    +0.005 C 
ATOM      9  C   UNL     1      32.719 -21.282 -19.120  0.00  0.00    +0.005 C 
ATOM     10  C   UNL     1      34.293 -20.127 -20.542  0.00  0.00    +0.000 C 
ATOM     11  C   UNL     1      35.320 -20.942 -20.066  0.00  0.00    +0.000 C 
ATOM     12  C   UNL     1      32.992 -20.297 -20.068  0.00  0.00    +0.000 C 
BRANCH  10  15
ATOM     13  O   UNL     1      35.367 -16.229 -24.283  0.00  0.00    -0.163 OA
ATOM     14  N   UNL     1      35.119 -17.130 -23.419  0.00  0.00    -0.127 N 
ATOM     15  C   UNL     1      34.576 -19.103 -21.524  0.00  0.00    +0.003 C 
ATOM     16  C   UNL     1      34.299 -19.333 -22.868  0.00  0.00    +0.022 C 
ATOM     17  C   UNL     1      35.124 -17.889 -21.127  0.00  0.00    +0.022 C 
ATOM     18  C   UNL     1      34.575 -18.341 -23.802  0.00  0.00    +0.121 C 
ATOM     19  C   UNL     1      35.390 -16.913 -22.082  0.00  0.00    +0.121 C 
ENDBRANCH  10  15
ENDBRANCH   5   7
ENDBRANCH   1   4
BRANCH   1  20
ATOM     20  C   UNL     1      33.568 -23.903 -14.502  0.00  0.00    +0.121 C 
BRANCH  20  22
ATOM     21  O   UNL     1      32.215 -25.263 -12.998  0.00  0.00    -0.250 OA
ATOM     22  C   UNL     1      33.092 -24.421 -13.149  0.00  0.00    +0.319 C 
BRANCH  22  23
ATOM     23  O   UNL     1      33.788 -23.804 -12.149  0.00  0.00    -0.444 OA
ATOM     24  C   UNL     1      34.829 -24.585 -11.553  0.00  0.00    +0.256 C 
ENDBRANCH  22  23
ENDBRANCH  20  22
BRANCH  20  25
ATOM     25  C   UNL     1      34.447 -22.650 -14.304  0.00  0.00    +0.039 C 
BRANCH  25  26
ATOM     26  C   UNL     1      35.867 -22.850 -14.782  0.00  0.00    -0.021 C 
ATOM     27  C   UNL     1      36.629 -23.906 -14.282  0.00  0.00    -0.002 C 
ATOM     28  C   UNL     1      36.416 -21.977 -15.721  0.00  0.00    -0.004 C 
ATOM     29  C   UNL     1      37.940 -24.089 -14.722  0.00  0.00    +0.030 C 
ATOM     30  C   UNL     1      37.727 -22.160 -16.161  0.00  0.00    -0.000 C 
ATOM     31  C   UNL     1      38.489 -23.216 -15.661  0.00  0.00    +0.003 C 
BRANCH  29  34
ATOM     32  N   UNL     1      38.631 -25.591 -12.868  0.00  0.00    -0.343 N 
ATOM     33  N   UNL     1      39.580 -25.824 -14.991  0.00  0.00    -0.285 NA
ATOM     34  C   UNL     1      38.735 -25.189 -14.199  0.00  0.00    +0.117 C 
ATOM     35  H   UNL     1      39.179 -26.338 -12.536  0.00  0.00    +0.144 HD
ATOM     36  H   UNL     1      38.009 -25.127 -12.262  0.00  0.00    +0.144 HD
ATOM     37  H   UNL     1      40.119 -26.570 -14.639  0.00  0.00    +0.188 HD
ENDBRANCH  29  34
ENDBRANCH  25  26
ENDBRANCH  20  25
ENDBRANCH   1  20
TORSDOF 9
ENDMDL
MODEL 3
REMARK VINA RESULT:     -11.0      1.867      2.458
REMARK  Name = 5496659
REMARK  9 active torsions:
REMARK  status: ('A' for Active; 'I' for Inactive)
REMARK    1  A    between atoms: C_1  and  N_4
REMARK    2  A    between atoms: C_1  and  C_20
REMARK    3  A    between atoms: C_5  and  C_7
REMARK    4  A    between atoms: C_10  and  C_15
REMARK    5  A    between atoms: C_20  and  C_22
REMARK    6  A    between atoms: C_20  and  C_25
REMARK    7  A    between atoms: C_22  and  O_23
REMARK    8  A    between atoms: C_25  and  C_26
REMARK    9  A    between atoms: C_29  and  C_34
REMARK                            x       y       z     vdW  Elec       q    Type
REMARK                         _______ _______ _______ _____ _____    ______ ____
ROOT
ATOM      1  C   UNL     1      33.074 -23.545 -15.919  0.00  0.00    +0.083 C 
ATOM      2  C   UNL     1      31.779 -23.199 -15.186  0.00  0.00    +0.022 C 
ENDROOT
BRANCH   1   4
ATOM      3  O   UNL     1      33.907 -24.136 -18.602  0.00  0.00    -0.270 OA
ATOM      4  N   UNL     1      33.319 -22.592 -16.976  0.00  0.00    -0.302 N 
ATOM      5  C   UNL     1      33.720 -22.975 -18.246  0.00  0.00    +0.246 C 
ATOM      6  H   UNL     1      33.196 -21.633 -16.787  0.00  0.00    +0.150 HD
BRANCH   5   7
ATOM      7  C   UNL     1      33.955 -21.873 -19.213  0.00  0.00    +0.053 C 
ATOM      8  C   UNL     1      35.243 -21.620 -19.684  0.00  0.00    +0.005 C 
ATOM      9  C   UNL     1      32.887 -21.090 -19.650  0.00  0.00    +0.005 C 
ATOM     10  C   UNL     1      34.396 -19.801 -21.029  0.00  0.00    +0.000 C 
ATOM     11  C   UNL     1      35.464 -20.584 -20.591  0.00  0.00    +0.000 C 
ATOM     12  C   UNL     1      33.107 -20.054 -20.557  0.00  0.00    +0.000 C 
BRANCH  10  15
ATOM     13  O   UNL     1      35.264 -15.705 -24.607  0.00  0.00    -0.163 OA
ATOM     14  N   UNL     1      35.063 -16.651 -23.780  0.00  0.00    -0.127 N 
ATOM     15  C   UNL     1      34.623 -18.725 -21.969  0.00  0.00    +0.003 C 
ATOM     16  C   UNL     1      35.084 -17.493 -21.518  0.00  0.00    +0.022 C 
ATOM     17  C   UNL     1      34.381 -18.921 -23.324  0.00  0.00    +0.022 C 
ATOM     18  C   UNL     1      35.300 -16.467 -22.431  0.00  0.00    +0.121 C 
ATOM     19  C   UNL     1      34.604 -17.879 -24.217  0.00  0.00    +0.121 C 
ENDBRANCH  10  15
ENDBRANCH   5   7
ENDBRANCH   1   4
BRANCH   1  20
ATOM     20  C   UNL     1      34.275 -23.684 -14.955  0.00  0.00    +0.121 C 
BRANCH  20  22
ATOM     21  O   UNL     1      35.403 -21.541 -14.679  0.00  0.00    -0.250 OA
ATOM     22  C   UNL     1      35.339 -22.628 -15.239  0.00  0.00    +0.319 C 
BRANCH  22  23
ATOM     23  O   UNL     1      36.193 -23.083 -16.202  0.00  0.00    -0.444 OA
ATOM     24  C   UNL     1      37.188 -22.150 -16.632  0.00  0.00    +0.256 C 
ENDBRANCH  22  23
ENDBRANCH  20  22
BRANCH  20  25
ATOM     25  C   UNL     1      34.904 -25.092 -15.013  0.00  0.00    +0.039 C 
BRANCH  25  26
ATOM     26  C   UNL     1      35.834 -25.366 -13.854  0.00  0.00    -0.021 C 
ATOM     27  C   UNL     1      35.593 -24.777 -12.612  0.00  0.00    -0.002 C 
ATOM     28  C   UNL     1      36.935 -26.205 -14.026  0.00  0.00    -0.004 C 
ATOM     29  C   UNL     1      36.453 -25.028 -11.543  0.00  0.00    +0.030 C 
ATOM     30  C   UNL     1      37.794 -26.456 -12.956  0.00  0.00    -0.000 C 
ATOM     31  C   UNL     1      37.554 -25.867 -11.715  0.00  0.00    +0.003 C 
BRANCH  29  34
ATOM     32  N   UNL     1      36.789 -23.196  -9.899  0.00  0.00    -0.343 N 
ATOM     33  N   UNL     1      35.409 -25.010  -9.379  0.00  0.00    -0.285 NA
ATOM     34  C   UNL     1      36.203 -24.412 -10.249  0.00  0.00    +0.117 C 
ATOM     35  H   UNL     1      36.606 -22.798  -9.018  0.00  0.00    +0.144 HD
ATOM     36  H   UNL     1      37.385 -22.737 -10.534  0.00  0.00    +0.144 HD
ATOM     37  H   UNL     1      35.239 -24.594  -8.502  0.00  0.00    +0.188 HD
ENDBRANCH  29  34
ENDBRANCH  25  26
ENDBRANCH  20  25
ENDBRANCH   1  20
TORSDOF 9
ENDMDL
MODEL 4
REMARK VINA RESULT:     -10.7      2.267      3.278
REMARK  Name = 5496659
REMARK  9 active torsions:
REMARK  status: ('A' for Active; 'I' for Inactive)
REMARK    1  A    between atoms: C_1  and  N_4
REMARK    2  A    between atoms: C_1  and  C_20
REMARK    3  A    between atoms: C_5  and  C_7
REMARK    4  A    between atoms: C_10  and  C_15
REMARK    5  A    between atoms: C_20  and  C_22
REMARK    6  A    between atoms: C_20  and  C_25
REMARK    7  A    between atoms: C_22  and  O_23
REMARK    8  A    between atoms: C_25  and  C_26
REMARK    9  A    between atoms: C_29  and  C_34
REMARK                            x       y       z     vdW  Elec       q    Type
REMARK                         _______ _______ _______ _____ _____    ______ ____
ROOT
ATOM      1  C   UNL     1      31.819 -23.864 -16.128  0.00  0.00    +0.083 C 
ATOM      2  C   UNL     1      30.299 -23.804 -15.984  0.00  0.00    +0.022 C 
ENDROOT
BRANCH   1   4
ATOM      3  O   UNL     1      33.824 -24.198 -18.155  0.00  0.00    -0.270 OA
ATOM      4  N   UNL     1      32.271 -22.865 -17.068  0.00  0.00    -0.302 N 
ATOM      5  C   UNL     1      33.249 -23.122 -18.015  0.00  0.00    +0.246 C 
ATOM      6  H   UNL     1      31.868 -21.966 -17.034  0.00  0.00    +0.150 HD
BRANCH   5   7
ATOM      7  C   UNL     1      33.621 -21.982 -18.891  0.00  0.00    +0.053 C 
ATOM      8  C   UNL     1      34.962 -21.734 -19.182  0.00  0.00    +0.005 C 
ATOM      9  C   UNL     1      32.628 -21.158 -19.421  0.00  0.00    +0.005 C 
ATOM     10  C   UNL     1      34.317 -19.838 -20.535  0.00  0.00    +0.000 C 
ATOM     11  C   UNL     1      35.311 -20.662 -20.004  0.00  0.00    +0.000 C 
ATOM     12  C   UNL     1      32.976 -20.087 -20.243  0.00  0.00    +0.000 C 
BRANCH  10  15
ATOM     13  O   UNL     1      35.691 -15.601 -23.776  0.00  0.00    -0.163 OA
ATOM     14  N   UNL     1      35.373 -16.580 -23.027  0.00  0.00    -0.127 N 
ATOM     15  C   UNL     1      34.677 -18.725 -21.386  0.00  0.00    +0.003 C 
ATOM     16  C   UNL     1      35.018 -17.500 -20.823  0.00  0.00    +0.022 C 
ATOM     17  C   UNL     1      34.684 -18.879 -22.768  0.00  0.00    +0.022 C 
ATOM     18  C   UNL     1      35.363 -16.438 -21.652  0.00  0.00    +0.121 C 
ATOM     19  C   UNL     1      35.033 -17.801 -23.576  0.00  0.00    +0.121 C 
ENDBRANCH  10  15
ENDBRANCH   5   7
ENDBRANCH   1   4
BRANCH   1  20
ATOM     20  C   UNL     1      32.541 -23.767 -14.765  0.00  0.00    +0.121 C 
BRANCH  20  22
ATOM     21  O   UNL     1      31.512 -21.722 -13.928  0.00  0.00    -0.250 OA
ATOM     22  C   UNL     1      31.751 -22.913 -13.778  0.00  0.00    +0.319 C 
BRANCH  22  23
ATOM     23  O   UNL     1      31.362 -23.679 -12.717  0.00  0.00    -0.444 OA
ATOM     24  C   UNL     1      31.515 -25.092 -12.888  0.00  0.00    +0.256 C 
ENDBRANCH  22  23
ENDBRANCH  20  22
BRANCH  20  25
ATOM     25  C   UNL     1      33.975 -23.213 -14.907  0.00  0.00    +0.039 C 
BRANCH  25  26
ATOM     26  C   UNL     1      34.989 -24.001 -14.110  0.00  0.00    -0.021 C 
ATOM     27  C   UNL     1      35.059 -23.847 -12.725  0.00  0.00    -0.002 C 
ATOM     28  C   UNL     1      35.856 -24.880 -14.759  0.00  0.00    -0.004 C 
ATOM     29  C   UNL     1      35.996 -24.573 -11.990  0.00  0.00    +0.030 C 
ATOM     30  C   UNL     1      36.792 -25.605 -14.024  0.00  0.00    -0.000 C 
ATOM     31  C   UNL     1      36.864 -25.451 -12.640  0.00  0.00    +0.003 C 
BRANCH  29  34
ATOM     32  N   UNL     1      36.828 -23.393  -9.969  0.00  0.00    -0.343 N 
ATOM     33  N   UNL     1      35.416 -25.243  -9.757  0.00  0.00    -0.285 NA
ATOM     34  C   UNL     1      36.071 -24.411 -10.547  0.00  0.00    +0.117 C 
ATOM     35  H   UNL     1      36.864 -23.302  -8.990  0.00  0.00    +0.144 HD
ATOM     36  H   UNL     1      37.325 -22.764 -10.542  0.00  0.00    +0.144 HD
ATOM     37  H   UNL     1      35.466 -25.135  -8.779  0.00  0.00    +0.188 HD
ENDBRANCH  29  34
ENDBRANCH  25  26
ENDBRANCH  20  25
ENDBRANCH   1  20
TORSDOF 9
ENDMDL
MODEL 5
REMARK VINA RESULT:     -10.7      7.161     14.917
REMARK  Name = 5496659
REMARK  9 active torsions:
REMARK  status: ('A' for Active; 'I' for Inactive)
REMARK    1  A    between atoms: C_1  and  N_4
REMARK    2  A    between atoms: C_1  and  C_20
REMARK    3  A    between atoms: C_5  and  C_7
REMARK    4  A    between atoms: C_10  and  C_15
REMARK    5  A    between atoms: C_20  and  C_22
REMARK    6  A    between atoms: C_20  and  C_25
REMARK    7  A    between atoms: C_22  and  O_23
REMARK    8  A    between atoms: C_25  and  C_26
REMARK    9  A    between atoms: C_29  and  C_34
REMARK                            x       y       z     vdW  Elec       q    Type
REMARK                         _______ _______ _______ _____ _____    ______ ____
ROOT
ATOM      1  C   UNL     1      33.537 -11.126 -23.496  0.00  0.00    +0.083 C 
ATOM      2  C   UNL     1      34.761 -10.345 -23.971  0.00  0.00    +0.022 C 
ENDROOT
BRANCH   1   4
ATOM      3  O   UNL     1      33.470 -13.627 -24.903  0.00  0.00    -0.270 OA
ATOM      4  N   UNL     1      33.935 -12.415 -22.982  0.00  0.00    -0.302 N 
ATOM      5  C   UNL     1      33.867 -13.573 -23.742  0.00  0.00    +0.246 C 
ATOM      6  H   UNL     1      34.268 -12.474 -22.057  0.00  0.00    +0.150 HD
BRANCH   5   7
ATOM      7  C   UNL     1      34.290 -14.822 -23.060  0.00  0.00    +0.053 C 
ATOM      8  C   UNL     1      34.557 -15.969 -23.807  0.00  0.00    +0.005 C 
ATOM      9  C   UNL     1      34.419 -14.849 -21.672  0.00  0.00    +0.005 C 
ATOM     10  C   UNL     1      35.084 -17.169 -21.778  0.00  0.00    +0.000 C 
ATOM     11  C   UNL     1      34.954 -17.143 -23.166  0.00  0.00    +0.000 C 
ATOM     12  C   UNL     1      34.816 -16.022 -21.030  0.00  0.00    +0.000 C 
BRANCH  10  15
ATOM     13  O   UNL     1      36.644 -21.801 -19.237  0.00  0.00    -0.163 OA
ATOM     14  N   UNL     1      36.283 -20.731 -19.825  0.00  0.00    -0.127 N 
ATOM     15  C   UNL     1      35.493 -18.386 -21.111  0.00  0.00    +0.003 C 
ATOM     16  C   UNL     1      36.836 -18.603 -20.821  0.00  0.00    +0.022 C 
ATOM     17  C   UNL     1      34.545 -19.340 -20.758  0.00  0.00    +0.022 C 
ATOM     18  C   UNL     1      37.217 -19.776 -20.179  0.00  0.00    +0.121 C 
ATOM     19  C   UNL     1      34.952 -20.506 -20.117  0.00  0.00    +0.121 C 
ENDBRANCH  10  15
ENDBRANCH   5   7
ENDBRANCH   1   4
BRANCH   1  20
ATOM     20  C   UNL     1      32.684 -10.322 -22.488  0.00  0.00    +0.121 C 
BRANCH  20  22
ATOM     21  O   UNL     1      30.447 -11.243 -22.184  0.00  0.00    -0.250 OA
ATOM     22  C   UNL     1      31.621 -11.201 -21.836  0.00  0.00    +0.319 C 
BRANCH  22  23
ATOM     23  O   UNL     1      32.178 -11.919 -20.819  0.00  0.00    -0.444 OA
ATOM     24  C   UNL     1      31.961 -11.395 -19.504  0.00  0.00    +0.256 C 
ENDBRANCH  22  23
ENDBRANCH  20  22
BRANCH  20  25
ATOM     25  C   UNL     1      32.020  -9.092 -23.142  0.00  0.00    +0.039 C 
BRANCH  25  26
ATOM     26  C   UNL     1      32.140  -7.844 -22.298  0.00  0.00    -0.021 C 
ATOM     27  C   UNL     1      31.476  -6.678 -22.679  0.00  0.00    -0.002 C 
ATOM     28  C   UNL     1      32.917  -7.858 -21.139  0.00  0.00    -0.004 C 
ATOM     29  C   UNL     1      31.590  -5.526 -21.901  0.00  0.00    +0.030 C 
ATOM     30  C   UNL     1      33.029  -6.706 -20.361  0.00  0.00    -0.000 C 
ATOM     31  C   UNL     1      32.366  -5.539 -20.743  0.00  0.00    +0.003 C 
BRANCH  29  34
ATOM     32  N   UNL     1      30.381  -4.157 -23.585  0.00  0.00    -0.343 N 
ATOM     33  N   UNL     1      30.759  -3.319 -21.436  0.00  0.00    -0.285 NA
ATOM     34  C   UNL     1      30.899  -4.309 -22.300  0.00  0.00    +0.117 C 
ATOM     35  H   UNL     1      29.917  -3.325 -23.833  0.00  0.00    +0.144 HD
ATOM     36  H   UNL     1      30.478  -4.883 -24.243  0.00  0.00    +0.144 HD
ATOM     37  H   UNL     1      30.292  -2.494 -21.705  0.00  0.00    +0.188 HD
ENDBRANCH  29  34
ENDBRANCH  25  26
ENDBRANCH  20  25
ENDBRANCH   1  20
TORSDOF 9
ENDMDL
MODEL 6
REMARK VINA RESULT:     -10.6      3.041     10.997
REMARK  Name = 5496659
REMARK  9 active torsions:
REMARK  status: ('A' for Active; 'I' for Inactive)
REMARK    1  A    between atoms: C_1  and  N_4
REMARK    2  A    between atoms: C_1  and  C_20
REMARK    3  A    between atoms: C_5  and  C_7
REMARK    4  A    between atoms: C_10  and  C_15
REMARK    5  A    between atoms: C_20  and  C_22
REMARK    6  A    between atoms: C_20  and  C_25
REMARK    7  A    between atoms: C_22  and  O_23
REMARK    8  A    between atoms: C_25  and  C_26
REMARK    9  A    between atoms: C_29  and  C_34
REMARK                            x       y       z     vdW  Elec       q    Type
REMARK                         _______ _______ _______ _____ _____    ______ ____
ROOT
ATOM      1  C   UNL     1      36.580 -19.655 -20.612  0.00  0.00    +0.083 C 
ATOM      2  C   UNL     1      37.937 -19.006 -20.877  0.00  0.00    +0.022 C 
ENDROOT
BRANCH   1   4
ATOM      3  O   UNL     1      35.757 -22.311 -19.897  0.00  0.00    -0.270 OA
ATOM      4  N   UNL     1      36.550 -20.221 -19.283  0.00  0.00    -0.302 N 
ATOM      5  C   UNL     1      36.135 -21.521 -19.037  0.00  0.00    +0.246 C 
ATOM      6  H   UNL     1      36.835 -19.662 -18.524  0.00  0.00    +0.150 HD
BRANCH   5   7
ATOM      7  C   UNL     1      36.137 -21.943 -17.613  0.00  0.00    +0.053 C 
ATOM      8  C   UNL     1      37.259 -21.709 -16.818  0.00  0.00    +0.005 C 
ATOM      9  C   UNL     1      35.019 -22.576 -17.072  0.00  0.00    +0.005 C 
ATOM     10  C   UNL     1      36.143 -22.739 -14.939  0.00  0.00    +0.000 C 
ATOM     11  C   UNL     1      37.262 -22.106 -15.481  0.00  0.00    +0.000 C 
ATOM     12  C   UNL     1      35.021 -22.974 -15.735  0.00  0.00    +0.000 C 
BRANCH  10  15
ATOM     13  O   UNL     1      36.150 -24.316  -9.661  0.00  0.00    -0.163 OA
ATOM     14  N   UNL     1      36.149 -23.952 -10.881  0.00  0.00    -0.127 N 
ATOM     15  C   UNL     1      36.145 -23.154 -13.553  0.00  0.00    +0.003 C 
ATOM     16  C   UNL     1      37.237 -22.864 -12.742  0.00  0.00    +0.022 C 
ATOM     17  C   UNL     1      35.056 -23.842 -13.031  0.00  0.00    +0.022 C 
ATOM     18  C   UNL     1      37.226 -23.267 -11.411  0.00  0.00    +0.121 C 
ATOM     19  C   UNL     1      35.070 -24.235 -11.696  0.00  0.00    +0.121 C 
ENDBRANCH  10  15
ENDBRANCH   5   7
ENDBRANCH   1   4
BRANCH   1  20
ATOM     20  C   UNL     1      35.405 -18.685 -20.871  0.00  0.00    +0.121 C 
BRANCH  20  22
ATOM     21  O   UNL     1      33.724 -19.774 -22.262  0.00  0.00    -0.250 OA
ATOM     22  C   UNL     1      34.110 -19.444 -21.148  0.00  0.00    +0.319 C 
BRANCH  22  23
ATOM     23  O   UNL     1      33.461 -19.689 -19.972  0.00  0.00    -0.444 OA
ATOM     24  C   UNL     1      32.650 -20.868 -19.952  0.00  0.00    +0.256 C 
ENDBRANCH  22  23
ENDBRANCH  20  22
BRANCH  20  25
ATOM     25  C   UNL     1      35.701 -17.713 -22.033  0.00  0.00    +0.039 C 
BRANCH  25  26
ATOM     26  C   UNL     1      35.040 -16.366 -21.852  0.00  0.00    -0.021 C 
ATOM     27  C   UNL     1      34.585 -15.658 -22.964  0.00  0.00    -0.002 C 
ATOM     28  C   UNL     1      34.888 -15.830 -20.573  0.00  0.00    -0.004 C 
ATOM     29  C   UNL     1      33.978 -14.414 -22.797  0.00  0.00    +0.030 C 
ATOM     30  C   UNL     1      34.280 -14.586 -20.407  0.00  0.00    -0.000 C 
ATOM     31  C   UNL     1      33.826 -13.878 -21.519  0.00  0.00    +0.003 C 
BRANCH  29  34
ATOM     32  N   UNL     1      32.940 -14.327 -25.052  0.00  0.00    -0.343 N 
ATOM     33  N   UNL     1      33.611 -12.358 -23.986  0.00  0.00    -0.285 NA
ATOM     34  C   UNL     1      33.505 -13.674 -23.957  0.00  0.00    +0.117 C 
ATOM     35  H   UNL     1      32.627 -13.807 -25.827  0.00  0.00    +0.144 HD
ATOM     36  H   UNL     1      32.855 -15.308 -25.050  0.00  0.00    +0.144 HD
ATOM     37  H   UNL     1      33.291 -11.856 -24.771  0.00  0.00    +0.188 HD
ENDBRANCH  29  34
ENDBRANCH  25  26
ENDBRANCH  20  25
ENDBRANCH   1  20
TORSDOF 9
ENDMDL
MODEL 7
REMARK VINA RESULT:     -10.6      2.376      5.290
REMARK  Name = 5496659
REMARK  9 active torsions:
REMARK  status: ('A' for Active; 'I' for Inactive)
REMARK    1  A    between atoms: C_1  and  N_4
REMARK    2  A    between atoms: C_1  and  C_20
REMARK    3  A    between atoms: C_5  and  C_7
REMARK    4  A    between atoms: C_10  and  C_15
REMARK    5  A    between atoms: C_20  and  C_22
REMARK    6  A    between atoms: C_20  and  C_25
REMARK    7  A    between atoms: C_22  and  O_23
REMARK    8  A    between atoms: C_25  and  C_26
REMARK    9  A    between atoms: C_29  and  C_34
REMARK                            x       y       z     vdW  Elec       q    Type
REMARK                         _______ _______ _______ _____ _____    ______ ____
ROOT
ATOM      1  C   UNL     1      36.044 -23.922 -14.834  0.00  0.00    +0.083 C 
ATOM      2  C   UNL     1      35.868 -25.372 -15.280  0.00  0.00    +0.022 C 
ENDROOT
BRANCH   1   4
ATOM      3  O   UNL     1      33.995 -23.994 -16.843  0.00  0.00    -0.270 OA
ATOM      4  N   UNL     1      35.913 -23.033 -15.965  0.00  0.00    -0.302 N 
ATOM      5  C   UNL     1      34.884 -23.147 -16.886  0.00  0.00    +0.246 C 
ATOM      6  H   UNL     1      36.581 -22.319 -16.086  0.00  0.00    +0.150 HD
BRANCH   5   7
ATOM      7  C   UNL     1      34.904 -22.172 -18.006  0.00  0.00    +0.053 C 
ATOM      8  C   UNL     1      33.710 -21.779 -18.610  0.00  0.00    +0.005 C 
ATOM      9  C   UNL     1      36.117 -21.650 -18.454  0.00  0.00    +0.005 C 
ATOM     10  C   UNL     1      34.942 -20.341 -20.110  0.00  0.00    +0.000 C 
ATOM     11  C   UNL     1      33.729 -20.863 -19.662  0.00  0.00    +0.000 C 
ATOM     12  C   UNL     1      36.137 -20.735 -19.506  0.00  0.00    +0.000 C 
BRANCH  10  15
ATOM     13  O   UNL     1      35.029 -16.731 -24.270  0.00  0.00    -0.163 OA
ATOM     14  N   UNL     1      35.009 -17.565 -23.308  0.00  0.00    -0.127 N 
ATOM     15  C   UNL     1      34.964 -19.393 -21.202  0.00  0.00    +0.003 C 
ATOM     16  C   UNL     1      35.426 -18.098 -20.991  0.00  0.00    +0.022 C 
ATOM     17  C   UNL     1      34.525 -19.774 -22.465  0.00  0.00    +0.022 C 
ATOM     18  C   UNL     1      35.443 -17.196 -22.049  0.00  0.00    +0.121 C 
ATOM     19  C   UNL     1      34.552 -18.853 -23.507  0.00  0.00    +0.121 C 
ENDBRANCH  10  15
ENDBRANCH   5   7
ENDBRANCH   1   4
BRANCH   1  20
ATOM     20  C   UNL     1      35.098 -23.547 -13.671  0.00  0.00    +0.121 C 
BRANCH  20  22
ATOM     21  O   UNL     1      37.000 -23.027 -12.237  0.00  0.00    -0.250 OA
ATOM     22  C   UNL     1      35.855 -23.447 -12.350  0.00  0.00    +0.319 C 
BRANCH  22  23
ATOM     23  O   UNL     1      35.064 -23.895 -11.331  0.00  0.00    -0.444 OA
ATOM     24  C   UNL     1      35.760 -24.339 -10.162  0.00  0.00    +0.256 C 
ENDBRANCH  22  23
ENDBRANCH  20  22
BRANCH  20  25
ATOM     25  C   UNL     1      33.928 -24.544 -13.531  0.00  0.00    +0.039 C 
BRANCH  25  26
ATOM     26  C   UNL     1      32.588 -23.922 -13.848  0.00  0.00    -0.021 C 
ATOM     27  C   UNL     1      31.496 -24.736 -14.151  0.00  0.00    -0.002 C 
ATOM     28  C   UNL     1      32.443 -22.535 -13.841  0.00  0.00    -0.004 C 
ATOM     29  C   UNL     1      30.260 -24.162 -14.446  0.00  0.00    +0.030 C 
ATOM     30  C   UNL     1      31.207 -21.962 -14.135  0.00  0.00    -0.000 C 
ATOM     31  C   UNL     1      30.115 -22.774 -14.439  0.00  0.00    +0.003 C 
BRANCH  29  34
ATOM     32  N   UNL     1      28.511 -24.965 -16.017  0.00  0.00    -0.343 N 
ATOM     33  N   UNL     1      28.646 -25.840 -13.854  0.00  0.00    -0.285 NA
ATOM     34  C   UNL     1      29.121 -25.010 -14.764  0.00  0.00    +0.117 C 
ATOM     35  H   UNL     1      27.742 -25.547 -16.210  0.00  0.00    +0.144 HD
ATOM     36  H   UNL     1      28.850 -24.350 -16.707  0.00  0.00    +0.144 HD
ATOM     37  H   UNL     1      27.875 -26.416 -14.068  0.00  0.00    +0.188 HD
ENDBRANCH  29  34
ENDBRANCH  25  26
ENDBRANCH  20  25
ENDBRANCH   1  20
TORSDOF 9
ENDMDL
MODEL 8
REMARK VINA RESULT:     -10.6      3.036     11.003
REMARK  Name = 5496659
REMARK  9 active torsions:
REMARK  status: ('A' for Active; 'I' for Inactive)
REMARK    1  A    between atoms: C_1  and  N_4
REMARK    2  A    between atoms: C_1  and  C_20
REMARK    3  A    between atoms: C_5  and  C_7
REMARK    4  A    between atoms: C_10  and  C_15
REMARK    5  A    between atoms: C_20  and  C_22
REMARK    6  A    between atoms: C_20  and  C_25
REMARK    7  A    between atoms: C_22  and  O_23
REMARK    8  A    between atoms: C_25  and  C_26
REMARK    9  A    between atoms: C_29  and  C_34
REMARK                            x       y       z     vdW  Elec       q    Type
REMARK                         _______ _______ _______ _____ _____    ______ ____
ROOT
ATOM      1  C   UNL     1      36.576 -19.656 -20.623  0.00  0.00    +0.083 C 
ATOM      2  C   UNL     1      37.933 -19.005 -20.889  0.00  0.00    +0.022 C 
ENDROOT
BRANCH   1   4
ATOM      3  O   UNL     1      35.752 -22.312 -19.910  0.00  0.00    -0.270 OA
ATOM      4  N   UNL     1      36.548 -20.223 -19.295  0.00  0.00    -0.302 N 
ATOM      5  C   UNL     1      36.132 -21.522 -19.049  0.00  0.00    +0.246 C 
ATOM      6  H   UNL     1      36.834 -19.665 -18.535  0.00  0.00    +0.150 HD
BRANCH   5   7
ATOM      7  C   UNL     1      36.136 -21.947 -17.626  0.00  0.00    +0.053 C 
ATOM      8  C   UNL     1      35.014 -22.570 -17.081  0.00  0.00    +0.005 C 
ATOM      9  C   UNL     1      37.263 -21.722 -16.835  0.00  0.00    +0.005 C 
ATOM     10  C   UNL     1      36.145 -22.743 -14.953  0.00  0.00    +0.000 C 
ATOM     11  C   UNL     1      35.018 -22.968 -15.744  0.00  0.00    +0.000 C 
ATOM     12  C   UNL     1      37.268 -22.120 -15.499  0.00  0.00    +0.000 C 
BRANCH  10  15
ATOM     13  O   UNL     1      36.167 -24.310  -9.672  0.00  0.00    -0.163 OA
ATOM     14  N   UNL     1      36.161 -23.947 -10.892  0.00  0.00    -0.127 N 
ATOM     15  C   UNL     1      36.151 -23.154 -13.565  0.00  0.00    +0.003 C 
ATOM     16  C   UNL     1      35.070 -23.857 -13.043  0.00  0.00    +0.022 C 
ATOM     17  C   UNL     1      37.237 -22.847 -12.753  0.00  0.00    +0.022 C 
ATOM     18  C   UNL     1      35.088 -24.247 -11.709  0.00  0.00    +0.121 C 
ATOM     19  C   UNL     1      37.230 -23.249 -11.421  0.00  0.00    +0.121 C 
ENDBRANCH  10  15
ENDBRANCH   5   7
ENDBRANCH   1   4
BRANCH   1  20
ATOM     20  C   UNL     1      35.400 -18.686 -20.880  0.00  0.00    +0.121 C 
BRANCH  20  22
ATOM     21  O   UNL     1      33.734 -19.772 -22.290  0.00  0.00    -0.250 OA
ATOM     22  C   UNL     1      34.109 -19.445 -21.171  0.00  0.00    +0.319 C 
BRANCH  22  23
ATOM     23  O   UNL     1      33.449 -19.694 -20.002  0.00  0.00    -0.444 OA
ATOM     24  C   UNL     1      32.686 -20.905 -19.973  0.00  0.00    +0.256 C 
ENDBRANCH  22  23
ENDBRANCH  20  22
BRANCH  20  25
ATOM     25  C   UNL     1      35.701 -17.703 -22.031  0.00  0.00    +0.039 C 
BRANCH  25  26
ATOM     26  C   UNL     1      35.033 -16.360 -21.844  0.00  0.00    -0.021 C 
ATOM     27  C   UNL     1      34.566 -15.654 -22.953  0.00  0.00    -0.002 C 
ATOM     28  C   UNL     1      34.885 -15.827 -20.564  0.00  0.00    -0.004 C 
ATOM     29  C   UNL     1      33.951 -14.414 -22.780  0.00  0.00    +0.030 C 
ATOM     30  C   UNL     1      34.270 -14.588 -20.392  0.00  0.00    -0.000 C 
ATOM     31  C   UNL     1      33.804 -13.880 -21.500  0.00  0.00    +0.003 C 
BRANCH  29  34
ATOM     32  N   UNL     1      32.987 -14.334 -25.068  0.00  0.00    -0.343 N 
ATOM     33  N   UNL     1      33.478 -12.355 -23.925  0.00  0.00    -0.285 NA
ATOM     34  C   UNL     1      33.466 -13.676 -23.936  0.00  0.00    +0.117 C 
ATOM     35  H   UNL     1      32.663 -13.815 -25.838  0.00  0.00    +0.144 HD
ATOM     36  H   UNL     1      32.972 -15.318 -25.095  0.00  0.00    +0.144 HD
ATOM     37  H   UNL     1      33.150 -11.854 -24.708  0.00  0.00    +0.188 HD
ENDBRANCH  29  34
ENDBRANCH  25  26
ENDBRANCH  20  25
ENDBRANCH   1  20
TORSDOF 9
ENDMDL
MODEL 9
REMARK VINA RESULT:     -10.3      2.395      5.459
REMARK  Name = 5496659
REMARK  9 active torsions:
REMARK  status: ('A' for Active; 'I' for Inactive)
REMARK    1  A    between atoms: C_1  and  N_4
REMARK    2  A    between atoms: C_1  and  C_20
REMARK    3  A    between atoms: C_5  and  C_7
REMARK    4  A    between atoms: C_10  and  C_15
REMARK    5  A    between atoms: C_20  and  C_22
REMARK    6  A    between atoms: C_20  and  C_25
REMARK    7  A    between atoms: C_22  and  O_23
REMARK    8  A    between atoms: C_25  and  C_26
REMARK    9  A    between atoms: C_29  and  C_34
REMARK                            x       y       z     vdW  Elec       q    Type
REMARK                         _______ _______ _______ _____ _____    ______ ____
ROOT
ATOM      1  C   UNL     1      36.119 -22.377 -14.879  0.00  0.00    +0.083 C 
ATOM      2  C   UNL     1      37.543 -22.929 -14.855  0.00  0.00    +0.022 C 
ENDROOT
BRANCH   1   4
ATOM      3  O   UNL     1      37.599 -22.687 -17.319  0.00  0.00    -0.270 OA
ATOM      4  N   UNL     1      35.865 -21.707 -16.133  0.00  0.00    -0.302 N 
ATOM      5  C   UNL     1      36.639 -21.923 -17.263  0.00  0.00    +0.246 C 
ATOM      6  H   UNL     1      35.114 -21.072 -16.188  0.00  0.00    +0.150 HD
BRANCH   5   7
ATOM      7  C   UNL     1      36.265 -21.138 -18.466  0.00  0.00    +0.053 C 
ATOM      8  C   UNL     1      35.032 -21.352 -19.083  0.00  0.00    +0.005 C 
ATOM      9  C   UNL     1      37.145 -20.186 -18.980  0.00  0.00    +0.005 C 
ATOM     10  C   UNL     1      35.561 -19.663 -20.727  0.00  0.00    +0.000 C 
ATOM     11  C   UNL     1      34.680 -20.615 -20.214  0.00  0.00    +0.000 C 
ATOM     12  C   UNL     1      36.794 -19.449 -20.110  0.00  0.00    +0.000 C 
BRANCH  10  15
ATOM     13  O   UNL     1      34.185 -16.753 -25.197  0.00  0.00    -0.163 OA
ATOM     14  N   UNL     1      34.503 -17.425 -24.164  0.00  0.00    -0.127 N 
ATOM     15  C   UNL     1      35.199 -18.898 -21.901  0.00  0.00    +0.003 C 
ATOM     16  C   UNL     1      35.506 -17.543 -21.971  0.00  0.00    +0.022 C 
ATOM     17  C   UNL     1      34.545 -19.517 -22.960  0.00  0.00    +0.022 C 
ATOM     18  C   UNL     1      35.153 -16.820 -23.105  0.00  0.00    +0.121 C 
ATOM     19  C   UNL     1      34.203 -18.771 -24.084  0.00  0.00    +0.121 C 
ENDBRANCH  10  15
ENDBRANCH   5   7
ENDBRANCH   1   4
BRANCH   1  20
ATOM     20  C   UNL     1      35.064 -23.462 -14.562  0.00  0.00    +0.121 C 
BRANCH  20  22
ATOM     21  O   UNL     1      35.899 -25.600 -15.383  0.00  0.00    -0.250 OA
ATOM     22  C   UNL     1      35.705 -24.841 -14.441  0.00  0.00    +0.319 C 
BRANCH  22  23
ATOM     23  O   UNL     1      36.022 -25.088 -13.137  0.00  0.00    -0.444 OA
ATOM     24  C   UNL     1      37.032 -26.080 -12.926  0.00  0.00    +0.256 C 
ENDBRANCH  22  23
ENDBRANCH  20  22
BRANCH  20  25
ATOM     25  C   UNL     1      33.936 -23.498 -15.614  0.00  0.00    +0.039 C 
BRANCH  25  26
ATOM     26  C   UNL     1      32.557 -23.478 -14.995  0.00  0.00    -0.021 C 
ATOM     27  C   UNL     1      31.427 -23.430 -15.811  0.00  0.00    -0.002 C 
ATOM     28  C   UNL     1      32.415 -23.505 -13.608  0.00  0.00    -0.004 C 
ATOM     29  C   UNL     1      30.155 -23.409 -15.240  0.00  0.00    +0.030 C 
ATOM     30  C   UNL     1      31.143 -23.485 -13.037  0.00  0.00    -0.000 C 
ATOM     31  C   UNL     1      30.013 -23.436 -13.852  0.00  0.00    +0.003 C 
BRANCH  29  34
ATOM     32  N   UNL     1      28.276 -24.514 -16.431  0.00  0.00    -0.343 N 
ATOM     33  N   UNL     1      28.554 -22.197 -16.560  0.00  0.00    -0.285 NA
ATOM     34  C   UNL     1      28.976 -23.357 -16.091  0.00  0.00    +0.117 C 
ATOM     35  H   UNL     1      27.481 -24.455 -17.008  0.00  0.00    +0.144 HD
ATOM     36  H   UNL     1      28.577 -25.388 -16.093  0.00  0.00    +0.144 HD
ATOM     37  H   UNL     1      27.756 -22.160 -17.136  0.00  0.00    +0.188 HD
ENDBRANCH  29  34
ENDBRANCH  25  26
ENDBRANCH  20  25
ENDBRANCH   1  20
TORSDOF 9
ENDMDL
