MODEL 1
REMARK VINA RESULT:     -11.2      0.000      0.000
REMARK  Name = 3559
REMARK  7 active torsions:
REMARK  status: ('A' for Active; 'I' for Inactive)
REMARK    1  A    between atoms: N_1  and  C_17
REMARK    2  A    between atoms: C_2  and  C_9
REMARK    3  A    between atoms: C_2  and  O_15
REMARK    4  A    between atoms: C_17  and  C_18
REMARK    5  A    between atoms: C_18  and  C_19
REMARK    6  A    between atoms: C_19  and  C_21
REMARK    7  A    between atoms: C_21  and  C_23
REMARK                            x       y       z     vdW  Elec       q    Type
REMARK                         _______ _______ _______ _____ _____    ______ ____
ROOT
ATOM      1  N   UNL     1      35.310 -20.210 -19.870  0.00  0.00    +0.387 N 
ATOM      2  C   UNL     1      33.989 -22.368 -18.313  0.00  0.00    +0.103 C 
ATOM      3  C   UNL     1      33.224 -21.243 -19.046  0.00  0.00    +0.008 C 
ATOM      4  C   UNL     1      35.434 -21.887 -18.044  0.00  0.00    +0.008 C 
ATOM      5  C   UNL     1      33.981 -20.693 -20.260  0.00  0.00    -0.075 C 
ATOM      6  C   UNL     1      36.113 -21.288 -19.283  0.00  0.00    -0.075 C 
ATOM      7  H   UNL     1      35.187 -19.488 -19.160  0.00  0.00    -0.080 HD
ENDROOT
BRANCH   2   9
ATOM      8 CL   UNL     1      31.415 -24.284 -13.198  0.00  0.00    -0.082 Cl
ATOM      9  C   UNL     1      33.337 -22.854 -17.018  0.00  0.00    +0.002 C 
ATOM     10  C   UNL     1      31.960 -22.728 -16.842  0.00  0.00    -0.001 C 
ATOM     11  C   UNL     1      34.120 -23.423 -16.015  0.00  0.00    -0.001 C 
ATOM     12  C   UNL     1      31.365 -23.171 -15.661  0.00  0.00    +0.011 C 
ATOM     13  C   UNL     1      33.525 -23.866 -14.834  0.00  0.00    +0.011 C 
ATOM     14  C   UNL     1      32.148 -23.740 -14.657  0.00  0.00    +0.058 C 
ENDBRANCH   2   9
BRANCH   2  15
ATOM     15  O   UNL     1      34.019 -23.512 -19.179  0.00  0.00    -0.383 OA
ATOM     16  H   UNL     1      34.810 -23.472 -19.740  0.00  0.00    +0.211 HD
ENDBRANCH   2  15
BRANCH   1  17
ATOM     17  C   UNL     1      36.000 -19.623 -21.019  0.00  0.00    -0.077 C 
BRANCH  17  18
ATOM     18  C   UNL     1      34.986 -19.017 -21.991  0.00  0.00    -0.015 C 
BRANCH  18  19
ATOM     19  C   UNL     1      35.555 -17.813 -22.747  0.00  0.00    +0.067 C 
BRANCH  19  21
ATOM     20  O   UNL     1      34.183 -18.067 -24.717  0.00  0.00    -0.291 OA
ATOM     21  C   UNL     1      34.646 -17.315 -23.862  0.00  0.00    +0.173 C 
BRANCH  21  23
ATOM     22  F   UNL     1      33.298 -11.899 -23.996  0.00  0.00    -0.204 F 
ATOM     23  C   UNL     1      34.287 -15.868 -23.899  0.00  0.00    +0.035 C 
ATOM     24  C   UNL     1      33.548 -15.398 -24.960  0.00  0.00    +0.005 C 
ATOM     25  C   UNL     1      34.707 -15.056 -22.868  0.00  0.00    +0.005 C 
ATOM     26  C   UNL     1      33.211 -14.045 -24.994  0.00  0.00    +0.030 C 
ATOM     27  C   UNL     1      34.370 -13.704 -22.901  0.00  0.00    +0.030 C 
ATOM     28  C   UNL     1      33.621 -13.198 -23.964  0.00  0.00    +0.140 C 
ENDBRANCH  21  23
ENDBRANCH  19  21
ENDBRANCH  18  19
ENDBRANCH  17  18
ENDBRANCH   1  17
TORSDOF 7
ENDMDL
MODEL 2
REMARK VINA RESULT:     -11.0      5.341     10.638
REMARK  Name = 3559
REMARK  7 active torsions:
REMARK  status: ('A' for Active; 'I' for Inactive)
REMARK    1  A    between atoms: N_1  and  C_17
REMARK    2  A    between atoms: C_2  and  C_9
REMARK    3  A    between atoms: C_2  and  O_15
REMARK    4  A    between atoms: C_17  and  C_18
REMARK    5  A    between atoms: C_18  and  C_19
REMARK    6  A    between atoms: C_19  and  C_21
REMARK    7  A    between atoms: C_21  and  C_23
REMARK                            x       y       z     vdW  Elec       q    Type
REMARK                         _______ _______ _______ _____ _____    ______ ____
ROOT
ATOM      1  N   UNL     1      34.686 -15.236 -23.579  0.00  0.00    +0.387 N 
ATOM      2  C   UNL     1      33.026 -12.856 -22.944  0.00  0.00    +0.103 C 
ATOM      3  C   UNL     1      33.228 -13.409 -24.373  0.00  0.00    +0.008 C 
ATOM      4  C   UNL     1      34.200 -13.333 -22.060  0.00  0.00    +0.008 C 
ATOM      5  C   UNL     1      33.515 -14.914 -24.400  0.00  0.00    -0.075 C 
ATOM      6  C   UNL     1      34.477 -14.838 -22.182  0.00  0.00    -0.075 C 
ATOM      7  H   UNL     1      35.480 -14.708 -23.941  0.00  0.00    -0.080 HD
ENDROOT
BRANCH   2   9
ATOM      8 CL   UNL     1      32.414  -6.858 -22.599  0.00  0.00    -0.082 Cl
ATOM      9  C   UNL     1      32.871 -11.337 -22.856  0.00  0.00    +0.002 C 
ATOM     10  C   UNL     1      31.801 -10.786 -22.154  0.00  0.00    -0.001 C 
ATOM     11  C   UNL     1      33.801 -10.505 -23.478  0.00  0.00    -0.001 C 
ATOM     12  C   UNL     1      31.659  -9.400 -22.074  0.00  0.00    +0.011 C 
ATOM     13  C   UNL     1      33.660  -9.120 -23.398  0.00  0.00    +0.011 C 
ATOM     14  C   UNL     1      32.589  -8.568 -22.696  0.00  0.00    +0.058 C 
ENDBRANCH   2   9
BRANCH   2  15
ATOM     15  O   UNL     1      31.796 -13.394 -22.437  0.00  0.00    -0.383 OA
ATOM     16  H   UNL     1      31.502 -12.868 -21.677  0.00  0.00    +0.211 HD
ENDBRANCH   2  15
BRANCH   1  17
ATOM     17  C   UNL     1      34.996 -16.663 -23.664  0.00  0.00    -0.077 C 
BRANCH  17  18
ATOM     18  C   UNL     1      35.412 -17.196 -22.291  0.00  0.00    -0.015 C 
BRANCH  18  19
ATOM     19  C   UNL     1      35.836 -18.667 -22.343  0.00  0.00    +0.067 C 
BRANCH  19  21
ATOM     20  O   UNL     1      37.404 -18.876 -20.520  0.00  0.00    -0.291 OA
ATOM     21  C   UNL     1      36.323 -19.202 -21.004  0.00  0.00    +0.173 C 
BRANCH  21  23
ATOM     22  F   UNL     1      33.024 -22.693 -18.157  0.00  0.00    -0.204 F 
ATOM     23  C   UNL     1      35.442 -20.136 -20.245  0.00  0.00    +0.035 C 
ATOM     24  C   UNL     1      36.026 -21.073 -19.424  0.00  0.00    +0.005 C 
ATOM     25  C   UNL     1      34.077 -20.023 -20.392  0.00  0.00    +0.005 C 
ATOM     26  C   UNL     1      35.202 -21.946 -18.712  0.00  0.00    +0.030 C 
ATOM     27  C   UNL     1      33.253 -20.895 -19.681  0.00  0.00    +0.030 C 
ATOM     28  C   UNL     1      33.815 -21.856 -18.840  0.00  0.00    +0.140 C 
ENDBRANCH  21  23
ENDBRANCH  19  21
ENDBRANCH  18  19
ENDBRANCH  17  18
ENDBRANCH   1  17
TORSDOF 7
ENDMDL
MODEL 3
REMARK VINA RESULT:     -10.9      3.557      5.879
REMARK  Name = 3559
REMARK  7 active torsions:
REMARK  status: ('A' for Active; 'I' for Inactive)
REMARK    1  A    between atoms: N_1  and  C_17
REMARK    2  A    between atoms: C_2  and  C_9
REMARK    3  A    between atoms: C_2  and  O_15
REMARK    4  A    between atoms: C_17  and  C_18
REMARK    5  A    between atoms: C_18  and  C_19
REMARK    6  A    between atoms: C_19  and  C_21
REMARK    7  A    between atoms: C_21  and  C_23
REMARK                            x       y       z     vdW  Elec       q    Type
REMARK                         _______ _______ _______ _____ _____    ______ ____
ROOT
ATOM      1  N   UNL     1      34.350 -15.741 -23.199  0.00  0.00    +0.387 N 
ATOM      2  C   UNL     1      35.410 -18.122 -21.774  0.00  0.00    +0.103 C 
ATOM      3  C   UNL     1      34.676 -18.187 -23.132  0.00  0.00    +0.008 C 
ATOM      4  C   UNL     1      35.007 -16.812 -21.058  0.00  0.00    +0.008 C 
ATOM      5  C   UNL     1      34.823 -16.903 -23.957  0.00  0.00    -0.075 C 
ATOM      6  C   UNL     1      35.114 -15.573 -21.957  0.00  0.00    -0.075 C 
ATOM      7  H   UNL     1      33.375 -15.902 -22.948  0.00  0.00    -0.080 HD
ENDROOT
BRANCH   2   9
ATOM      8 CL   UNL     1      34.507 -22.869 -18.153  0.00  0.00    -0.082 Cl
ATOM      9  C   UNL     1      35.182 -19.325 -20.858  0.00  0.00    +0.002 C 
ATOM     10  C   UNL     1      33.886 -19.776 -20.612  0.00  0.00    -0.001 C 
ATOM     11  C   UNL     1      36.269 -19.968 -20.269  0.00  0.00    -0.001 C 
ATOM     12  C   UNL     1      33.677 -20.873 -19.776  0.00  0.00    +0.011 C 
ATOM     13  C   UNL     1      36.060 -21.065 -19.433  0.00  0.00    +0.011 C 
ATOM     14  C   UNL     1      34.764 -21.517 -19.187  0.00  0.00    +0.058 C 
ENDBRANCH   2   9
BRANCH   2  15
ATOM     15  O   UNL     1      36.821 -18.107 -22.039  0.00  0.00    -0.383 OA
ATOM     16  H   UNL     1      37.307 -18.269 -21.215  0.00  0.00    +0.211 HD
ENDBRANCH   2  15
BRANCH   1  17
ATOM     17  C   UNL     1      34.428 -14.529 -24.016  0.00  0.00    -0.077 C 
BRANCH  17  18
ATOM     18  C   UNL     1      34.063 -13.302 -23.177  0.00  0.00    -0.015 C 
BRANCH  18  19
ATOM     19  C   UNL     1      32.556 -13.200 -22.923  0.00  0.00    +0.067 C 
BRANCH  19  21
ATOM     20  O   UNL     1      32.052 -14.167 -20.770  0.00  0.00    -0.291 OA
ATOM     21  C   UNL     1      32.195 -13.150 -21.445  0.00  0.00    +0.173 C 
BRANCH  21  23
ATOM     22  F   UNL     1      31.602  -8.163 -19.006  0.00  0.00    -0.204 F 
ATOM     23  C   UNL     1      32.035 -11.819 -20.794  0.00  0.00    +0.035 C 
ATOM     24  C   UNL     1      32.088 -11.745 -19.420  0.00  0.00    +0.005 C 
ATOM     25  C   UNL     1      31.843 -10.711 -21.591  0.00  0.00    +0.005 C 
ATOM     26  C   UNL     1      31.940 -10.499 -18.810  0.00  0.00    +0.030 C 
ATOM     27  C   UNL     1      31.696  -9.466 -20.981  0.00  0.00    +0.030 C 
ATOM     28  C   UNL     1      31.744  -9.359 -19.591  0.00  0.00    +0.140 C 
ENDBRANCH  21  23
ENDBRANCH  19  21
ENDBRANCH  18  19
ENDBRANCH  17  18
ENDBRANCH   1  17
TORSDOF 7
ENDMDL
MODEL 4
REMARK VINA RESULT:     -10.8      5.484     10.619
REMARK  Name = 3559
REMARK  7 active torsions:
REMARK  status: ('A' for Active; 'I' for Inactive)
REMARK    1  A    between atoms: N_1  and  C_17
REMARK    2  A    between atoms: C_2  and  C_9
REMARK    3  A    between atoms: C_2  and  O_15
REMARK    4  A    between atoms: C_17  and  C_18
REMARK    5  A    between atoms: C_18  and  C_19
REMARK    6  A    between atoms: C_19  and  C_21
REMARK    7  A    between atoms: C_21  and  C_23
REMARK                            x       y       z     vdW  Elec       q    Type
REMARK                         _______ _______ _______ _____ _____    ______ ____
ROOT
ATOM      1  N   UNL     1      34.562 -14.811 -21.176  0.00  0.00    +0.387 N 
ATOM      2  C   UNL     1      32.769 -12.651 -22.147  0.00  0.00    +0.103 C 
ATOM      3  C   UNL     1      34.046 -13.109 -22.888  0.00  0.00    +0.008 C 
ATOM      4  C   UNL     1      32.895 -13.046 -20.658  0.00  0.00    +0.008 C 
ATOM      5  C   UNL     1      34.407 -14.573 -22.614  0.00  0.00    -0.075 C 
ATOM      6  C   UNL     1      33.322 -14.506 -20.453  0.00  0.00    -0.075 C 
ATOM      7  H   UNL     1      35.290 -14.186 -20.829  0.00  0.00    -0.080 HD
ENDROOT
BRANCH   2   9
ATOM      8 CL   UNL     1      31.490  -6.773 -22.673  0.00  0.00    -0.082 Cl
ATOM      9  C   UNL     1      32.444 -11.163 -22.281  0.00  0.00    +0.002 C 
ATOM     10  C   UNL     1      32.760 -10.484 -23.457  0.00  0.00    -0.001 C 
ATOM     11  C   UNL     1      31.833 -10.486 -21.226  0.00  0.00    -0.001 C 
ATOM     12  C   UNL     1      32.464  -9.126 -23.579  0.00  0.00    +0.011 C 
ATOM     13  C   UNL     1      31.537  -9.129 -21.348  0.00  0.00    +0.011 C 
ATOM     14  C   UNL     1      31.853  -8.449 -22.524  0.00  0.00    +0.058 C 
ENDBRANCH   2   9
BRANCH   2  15
ATOM     15  O   UNL     1      31.654 -13.339 -22.732  0.00  0.00    -0.383 OA
ATOM     16  H   UNL     1      31.236 -12.771 -23.398  0.00  0.00    +0.211 HD
ENDBRANCH   2  15
BRANCH   1  17
ATOM     17  C   UNL     1      34.975 -16.192 -20.925  0.00  0.00    -0.077 C 
BRANCH  17  18
ATOM     18  C   UNL     1      35.459 -16.842 -22.223  0.00  0.00    -0.015 C 
BRANCH  18  19
ATOM     19  C   UNL     1      35.325 -18.367 -22.193  0.00  0.00    +0.067 C 
BRANCH  19  21
ATOM     20  O   UNL     1      37.113 -18.675 -20.601  0.00  0.00    -0.291 OA
ATOM     21  C   UNL     1      35.995 -19.009 -20.986  0.00  0.00    +0.173 C 
BRANCH  21  23
ATOM     22  F   UNL     1      33.220 -22.946 -18.163  0.00  0.00    -0.204 F 
ATOM     23  C   UNL     1      35.254 -20.061 -20.234  0.00  0.00    +0.035 C 
ATOM     24  C   UNL     1      35.972 -20.976 -19.498  0.00  0.00    +0.005 C 
ATOM     25  C   UNL     1      33.878 -20.078 -20.301  0.00  0.00    +0.005 C 
ATOM     26  C   UNL     1      35.279 -21.960 -18.792  0.00  0.00    +0.030 C 
ATOM     27  C   UNL     1      33.185 -21.060 -19.595  0.00  0.00    +0.030 C 
ATOM     28  C   UNL     1      33.885 -22.002 -18.840  0.00  0.00    +0.140 C 
ENDBRANCH  21  23
ENDBRANCH  19  21
ENDBRANCH  18  19
ENDBRANCH  17  18
ENDBRANCH   1  17
TORSDOF 7
ENDMDL
MODEL 5
REMARK VINA RESULT:     -10.7      1.857      2.146
REMARK  Name = 3559
REMARK  7 active torsions:
REMARK  status: ('A' for Active; 'I' for Inactive)
REMARK    1  A    between atoms: N_1  and  C_17
REMARK    2  A    between atoms: C_2  and  C_9
REMARK    3  A    between atoms: C_2  and  O_15
REMARK    4  A    between atoms: C_17  and  C_18
REMARK    5  A    between atoms: C_18  and  C_19
REMARK    6  A    between atoms: C_19  and  C_21
REMARK    7  A    between atoms: C_21  and  C_23
REMARK                            x       y       z     vdW  Elec       q    Type
REMARK                         _______ _______ _______ _____ _____    ______ ____
ROOT
ATOM      1  N   UNL     1      34.686 -19.822 -20.328  0.00  0.00    +0.387 N 
ATOM      2  C   UNL     1      34.180 -22.156 -18.562  0.00  0.00    +0.103 C 
ATOM      3  C   UNL     1      33.083 -21.168 -19.019  0.00  0.00    +0.008 C 
ATOM      4  C   UNL     1      35.553 -21.453 -18.670  0.00  0.00    +0.008 C 
ATOM      5  C   UNL     1      33.392 -20.509 -20.368  0.00  0.00    -0.075 C 
ATOM      6  C   UNL     1      35.773 -20.758 -20.020  0.00  0.00    -0.075 C 
ATOM      7  H   UNL     1      34.651 -19.126 -19.583  0.00  0.00    -0.080 HD
ENDROOT
BRANCH   2   9
ATOM      8 CL   UNL     1      33.404 -24.440 -13.027  0.00  0.00    -0.082 Cl
ATOM      9  C   UNL     1      33.984 -22.736 -17.161  0.00  0.00    +0.002 C 
ATOM     10  C   UNL     1      32.710 -23.108 -16.734  0.00  0.00    -0.001 C 
ATOM     11  C   UNL     1      35.079 -22.890 -16.312  0.00  0.00    -0.001 C 
ATOM     12  C   UNL     1      32.531 -23.637 -15.455  0.00  0.00    +0.011 C 
ATOM     13  C   UNL     1      34.899 -23.418 -15.033  0.00  0.00    +0.011 C 
ATOM     14  C   UNL     1      33.626 -23.791 -14.606  0.00  0.00    +0.058 C 
ENDBRANCH   2   9
BRANCH   2  15
ATOM     15  O   UNL     1      34.150 -23.284 -19.450  0.00  0.00    -0.383 OA
ATOM     16  H   UNL     1      35.011 -23.373 -19.889  0.00  0.00    +0.211 HD
ENDBRANCH   2  15
BRANCH   1  17
ATOM     17  C   UNL     1      34.943 -19.137 -21.595  0.00  0.00    -0.077 C 
BRANCH  17  18
ATOM     18  C   UNL     1      35.889 -17.954 -21.374  0.00  0.00    -0.015 C 
BRANCH  18  19
ATOM     19  C   UNL     1      35.171 -16.739 -20.782  0.00  0.00    +0.067 C 
BRANCH  19  21
ATOM     20  O   UNL     1      35.491 -15.581 -22.876  0.00  0.00    -0.291 OA
ATOM     21  C   UNL     1      34.895 -15.644 -21.803  0.00  0.00    +0.173 C 
BRANCH  21  23
ATOM     22  F   UNL     1      30.971 -11.843 -20.652  0.00  0.00    -0.204 F 
ATOM     23  C   UNL     1      33.849 -14.627 -21.495  0.00  0.00    +0.035 C 
ATOM     24  C   UNL     1      33.417 -13.798 -22.505  0.00  0.00    +0.005 C 
ATOM     25  C   UNL     1      33.351 -14.558 -20.212  0.00  0.00    +0.005 C 
ATOM     26  C   UNL     1      32.436 -12.848 -22.218  0.00  0.00    +0.030 C 
ATOM     27  C   UNL     1      32.371 -13.609 -19.925  0.00  0.00    +0.030 C 
ATOM     28  C   UNL     1      31.912 -12.754 -20.928  0.00  0.00    +0.140 C 
ENDBRANCH  21  23
ENDBRANCH  19  21
ENDBRANCH  18  19
ENDBRANCH  17  18
ENDBRANCH   1  17
TORSDOF 7
ENDMDL
MODEL 6
REMARK VINA RESULT:     -10.7      5.619     10.779
REMARK  Name = 3559
REMARK  7 active torsions:
REMARK  status: ('A' for Active; 'I' for Inactive)
REMARK    1  A    between atoms: N_1  and  C_17
REMARK    2  A    between atoms: C_2  and  C_9
REMARK    3  A    between atoms: C_2  and  O_15
REMARK    4  A    between atoms: C_17  and  C_18
REMARK    5  A    between atoms: C_18  and  C_19
REMARK    6  A    between atoms: C_19  and  C_21
REMARK    7  A    between atoms: C_21  and  C_23
REMARK                            x       y       z     vdW  Elec       q    Type
REMARK                         _______ _______ _______ _____ _____    ______ ____
ROOT
ATOM      1  N   UNL     1      33.088 -23.309 -14.969  0.00  0.00    +0.387 N 
ATOM      2  C   UNL     1      33.847 -22.718 -17.780  0.00  0.00    +0.103 C 
ATOM      3  C   UNL     1      34.857 -22.795 -16.613  0.00  0.00    +0.008 C 
ATOM      4  C   UNL     1      32.444 -22.427 -17.199  0.00  0.00    +0.008 C 
ATOM      5  C   UNL     1      34.398 -23.722 -15.481  0.00  0.00    -0.075 C 
ATOM      6  C   UNL     1      32.072 -23.346 -16.027  0.00  0.00    -0.075 C 
ATOM      7  H   UNL     1      33.166 -22.346 -14.642  0.00  0.00    -0.080 HD
ENDROOT
BRANCH   2   9
ATOM      8 CL   UNL     1      35.225 -18.709 -22.080  0.00  0.00    -0.082 Cl
ATOM      9  C   UNL     1      34.196 -21.704 -18.870  0.00  0.00    +0.002 C 
ATOM     10  C   UNL     1      35.530 -21.442 -19.175  0.00  0.00    -0.001 C 
ATOM     11  C   UNL     1      33.179 -21.042 -19.556  0.00  0.00    -0.001 C 
ATOM     12  C   UNL     1      35.849 -20.516 -20.169  0.00  0.00    +0.011 C 
ATOM     13  C   UNL     1      33.497 -20.117 -20.549  0.00  0.00    +0.011 C 
ATOM     14  C   UNL     1      34.832 -19.854 -20.855  0.00  0.00    +0.058 C 
ENDBRANCH   2   9
BRANCH   2  15
ATOM     15  O   UNL     1      33.837 -23.995 -18.436  0.00  0.00    -0.383 OA
ATOM     16  H   UNL     1      34.425 -24.606 -17.962  0.00  0.00    +0.211 HD
ENDBRANCH   2  15
BRANCH   1  17
ATOM     17  C   UNL     1      32.687 -24.153 -13.843  0.00  0.00    -0.077 C 
BRANCH  17  18
ATOM     18  C   UNL     1      33.899 -24.907 -13.291  0.00  0.00    -0.015 C 
BRANCH  18  19
ATOM     19  C   UNL     1      34.587 -24.145 -12.154  0.00  0.00    +0.067 C 
BRANCH  19  21
ATOM     20  O   UNL     1      35.946 -25.291 -10.520  0.00  0.00    -0.291 OA
ATOM     21  C   UNL     1      35.854 -24.824 -11.653  0.00  0.00    +0.173 C 
BRANCH  21  23
ATOM     22  F   UNL     1      40.194 -25.282 -15.137  0.00  0.00    -0.204 F 
ATOM     23  C   UNL     1      37.014 -24.946 -12.582  0.00  0.00    +0.035 C 
ATOM     24  C   UNL     1      37.840 -26.040 -12.467  0.00  0.00    +0.005 C 
ATOM     25  C   UNL     1      37.214 -23.959 -13.523  0.00  0.00    +0.005 C 
ATOM     26  C   UNL     1      38.925 -26.155 -13.338  0.00  0.00    +0.030 C 
ATOM     27  C   UNL     1      38.298 -24.074 -14.394  0.00  0.00    +0.030 C 
ATOM     28  C   UNL     1      39.153 -25.172 -14.301  0.00  0.00    +0.140 C 
ENDBRANCH  21  23
ENDBRANCH  19  21
ENDBRANCH  18  19
ENDBRANCH  17  18
ENDBRANCH   1  17
TORSDOF 7
ENDMDL
MODEL 7
REMARK VINA RESULT:     -10.4      3.215      5.441
REMARK  Name = 3559
REMARK  7 active torsions:
REMARK  status: ('A' for Active; 'I' for Inactive)
REMARK    1  A    between atoms: N_1  and  C_17
REMARK    2  A    between atoms: C_2  and  C_9
REMARK    3  A    between atoms: C_2  and  O_15
REMARK    4  A    between atoms: C_17  and  C_18
REMARK    5  A    between atoms: C_18  and  C_19
REMARK    6  A    between atoms: C_19  and  C_21
REMARK    7  A    between atoms: C_21  and  C_23
REMARK                            x       y       z     vdW  Elec       q    Type
REMARK                         _______ _______ _______ _____ _____    ______ ____
ROOT
ATOM      1  N   UNL     1      34.550 -16.336 -23.323  0.00  0.00    +0.387 N 
ATOM      2  C   UNL     1      35.331 -18.689 -21.687  0.00  0.00    +0.103 C 
ATOM      3  C   UNL     1      34.617 -18.789 -23.054  0.00  0.00    +0.008 C 
ATOM      4  C   UNL     1      35.055 -17.291 -21.088  0.00  0.00    +0.008 C 
ATOM      5  C   UNL     1      34.911 -17.599 -23.974  0.00  0.00    -0.075 C 
ATOM      6  C   UNL     1      35.306 -16.147 -22.080  0.00  0.00    -0.075 C 
ATOM      7  H   UNL     1      33.559 -16.376 -23.086  0.00  0.00    -0.080 HD
ENDROOT
BRANCH   2   9
ATOM      8 CL   UNL     1      33.876 -23.015 -17.733  0.00  0.00    -0.082 Cl
ATOM      9  C   UNL     1      34.962 -19.783 -20.685  0.00  0.00    +0.002 C 
ATOM     10  C   UNL     1      35.966 -20.466 -19.999  0.00  0.00    -0.001 C 
ATOM     11  C   UNL     1      33.623 -20.099 -20.459  0.00  0.00    -0.001 C 
ATOM     12  C   UNL     1      35.630 -21.465 -19.085  0.00  0.00    +0.011 C 
ATOM     13  C   UNL     1      33.287 -21.097 -19.546  0.00  0.00    +0.011 C 
ATOM     14  C   UNL     1      34.291 -21.780 -18.859  0.00  0.00    +0.058 C 
ENDBRANCH   2   9
BRANCH   2  15
ATOM     15  O   UNL     1      36.740 -18.841 -21.917  0.00  0.00    -0.383 OA
ATOM     16  H   UNL     1      36.980 -18.407 -22.751  0.00  0.00    +0.211 HD
ENDBRANCH   2  15
BRANCH   1  17
ATOM     17  C   UNL     1      34.767 -15.210 -24.232  0.00  0.00    -0.077 C 
BRANCH  17  18
ATOM     18  C   UNL     1      33.432 -14.550 -24.584  0.00  0.00    -0.015 C 
BRANCH  18  19
ATOM     19  C   UNL     1      32.744 -13.942 -23.359  0.00  0.00    +0.067 C 
BRANCH  19  21
ATOM     20  O   UNL     1      33.612 -11.796 -24.046  0.00  0.00    -0.291 OA
ATOM     21  C   UNL     1      32.993 -12.448 -23.208  0.00  0.00    +0.173 C 
BRANCH  21  23
ATOM     22  F   UNL     1      30.942  -9.834 -18.720  0.00  0.00    -0.204 F 
ATOM     23  C   UNL     1      32.443 -11.750 -22.010  0.00  0.00    +0.035 C 
ATOM     24  C   UNL     1      32.393 -12.431 -20.814  0.00  0.00    +0.005 C 
ATOM     25  C   UNL     1      32.008 -10.450 -22.143  0.00  0.00    +0.005 C 
ATOM     26  C   UNL     1      31.881 -11.778 -19.693  0.00  0.00    +0.030 C 
ATOM     27  C   UNL     1      31.496  -9.797 -21.022  0.00  0.00    +0.030 C 
ATOM     28  C   UNL     1      31.433 -10.461 -19.796  0.00  0.00    +0.140 C 
ENDBRANCH  21  23
ENDBRANCH  19  21
ENDBRANCH  18  19
ENDBRANCH  17  18
ENDBRANCH   1  17
TORSDOF 7
ENDMDL
MODEL 8
REMARK VINA RESULT:     -10.3      4.709      9.945
REMARK  Name = 3559
REMARK  7 active torsions:
REMARK  status: ('A' for Active; 'I' for Inactive)
REMARK    1  A    between atoms: N_1  and  C_17
REMARK    2  A    between atoms: C_2  and  C_9
REMARK    3  A    between atoms: C_2  and  O_15
REMARK    4  A    between atoms: C_17  and  C_18
REMARK    5  A    between atoms: C_18  and  C_19
REMARK    6  A    between atoms: C_19  and  C_21
REMARK    7  A    between atoms: C_21  and  C_23
REMARK                            x       y       z     vdW  Elec       q    Type
REMARK                         _______ _______ _______ _____ _____    ______ ____
ROOT
ATOM      1  N   UNL     1      35.907 -20.296 -19.456  0.00  0.00    +0.387 N 
ATOM      2  C   UNL     1      35.430 -18.502 -21.775  0.00  0.00    +0.103 C 
ATOM      3  C   UNL     1      36.737 -18.514 -20.950  0.00  0.00    +0.008 C 
ATOM      4  C   UNL     1      34.294 -19.090 -20.907  0.00  0.00    +0.008 C 
ATOM      5  C   UNL     1      37.026 -19.874 -20.303  0.00  0.00    -0.075 C 
ATOM      6  C   UNL     1      34.670 -20.418 -20.237  0.00  0.00    -0.075 C 
ATOM      7  H   UNL     1      35.761 -19.580 -18.746  0.00  0.00    -0.080 HD
ENDROOT
BRANCH   2   9
ATOM      8 CL   UNL     1      33.838 -13.100 -23.954  0.00  0.00    -0.082 Cl
ATOM      9  C   UNL     1      35.028 -17.134 -22.327  0.00  0.00    +0.002 C 
ATOM     10  C   UNL     1      34.955 -16.033 -21.475  0.00  0.00    -0.001 C 
ATOM     11  C   UNL     1      34.734 -16.988 -23.682  0.00  0.00    -0.001 C 
ATOM     12  C   UNL     1      34.587 -14.785 -21.978  0.00  0.00    +0.011 C 
ATOM     13  C   UNL     1      34.367 -15.741 -24.185  0.00  0.00    +0.011 C 
ATOM     14  C   UNL     1      34.293 -14.640 -23.333  0.00  0.00    +0.058 C 
ENDBRANCH   2   9
BRANCH   2  15
ATOM     15  O   UNL     1      35.632 -19.334 -22.927  0.00  0.00    -0.383 OA
ATOM     16  H   UNL     1      36.122 -18.838 -23.602  0.00  0.00    +0.211 HD
ENDBRANCH   2  15
BRANCH   1  17
ATOM     17  C   UNL     1      36.218 -21.560 -18.787  0.00  0.00    -0.077 C 
BRANCH  17  18
ATOM     18  C   UNL     1      34.993 -22.478 -18.798  0.00  0.00    -0.015 C 
BRANCH  18  19
ATOM     19  C   UNL     1      34.484 -22.782 -17.387  0.00  0.00    +0.067 C 
BRANCH  19  21
ATOM     20  O   UNL     1      32.277 -22.162 -18.143  0.00  0.00    -0.291 OA
ATOM     21  C   UNL     1      32.979 -22.603 -17.237  0.00  0.00    +0.173 C 
BRANCH  21  23
ATOM     22  F   UNL     1      30.576 -24.101 -12.425  0.00  0.00    -0.204 F 
ATOM     23  C   UNL     1      32.338 -23.002 -15.951  0.00  0.00    +0.035 C 
ATOM     24  C   UNL     1      30.963 -23.009 -15.874  0.00  0.00    +0.005 C 
ATOM     25  C   UNL     1      33.144 -23.349 -14.889  0.00  0.00    +0.005 C 
ATOM     26  C   UNL     1      30.362 -23.384 -14.672  0.00  0.00    +0.030 C 
ATOM     27  C   UNL     1      32.543 -23.724 -13.688  0.00  0.00    +0.030 C 
ATOM     28  C   UNL     1      31.152 -23.742 -13.579  0.00  0.00    +0.140 C 
ENDBRANCH  21  23
ENDBRANCH  19  21
ENDBRANCH  18  19
ENDBRANCH  17  18
ENDBRANCH   1  17
TORSDOF 7
ENDMDL
MODEL 9
REMARK VINA RESULT:     -10.1      3.617      6.088
REMARK  Name = 3559
REMARK  7 active torsions:
REMARK  status: ('A' for Active; 'I' for Inactive)
REMARK    1  A    between atoms: N_1  and  C_17
REMARK    2  A    between atoms: C_2  and  C_9
REMARK    3  A    between atoms: C_2  and  O_15
REMARK    4  A    between atoms: C_17  and  C_18
REMARK    5  A    between atoms: C_18  and  C_19
REMARK    6  A    between atoms: C_19  and  C_21
REMARK    7  A    between atoms: C_21  and  C_23
REMARK                            x       y       z     vdW  Elec       q    Type
REMARK                         _______ _______ _______ _____ _____    ______ ____
ROOT
ATOM      1  N   UNL     1      34.285 -15.802 -23.237  0.00  0.00    +0.387 N 
ATOM      2  C   UNL     1      35.409 -18.134 -21.780  0.00  0.00    +0.103 C 
ATOM      3  C   UNL     1      34.693 -18.235 -23.145  0.00  0.00    +0.008 C 
ATOM      4  C   UNL     1      34.954 -16.833 -21.080  0.00  0.00    +0.008 C 
ATOM      5  C   UNL     1      34.805 -16.954 -23.980  0.00  0.00    -0.075 C 
ATOM      6  C   UNL     1      35.029 -15.599 -21.989  0.00  0.00    -0.075 C 
ATOM      7  H   UNL     1      33.313 -15.995 -22.996  0.00  0.00    -0.080 HD
ENDROOT
BRANCH   2   9
ATOM      8 CL   UNL     1      34.625 -22.885 -18.136  0.00  0.00    -0.082 Cl
ATOM      9  C   UNL     1      35.210 -19.336 -20.856  0.00  0.00    +0.002 C 
ATOM     10  C   UNL     1      36.314 -19.954 -20.271  0.00  0.00    -0.001 C 
ATOM     11  C   UNL     1      33.926 -19.813 -20.600  0.00  0.00    -0.001 C 
ATOM     12  C   UNL     1      36.133 -21.052 -19.429  0.00  0.00    +0.011 C 
ATOM     13  C   UNL     1      33.745 -20.910 -19.759  0.00  0.00    +0.011 C 
ATOM     14  C   UNL     1      34.849 -21.529 -19.174  0.00  0.00    +0.058 C 
ENDBRANCH   2   9
BRANCH   2  15
ATOM     15  O   UNL     1      36.821 -18.074 -22.030  0.00  0.00    -0.383 OA
ATOM     16  H   UNL     1      37.245 -17.521 -21.354  0.00  0.00    +0.211 HD
ENDBRANCH   2  15
BRANCH   1  17
ATOM     17  C   UNL     1      34.331 -14.596 -24.064  0.00  0.00    -0.077 C 
BRANCH  17  18
ATOM     18  C   UNL     1      34.299 -13.348 -23.179  0.00  0.00    -0.015 C 
BRANCH  18  19
ATOM     19  C   UNL     1      33.559 -12.183 -23.844  0.00  0.00    +0.067 C 
BRANCH  19  21
ATOM     20  O   UNL     1      31.658 -12.066 -22.361  0.00  0.00    -0.291 OA
ATOM     21  C   UNL     1      32.584 -11.477 -22.913  0.00  0.00    +0.173 C 
BRANCH  21  23
ATOM     22  F   UNL     1      33.320  -6.035 -21.903  0.00  0.00    -0.204 F 
ATOM     23  C   UNL     1      32.780 -10.023 -22.645  0.00  0.00    +0.035 C 
ATOM     24  C   UNL     1      31.983  -9.413 -21.702  0.00  0.00    +0.005 C 
ATOM     25  C   UNL     1      33.751  -9.345 -23.348  0.00  0.00    +0.005 C 
ATOM     26  C   UNL     1      32.167  -8.053 -21.449  0.00  0.00    +0.030 C 
ATOM     27  C   UNL     1      33.936  -7.986 -23.096  0.00  0.00    +0.030 C 
ATOM     28  C   UNL     1      33.143  -7.340 -22.146  0.00  0.00    +0.140 C 
ENDBRANCH  21  23
ENDBRANCH  19  21
ENDBRANCH  18  19
ENDBRANCH  17  18
ENDBRANCH   1  17
TORSDOF 7
ENDMDL
