MODEL 1
REMARK VINA RESULT:     -11.0      0.000      0.000
REMARK  Name = 16122554
REMARK  11 active torsions:
REMARK  status: ('A' for Active; 'I' for Inactive)
REMARK    1  A    between atoms: C_1  and  C_19
REMARK    2  A    between atoms: C_3  and  C_7
REMARK    3  A    between atoms: C_10  and  C_13
REMARK    4  A    between atoms: C_19  and  C_20
REMARK    5  A    between atoms: C_20  and  P_21
REMARK    6  A    between atoms: C_20  and  P_27
REMARK    7  A    between atoms: C_20  and  O_33
REMARK    8  A    between atoms: P_21  and  O_23
REMARK    9  A    between atoms: P_21  and  O_25
REMARK   10  A    between atoms: P_27  and  O_29
REMARK   11  A    between atoms: P_27  and  O_31
REMARK                            x       y       z     vdW  Elec       q    Type
REMARK                         _______ _______ _______ _____ _____    ______ ____
ROOT
ATOM      1  C   UNL     1      33.279 -23.704 -16.084  0.00  0.00    -0.019 C 
ATOM      2  C   UNL     1      33.310 -22.879 -17.199  0.00  0.00    -0.004 C 
ATOM      3  C   UNL     1      34.509 -22.270 -17.567  0.00  0.00    -0.000 C 
ATOM      4  C   UNL     1      34.419 -23.934 -15.329  0.00  0.00    -0.004 C 
ATOM      5  C   UNL     1      35.664 -22.493 -16.816  0.00  0.00    -0.000 C 
ATOM      6  C   UNL     1      35.619 -23.324 -15.696  0.00  0.00    -0.000 C 
ENDROOT
BRANCH   3   7
ATOM      7  C   UNL     1      34.557 -21.407 -18.727  0.00  0.00    -0.000 C 
ATOM      8  C   UNL     1      35.786 -20.968 -19.221  0.00  0.00    -0.000 C 
ATOM      9  C   UNL     1      33.374 -21.015 -19.353  0.00  0.00    -0.000 C 
ATOM     10  C   UNL     1      34.648 -19.743 -20.964  0.00  0.00    +0.000 C 
ATOM     11  C   UNL     1      35.831 -20.136 -20.339  0.00  0.00    -0.000 C 
ATOM     12  C   UNL     1      33.419 -20.183 -20.471  0.00  0.00    -0.000 C 
BRANCH  10  13
ATOM     13  C   UNL     1      34.695 -18.880 -22.124  0.00  0.00    +0.000 C 
ATOM     14  C   UNL     1      35.242 -17.602 -22.020  0.00  0.00    +0.000 C 
ATOM     15  C   UNL     1      34.193 -19.326 -23.346  0.00  0.00    +0.000 C 
ATOM     16  C   UNL     1      35.286 -16.769 -23.139  0.00  0.00    +0.000 C 
ATOM     17  C   UNL     1      34.237 -18.494 -24.465  0.00  0.00    +0.000 C 
ATOM     18  C   UNL     1      34.784 -17.215 -24.361  0.00  0.00    +0.000 C 
ENDBRANCH  10  13
ENDBRANCH   3   7
BRANCH   1  19
ATOM     19  C   UNL     1      31.983 -24.365 -15.686  0.00  0.00    +0.077 C 
BRANCH  19  20
ATOM     20  C   UNL     1      31.115 -23.625 -14.636  0.00  0.00    +0.279 C 
BRANCH  20  21
ATOM     21  P   UNL     1      30.957 -24.524 -13.055  0.00  0.00    +0.372 P 
ATOM     22  O   UNL     1      30.632 -23.675 -11.861  0.00  0.00    -0.255 OA
BRANCH  21  23
ATOM     23  O   UNL     1      32.343 -25.350 -12.958  0.00  0.00    -0.322 OA
ATOM     24  H   UNL     1      32.430 -25.732 -12.070  0.00  0.00    +0.220 HD
ENDBRANCH  21  23
BRANCH  21  25
ATOM     25  O   UNL     1      29.868 -25.675 -13.373  0.00  0.00    -0.322 OA
ATOM     26  H   UNL     1      29.027 -25.450 -12.947  0.00  0.00    +0.220 HD
ENDBRANCH  21  25
ENDBRANCH  20  21
BRANCH  20  27
ATOM     27  P   UNL     1      29.620 -22.985 -15.517  0.00  0.00    +0.372 P 
ATOM     28  O   UNL     1      29.900 -22.354 -16.849  0.00  0.00    -0.255 OA
BRANCH  27  29
ATOM     29  O   UNL     1      28.644 -24.273 -15.557  0.00  0.00    -0.322 OA
ATOM     30  H   UNL     1      29.051 -25.001 -15.062  0.00  0.00    +0.220 HD
ENDBRANCH  27  29
BRANCH  27  31
ATOM     31  O   UNL     1      28.914 -22.013 -14.436  0.00  0.00    -0.322 OA
ATOM     32  H   UNL     1      28.557 -22.545 -13.708  0.00  0.00    +0.220 HD
ENDBRANCH  27  31
ENDBRANCH  20  27
BRANCH  20  33
ATOM     33  O   UNL     1      31.755 -22.403 -14.266  0.00  0.00    -0.366 OA
ATOM     34  H   UNL     1      32.710 -22.478 -14.421  0.00  0.00    +0.212 HD
ENDBRANCH  20  33
ENDBRANCH  19  20
ENDBRANCH   1  19
TORSDOF 11
ENDMDL
MODEL 2
REMARK VINA RESULT:     -10.3      1.254      2.065
REMARK  Name = 16122554
REMARK  11 active torsions:
REMARK  status: ('A' for Active; 'I' for Inactive)
REMARK    1  A    between atoms: C_1  and  C_19
REMARK    2  A    between atoms: C_3  and  C_7
REMARK    3  A    between atoms: C_10  and  C_13
REMARK    4  A    between atoms: C_19  and  C_20
REMARK    5  A    between atoms: C_20  and  P_21
REMARK    6  A    between atoms: C_20  and  P_27
REMARK    7  A    between atoms: C_20  and  O_33
REMARK    8  A    between atoms: P_21  and  O_23
REMARK    9  A    between atoms: P_21  and  O_25
REMARK   10  A    between atoms: P_27  and  O_29
REMARK   11  A    between atoms: P_27  and  O_31
REMARK                            x       y       z     vdW  Elec       q    Type
REMARK                         _______ _______ _______ _____ _____    ______ ____
ROOT
ATOM      1  C   UNL     1      34.926 -23.363 -16.260  0.00  0.00    -0.019 C 
ATOM      2  C   UNL     1      34.718 -22.566 -17.375  0.00  0.00    -0.004 C 
ATOM      3  C   UNL     1      35.749 -21.743 -17.830  0.00  0.00    -0.000 C 
ATOM      4  C   UNL     1      36.139 -23.357 -15.589  0.00  0.00    -0.004 C 
ATOM      5  C   UNL     1      36.975 -21.727 -17.164  0.00  0.00    -0.000 C 
ATOM      6  C   UNL     1      37.170 -22.534 -16.043  0.00  0.00    -0.000 C 
ENDROOT
BRANCH   3   7
ATOM      7  C   UNL     1      35.547 -20.905 -18.993  0.00  0.00    -0.000 C 
ATOM      8  C   UNL     1      34.286 -20.821 -19.582  0.00  0.00    -0.000 C 
ATOM      9  C   UNL     1      36.614 -20.181 -19.523  0.00  0.00    -0.000 C 
ATOM     10  C   UNL     1      35.159 -19.289 -21.233  0.00  0.00    +0.000 C 
ATOM     11  C   UNL     1      34.091 -20.014 -20.702  0.00  0.00    -0.000 C 
ATOM     12  C   UNL     1      36.420 -19.373 -20.643  0.00  0.00    -0.000 C 
BRANCH  10  13
ATOM     13  C   UNL     1      34.958 -18.452 -22.395  0.00  0.00    +0.000 C 
ATOM     14  C   UNL     1      35.360 -17.117 -22.371  0.00  0.00    +0.000 C 
ATOM     15  C   UNL     1      34.360 -18.979 -23.540  0.00  0.00    +0.000 C 
ATOM     16  C   UNL     1      35.164 -16.309 -23.491  0.00  0.00    +0.000 C 
ATOM     17  C   UNL     1      34.164 -18.172 -24.661  0.00  0.00    +0.000 C 
ATOM     18  C   UNL     1      34.567 -16.837 -24.636  0.00  0.00    +0.000 C 
ENDBRANCH  10  13
ENDBRANCH   3   7
BRANCH   1  19
ATOM     19  C   UNL     1      33.813 -24.255 -15.768  0.00  0.00    +0.077 C 
BRANCH  19  20
ATOM     20  C   UNL     1      32.879 -23.671 -14.679  0.00  0.00    +0.279 C 
BRANCH  20  21
ATOM     21  P   UNL     1      33.078 -24.461 -13.046  0.00  0.00    +0.372 P 
ATOM     22  O   UNL     1      31.966 -25.382 -12.635  0.00  0.00    -0.255 OA
BRANCH  21  23
ATOM     23  O   UNL     1      33.338 -23.209 -12.057  0.00  0.00    -0.322 OA
ATOM     24  H   UNL     1      33.008 -23.424 -11.170  0.00  0.00    +0.220 HD
ENDBRANCH  21  23
BRANCH  21  25
ATOM     25  O   UNL     1      34.530 -25.166 -13.133  0.00  0.00    -0.322 OA
ATOM     26  H   UNL     1      34.490 -25.912 -13.751  0.00  0.00    +0.220 HD
ENDBRANCH  21  25
ENDBRANCH  20  21
BRANCH  20  27
ATOM     27  P   UNL     1      31.205 -23.477 -15.442  0.00  0.00    +0.372 P 
ATOM     28  O   UNL     1      30.454 -24.761 -15.639  0.00  0.00    -0.255 OA
BRANCH  27  29
ATOM     29  O   UNL     1      30.488 -22.401 -14.472  0.00  0.00    -0.322 OA
ATOM     30  H   UNL     1      30.780 -21.508 -14.709  0.00  0.00    +0.220 HD
ENDBRANCH  27  29
BRANCH  27  31
ATOM     31  O   UNL     1      31.484 -22.635 -16.792  0.00  0.00    -0.322 OA
ATOM     32  H   UNL     1      32.438 -22.617 -16.971  0.00  0.00    +0.220 HD
ENDBRANCH  27  31
ENDBRANCH  20  27
BRANCH  20  33
ATOM     33  O   UNL     1      33.226 -22.306 -14.438  0.00  0.00    -0.366 OA
ATOM     34  H   UNL     1      33.643 -22.228 -13.565  0.00  0.00    +0.212 HD
ENDBRANCH  20  33
ENDBRANCH  19  20
ENDBRANCH   1  19
TORSDOF 11
ENDMDL
MODEL 3
REMARK VINA RESULT:     -10.2      1.701      2.658
REMARK  Name = 16122554
REMARK  11 active torsions:
REMARK  status: ('A' for Active; 'I' for Inactive)
REMARK    1  A    between atoms: C_1  and  C_19
REMARK    2  A    between atoms: C_3  and  C_7
REMARK    3  A    between atoms: C_10  and  C_13
REMARK    4  A    between atoms: C_19  and  C_20
REMARK    5  A    between atoms: C_20  and  P_21
REMARK    6  A    between atoms: C_20  and  P_27
REMARK    7  A    between atoms: C_20  and  O_33
REMARK    8  A    between atoms: P_21  and  O_23
REMARK    9  A    between atoms: P_21  and  O_25
REMARK   10  A    between atoms: P_27  and  O_29
REMARK   11  A    between atoms: P_27  and  O_31
REMARK                            x       y       z     vdW  Elec       q    Type
REMARK                         _______ _______ _______ _____ _____    ______ ____
ROOT
ATOM      1  C   UNL     1      35.338 -23.220 -16.091  0.00  0.00    -0.019 C 
ATOM      2  C   UNL     1      35.039 -22.486 -17.229  0.00  0.00    -0.004 C 
ATOM      3  C   UNL     1      36.021 -21.674 -17.797  0.00  0.00    -0.000 C 
ATOM      4  C   UNL     1      36.594 -23.161 -15.507  0.00  0.00    -0.004 C 
ATOM      5  C   UNL     1      37.289 -21.604 -17.219  0.00  0.00    -0.000 C 
ATOM      6  C   UNL     1      37.576 -22.348 -16.074  0.00  0.00    -0.000 C 
ENDROOT
BRANCH   3   7
ATOM      7  C   UNL     1      35.724 -20.902 -18.984  0.00  0.00    -0.000 C 
ATOM      8  C   UNL     1      36.727 -20.151 -19.598  0.00  0.00    -0.000 C 
ATOM      9  C   UNL     1      34.435 -20.909 -19.516  0.00  0.00    -0.000 C 
ATOM     10  C   UNL     1      35.151 -19.414 -21.274  0.00  0.00    +0.000 C 
ATOM     11  C   UNL     1      36.441 -19.408 -20.742  0.00  0.00    -0.000 C 
ATOM     12  C   UNL     1      34.148 -20.166 -20.661  0.00  0.00    -0.000 C 
BRANCH  10  13
ATOM     13  C   UNL     1      34.854 -18.643 -22.461  0.00  0.00    +0.000 C 
ATOM     14  C   UNL     1      34.194 -19.240 -23.534  0.00  0.00    +0.000 C 
ATOM     15  C   UNL     1      35.230 -17.301 -22.532  0.00  0.00    +0.000 C 
ATOM     16  C   UNL     1      33.909 -18.496 -24.679  0.00  0.00    +0.000 C 
ATOM     17  C   UNL     1      34.945 -16.557 -23.677  0.00  0.00    +0.000 C 
ATOM     18  C   UNL     1      34.284 -17.155 -24.750  0.00  0.00    +0.000 C 
ENDBRANCH  10  13
ENDBRANCH   3   7
BRANCH   1  19
ATOM     19  C   UNL     1      34.278 -24.101 -15.477  0.00  0.00    +0.077 C 
BRANCH  19  20
ATOM     20  C   UNL     1      33.875 -23.792 -14.013  0.00  0.00    +0.279 C 
BRANCH  20  21
ATOM     21  P   UNL     1      35.097 -24.360 -12.783  0.00  0.00    +0.372 P 
ATOM     22  O   UNL     1      36.052 -23.312 -12.292  0.00  0.00    -0.255 OA
BRANCH  21  23
ATOM     23  O   UNL     1      35.782 -25.635 -13.502  0.00  0.00    -0.322 OA
ATOM     24  H   UNL     1      36.046 -26.283 -12.829  0.00  0.00    +0.220 HD
ENDBRANCH  21  23
BRANCH  21  25
ATOM     25  O   UNL     1      34.194 -25.036 -11.626  0.00  0.00    -0.322 OA
ATOM     26  H   UNL     1      34.343 -25.994 -11.618  0.00  0.00    +0.220 HD
ENDBRANCH  21  25
ENDBRANCH  20  21
BRANCH  20  27
ATOM     27  P   UNL     1      32.083 -24.219 -13.839  0.00  0.00    +0.372 P 
ATOM     28  O   UNL     1      31.240 -23.882 -15.033  0.00  0.00    -0.255 OA
BRANCH  27  29
ATOM     29  O   UNL     1      32.122 -25.786 -13.443  0.00  0.00    -0.322 OA
ATOM     30  H   UNL     1      31.319 -26.014 -12.950  0.00  0.00    +0.220 HD
ENDBRANCH  27  29
BRANCH  27  31
ATOM     31  O   UNL     1      31.640 -23.496 -12.463  0.00  0.00    -0.322 OA
ATOM     32  H   UNL     1      31.011 -24.062 -11.989  0.00  0.00    +0.220 HD
ENDBRANCH  27  31
ENDBRANCH  20  27
BRANCH  20  33
ATOM     33  O   UNL     1      33.835 -22.377 -13.820  0.00  0.00    -0.366 OA
ATOM     34  H   UNL     1      33.522 -22.181 -12.922  0.00  0.00    +0.212 HD
ENDBRANCH  20  33
ENDBRANCH  19  20
ENDBRANCH   1  19
TORSDOF 11
ENDMDL
MODEL 4
REMARK VINA RESULT:      -9.2      0.831      2.520
REMARK  Name = 16122554
REMARK  11 active torsions:
REMARK  status: ('A' for Active; 'I' for Inactive)
REMARK    1  A    between atoms: C_1  and  C_19
REMARK    2  A    between atoms: C_3  and  C_7
REMARK    3  A    between atoms: C_10  and  C_13
REMARK    4  A    between atoms: C_19  and  C_20
REMARK    5  A    between atoms: C_20  and  P_21
REMARK    6  A    between atoms: C_20  and  P_27
REMARK    7  A    between atoms: C_20  and  O_33
REMARK    8  A    between atoms: P_21  and  O_23
REMARK    9  A    between atoms: P_21  and  O_25
REMARK   10  A    between atoms: P_27  and  O_29
REMARK   11  A    between atoms: P_27  and  O_31
REMARK                            x       y       z     vdW  Elec       q    Type
REMARK                         _______ _______ _______ _____ _____    ______ ____
ROOT
ATOM      1  C   UNL     1      33.006 -22.996 -15.412  0.00  0.00    -0.019 C 
ATOM      2  C   UNL     1      33.085 -22.212 -16.553  0.00  0.00    -0.004 C 
ATOM      3  C   UNL     1      34.194 -22.333 -17.391  0.00  0.00    -0.000 C 
ATOM      4  C   UNL     1      34.008 -23.898 -15.089  0.00  0.00    -0.004 C 
ATOM      5  C   UNL     1      35.210 -23.237 -17.077  0.00  0.00    -0.000 C 
ATOM      6  C   UNL     1      35.118 -24.019 -15.926  0.00  0.00    -0.000 C 
ENDROOT
BRANCH   3   7
ATOM      7  C   UNL     1      34.291 -21.522 -18.585  0.00  0.00    -0.000 C 
ATOM      8  C   UNL     1      33.134 -21.053 -19.207  0.00  0.00    -0.000 C 
ATOM      9  C   UNL     1      35.543 -21.207 -19.113  0.00  0.00    -0.000 C 
ATOM     10  C   UNL     1      34.480 -19.957 -20.887  0.00  0.00    +0.000 C 
ATOM     11  C   UNL     1      33.228 -20.271 -20.358  0.00  0.00    -0.000 C 
ATOM     12  C   UNL     1      35.638 -20.425 -20.265  0.00  0.00    -0.000 C 
BRANCH  10  13
ATOM     13  C   UNL     1      34.578 -19.146 -22.080  0.00  0.00    +0.000 C 
ATOM     14  C   UNL     1      35.132 -17.869 -22.012  0.00  0.00    +0.000 C 
ATOM     15  C   UNL     1      34.117 -19.642 -23.300  0.00  0.00    +0.000 C 
ATOM     16  C   UNL     1      35.226 -17.086 -23.163  0.00  0.00    +0.000 C 
ATOM     17  C   UNL     1      34.210 -18.860 -24.451  0.00  0.00    +0.000 C 
ATOM     18  C   UNL     1      34.764 -17.582 -24.383  0.00  0.00    +0.000 C 
ENDBRANCH  10  13
ENDBRANCH   3   7
BRANCH   1  19
ATOM     19  C   UNL     1      31.806 -22.868 -14.506  0.00  0.00    +0.077 C 
BRANCH  19  20
ATOM     20  C   UNL     1      30.626 -23.837 -14.767  0.00  0.00    +0.279 C 
BRANCH  20  21
ATOM     21  P   UNL     1      29.113 -23.004 -15.357  0.00  0.00    +0.372 P 
ATOM     22  O   UNL     1      28.525 -21.995 -14.415  0.00  0.00    -0.255 OA
BRANCH  21  23
ATOM     23  O   UNL     1      28.140 -24.234 -15.746  0.00  0.00    -0.322 OA
ATOM     24  H   UNL     1      27.219 -23.989 -15.559  0.00  0.00    +0.220 HD
ENDBRANCH  21  23
BRANCH  21  25
ATOM     25  O   UNL     1      29.538 -22.405 -16.796  0.00  0.00    -0.322 OA
ATOM     26  H   UNL     1      30.400 -21.966 -16.721  0.00  0.00    +0.220 HD
ENDBRANCH  21  25
ENDBRANCH  20  21
BRANCH  20  27
ATOM     27  P   UNL     1      30.566 -25.021 -13.347  0.00  0.00    +0.372 P 
ATOM     28  O   UNL     1      30.329 -24.382 -12.010  0.00  0.00    -0.255 OA
BRANCH  27  29
ATOM     29  O   UNL     1      29.443 -26.086 -13.811  0.00  0.00    -0.322 OA
ATOM     30  H   UNL     1      29.865 -26.939 -13.998  0.00  0.00    +0.220 HD
ENDBRANCH  27  29
BRANCH  27  31
ATOM     31  O   UNL     1      31.945 -25.853 -13.471  0.00  0.00    -0.322 OA
ATOM     32  H   UNL     1      31.854 -26.529 -14.160  0.00  0.00    +0.220 HD
ENDBRANCH  27  31
ENDBRANCH  20  27
BRANCH  20  33
ATOM     33  O   UNL     1      30.964 -24.719 -15.840  0.00  0.00    -0.366 OA
ATOM     34  H   UNL     1      30.271 -25.391 -15.937  0.00  0.00    +0.212 HD
ENDBRANCH  20  33
ENDBRANCH  19  20
ENDBRANCH   1  19
TORSDOF 11
ENDMDL
MODEL 5
REMARK VINA RESULT:      -8.6      1.752      3.431
REMARK  Name = 16122554
REMARK  11 active torsions:
REMARK  status: ('A' for Active; 'I' for Inactive)
REMARK    1  A    between atoms: C_1  and  C_19
REMARK    2  A    between atoms: C_3  and  C_7
REMARK    3  A    between atoms: C_10  and  C_13
REMARK    4  A    between atoms: C_19  and  C_20
REMARK    5  A    between atoms: C_20  and  P_21
REMARK    6  A    between atoms: C_20  and  P_27
REMARK    7  A    between atoms: C_20  and  O_33
REMARK    8  A    between atoms: P_21  and  O_23
REMARK    9  A    between atoms: P_21  and  O_25
REMARK   10  A    between atoms: P_27  and  O_29
REMARK   11  A    between atoms: P_27  and  O_31
REMARK                            x       y       z     vdW  Elec       q    Type
REMARK                         _______ _______ _______ _____ _____    ______ ____
ROOT
ATOM      1  C   UNL     1      35.515 -23.644 -15.856  0.00  0.00    -0.019 C 
ATOM      2  C   UNL     1      35.227 -22.906 -16.994  0.00  0.00    -0.004 C 
ATOM      3  C   UNL     1      36.131 -21.936 -17.428  0.00  0.00    -0.000 C 
ATOM      4  C   UNL     1      36.684 -23.435 -15.141  0.00  0.00    -0.004 C 
ATOM      5  C   UNL     1      37.312 -21.716 -16.718  0.00  0.00    -0.000 C 
ATOM      6  C   UNL     1      37.589 -22.465 -15.574  0.00  0.00    -0.000 C 
ENDROOT
BRANCH   3   7
ATOM      7  C   UNL     1      35.845 -21.158 -18.614  0.00  0.00    -0.000 C 
ATOM      8  C   UNL     1      34.566 -21.179 -19.170  0.00  0.00    -0.000 C 
ATOM      9  C   UNL     1      36.848 -20.388 -19.201  0.00  0.00    -0.000 C 
ATOM     10  C   UNL     1      35.294 -19.658 -20.901  0.00  0.00    +0.000 C 
ATOM     11  C   UNL     1      34.290 -20.429 -20.314  0.00  0.00    -0.000 C 
ATOM     12  C   UNL     1      36.573 -19.637 -20.344  0.00  0.00    -0.000 C 
BRANCH  10  13
ATOM     13  C   UNL     1      35.008 -18.881 -22.086  0.00  0.00    +0.000 C 
ATOM     14  C   UNL     1      35.348 -17.530 -22.133  0.00  0.00    +0.000 C 
ATOM     15  C   UNL     1      34.391 -19.483 -23.183  0.00  0.00    +0.000 C 
ATOM     16  C   UNL     1      35.072 -16.779 -23.276  0.00  0.00    +0.000 C 
ATOM     17  C   UNL     1      34.114 -18.733 -24.327  0.00  0.00    +0.000 C 
ATOM     18  C   UNL     1      34.455 -17.381 -24.373  0.00  0.00    +0.000 C 
ENDBRANCH  10  13
ENDBRANCH   3   7
BRANCH   1  19
ATOM     19  C   UNL     1      34.539 -24.694 -15.387  0.00  0.00    +0.077 C 
BRANCH  19  20
ATOM     20  C   UNL     1      33.836 -24.438 -14.030  0.00  0.00    +0.279 C 
BRANCH  20  21
ATOM     21  P   UNL     1      32.641 -23.059 -14.074  0.00  0.00    +0.372 P 
ATOM     22  O   UNL     1      31.526 -23.204 -15.068  0.00  0.00    -0.255 OA
BRANCH  21  23
ATOM     23  O   UNL     1      33.582 -21.760 -14.277  0.00  0.00    -0.322 OA
ATOM     24  H   UNL     1      33.429 -21.386 -15.159  0.00  0.00    +0.220 HD
ENDBRANCH  21  23
BRANCH  21  25
ATOM     25  O   UNL     1      32.155 -22.920 -12.539  0.00  0.00    -0.322 OA
ATOM     26  H   UNL     1      32.391 -23.725 -12.052  0.00  0.00    +0.220 HD
ENDBRANCH  21  25
ENDBRANCH  20  21
BRANCH  20  27
ATOM     27  P   UNL     1      35.135 -24.527 -12.716  0.00  0.00    +0.372 P 
ATOM     28  O   UNL     1      35.858 -23.236 -12.463  0.00  0.00    -0.255 OA
BRANCH  27  29
ATOM     29  O   UNL     1      34.328 -25.124 -11.449  0.00  0.00    -0.322 OA
ATOM     30  H   UNL     1      33.382 -24.936 -11.552  0.00  0.00    +0.220 HD
ENDBRANCH  27  29
BRANCH  27  31
ATOM     31  O   UNL     1      36.075 -25.758 -13.176  0.00  0.00    -0.322 OA
ATOM     32  H   UNL     1      35.954 -25.921 -14.124  0.00  0.00    +0.220 HD
ENDBRANCH  27  31
ENDBRANCH  20  27
BRANCH  20  33
ATOM     33  O   UNL     1      33.031 -25.569 -13.691  0.00  0.00    -0.366 OA
ATOM     34  H   UNL     1      32.093 -25.331 -13.759  0.00  0.00    +0.212 HD
ENDBRANCH  20  33
ENDBRANCH  19  20
ENDBRANCH   1  19
TORSDOF 11
ENDMDL
MODEL 6
REMARK VINA RESULT:      -8.6     13.477     16.584
REMARK  Name = 16122554
REMARK  11 active torsions:
REMARK  status: ('A' for Active; 'I' for Inactive)
REMARK    1  A    between atoms: C_1  and  C_19
REMARK    2  A    between atoms: C_3  and  C_7
REMARK    3  A    between atoms: C_10  and  C_13
REMARK    4  A    between atoms: C_19  and  C_20
REMARK    5  A    between atoms: C_20  and  P_21
REMARK    6  A    between atoms: C_20  and  P_27
REMARK    7  A    between atoms: C_20  and  O_33
REMARK    8  A    between atoms: P_21  and  O_23
REMARK    9  A    between atoms: P_21  and  O_25
REMARK   10  A    between atoms: P_27  and  O_29
REMARK   11  A    between atoms: P_27  and  O_31
REMARK                            x       y       z     vdW  Elec       q    Type
REMARK                         _______ _______ _______ _____ _____    ______ ____
ROOT
ATOM      1  C   UNL     1      31.258  -6.678 -22.908  0.00  0.00    -0.019 C 
ATOM      2  C   UNL     1      31.684  -7.957 -23.230  0.00  0.00    -0.004 C 
ATOM      3  C   UNL     1      32.042  -8.836 -22.207  0.00  0.00    -0.000 C 
ATOM      4  C   UNL     1      31.181  -6.256 -21.590  0.00  0.00    -0.004 C 
ATOM      5  C   UNL     1      31.970  -8.425 -20.876  0.00  0.00    -0.000 C 
ATOM      6  C   UNL     1      31.540  -7.134 -20.567  0.00  0.00    -0.000 C 
ENDROOT
BRANCH   3   7
ATOM      7  C   UNL     1      32.489 -10.175 -22.527  0.00  0.00    -0.000 C 
ATOM      8  C   UNL     1      33.425 -10.375 -23.542  0.00  0.00    -0.000 C 
ATOM      9  C   UNL     1      31.985 -11.265 -21.819  0.00  0.00    -0.000 C 
ATOM     10  C   UNL     1      33.350 -12.756 -23.142  0.00  0.00    +0.000 C 
ATOM     11  C   UNL     1      33.856 -11.665 -23.850  0.00  0.00    -0.000 C 
ATOM     12  C   UNL     1      32.415 -12.556 -22.126  0.00  0.00    -0.000 C 
BRANCH  10  13
ATOM     13  C   UNL     1      33.797 -14.094 -23.461  0.00  0.00    +0.000 C 
ATOM     14  C   UNL     1      33.371 -14.710 -24.638  0.00  0.00    +0.000 C 
ATOM     15  C   UNL     1      34.652 -14.770 -22.591  0.00  0.00    +0.000 C 
ATOM     16  C   UNL     1      33.801 -16.001 -24.945  0.00  0.00    +0.000 C 
ATOM     17  C   UNL     1      35.083 -16.061 -22.898  0.00  0.00    +0.000 C 
ATOM     18  C   UNL     1      34.657 -16.676 -24.075  0.00  0.00    +0.000 C 
ENDBRANCH  10  13
ENDBRANCH   3   7
BRANCH   1  19
ATOM     19  C   UNL     1      30.869  -5.726 -24.013  0.00  0.00    +0.077 C 
BRANCH  19  20
ATOM     20  C   UNL     1      31.801  -4.511 -24.249  0.00  0.00    +0.279 C 
BRANCH  20  21
ATOM     21  P   UNL     1      31.037  -2.910 -23.819  0.00  0.00    +0.372 P 
ATOM     22  O   UNL     1      30.900  -2.635 -22.350  0.00  0.00    -0.255 OA
BRANCH  21  23
ATOM     23  O   UNL     1      29.651  -2.925 -24.651  0.00  0.00    -0.322 OA
ATOM     24  H   UNL     1      29.831  -3.169 -25.573  0.00  0.00    +0.220 HD
ENDBRANCH  21  23
BRANCH  21  25
ATOM     25  O   UNL     1      31.931  -1.829 -24.620  0.00  0.00    -0.322 OA
ATOM     26  H   UNL     1      32.759  -2.245 -24.908  0.00  0.00    +0.220 HD
ENDBRANCH  21  25
ENDBRANCH  20  21
BRANCH  20  27
ATOM     27  P   UNL     1      32.621  -4.762 -25.888  0.00  0.00    +0.372 P 
ATOM     28  O   UNL     1      32.885  -6.196 -26.243  0.00  0.00    -0.255 OA
BRANCH  27  29
ATOM     29  O   UNL     1      31.646  -3.969 -26.905  0.00  0.00    -0.322 OA
ATOM     30  H   UNL     1      32.181  -3.462 -27.535  0.00  0.00    +0.220 HD
ENDBRANCH  27  29
BRANCH  27  31
ATOM     31  O   UNL     1      33.933  -3.822 -25.818  0.00  0.00    -0.322 OA
ATOM     32  H   UNL     1      33.816  -3.059 -26.405  0.00  0.00    +0.220 HD
ENDBRANCH  27  31
ENDBRANCH  20  27
BRANCH  20  33
ATOM     33  O   UNL     1      32.924  -4.595 -23.370  0.00  0.00    -0.366 OA
ATOM     34  H   UNL     1      32.755  -5.271 -22.694  0.00  0.00    +0.212 HD
ENDBRANCH  20  33
ENDBRANCH  19  20
ENDBRANCH   1  19
TORSDOF 11
ENDMDL
MODEL 7
REMARK VINA RESULT:      -8.6      5.550      7.998
REMARK  Name = 16122554
REMARK  11 active torsions:
REMARK  status: ('A' for Active; 'I' for Inactive)
REMARK    1  A    between atoms: C_1  and  C_19
REMARK    2  A    between atoms: C_3  and  C_7
REMARK    3  A    between atoms: C_10  and  C_13
REMARK    4  A    between atoms: C_19  and  C_20
REMARK    5  A    between atoms: C_20  and  P_21
REMARK    6  A    between atoms: C_20  and  P_27
REMARK    7  A    between atoms: C_20  and  O_33
REMARK    8  A    between atoms: P_21  and  O_23
REMARK    9  A    between atoms: P_21  and  O_25
REMARK   10  A    between atoms: P_27  and  O_29
REMARK   11  A    between atoms: P_27  and  O_31
REMARK                            x       y       z     vdW  Elec       q    Type
REMARK                         _______ _______ _______ _____ _____    ______ ____
ROOT
ATOM      1  C   UNL     1      37.300 -23.277 -14.901  0.00  0.00    -0.019 C 
ATOM      2  C   UNL     1      35.915 -23.287 -14.858  0.00  0.00    -0.004 C 
ATOM      3  C   UNL     1      35.194 -22.686 -15.891  0.00  0.00    -0.000 C 
ATOM      4  C   UNL     1      37.983 -22.682 -15.950  0.00  0.00    -0.004 C 
ATOM      5  C   UNL     1      35.868 -22.084 -16.953  0.00  0.00    -0.000 C 
ATOM      6  C   UNL     1      37.263 -22.081 -16.983  0.00  0.00    -0.000 C 
ENDROOT
BRANCH   3   7
ATOM      7  C   UNL     1      33.747 -22.688 -15.860  0.00  0.00    -0.000 C 
ATOM      8  C   UNL     1      33.024 -22.631 -17.051  0.00  0.00    -0.000 C 
ATOM      9  C   UNL     1      33.076 -22.747 -14.639  0.00  0.00    -0.000 C 
ATOM     10  C   UNL     1      30.958 -22.691 -15.800  0.00  0.00    +0.000 C 
ATOM     11  C   UNL     1      31.629 -22.633 -17.022  0.00  0.00    -0.000 C 
ATOM     12  C   UNL     1      31.682 -22.749 -14.609  0.00  0.00    -0.000 C 
BRANCH  10  13
ATOM     13  C   UNL     1      29.512 -22.693 -15.769  0.00  0.00    +0.000 C 
ATOM     14  C   UNL     1      28.839 -22.298 -14.614  0.00  0.00    +0.000 C 
ATOM     15  C   UNL     1      28.791 -23.092 -16.895  0.00  0.00    +0.000 C 
ATOM     16  C   UNL     1      27.444 -22.300 -14.584  0.00  0.00    +0.000 C 
ATOM     17  C   UNL     1      27.397 -23.094 -16.866  0.00  0.00    +0.000 C 
ATOM     18  C   UNL     1      26.723 -22.698 -15.710  0.00  0.00    +0.000 C 
ENDBRANCH  10  13
ENDBRANCH   3   7
BRANCH   1  19
ATOM     19  C   UNL     1      38.081 -23.927 -13.785  0.00  0.00    +0.077 C 
BRANCH  19  20
ATOM     20  C   UNL     1      38.306 -25.457 -13.890  0.00  0.00    +0.279 C 
BRANCH  20  21
ATOM     21  P   UNL     1      37.445 -26.412 -12.594  0.00  0.00    +0.372 P 
ATOM     22  O   UNL     1      38.235 -26.656 -11.342  0.00  0.00    -0.255 OA
BRANCH  21  23
ATOM     23  O   UNL     1      36.959 -27.742 -13.374  0.00  0.00    -0.322 OA
ATOM     24  H   UNL     1      37.717 -28.332 -13.508  0.00  0.00    +0.220 HD
ENDBRANCH  21  23
BRANCH  21  25
ATOM     25  O   UNL     1      36.067 -25.598 -12.367  0.00  0.00    -0.322 OA
ATOM     26  H   UNL     1      36.270 -24.674 -12.151  0.00  0.00    +0.220 HD
ENDBRANCH  21  25
ENDBRANCH  20  21
BRANCH  20  27
ATOM     27  P   UNL     1      40.105 -25.723 -14.227  0.00  0.00    +0.372 P 
ATOM     28  O   UNL     1      41.016 -24.701 -13.611  0.00  0.00    -0.255 OA
BRANCH  27  29
ATOM     29  O   UNL     1      40.345 -27.244 -13.736  0.00  0.00    -0.322 OA
ATOM     30  H   UNL     1      40.177 -27.851 -14.473  0.00  0.00    +0.220 HD
ENDBRANCH  27  29
BRANCH  27  31
ATOM     31  O   UNL     1      40.191 -25.832 -15.837  0.00  0.00    -0.322 OA
ATOM     32  H   UNL     1      40.108 -24.947 -16.226  0.00  0.00    +0.220 HD
ENDBRANCH  27  31
ENDBRANCH  20  27
BRANCH  20  33
ATOM     33  O   UNL     1      37.729 -25.940 -15.104  0.00  0.00    -0.366 OA
ATOM     34  H   UNL     1      38.257 -25.633 -15.858  0.00  0.00    +0.212 HD
ENDBRANCH  20  33
ENDBRANCH  19  20
ENDBRANCH   1  19
TORSDOF 11
ENDMDL
MODEL 8
REMARK VINA RESULT:      -8.5     12.979     15.917
REMARK  Name = 16122554
REMARK  11 active torsions:
REMARK  status: ('A' for Active; 'I' for Inactive)
REMARK    1  A    between atoms: C_1  and  C_19
REMARK    2  A    between atoms: C_3  and  C_7
REMARK    3  A    between atoms: C_10  and  C_13
REMARK    4  A    between atoms: C_19  and  C_20
REMARK    5  A    between atoms: C_20  and  P_21
REMARK    6  A    between atoms: C_20  and  P_27
REMARK    7  A    between atoms: C_20  and  O_33
REMARK    8  A    between atoms: P_21  and  O_23
REMARK    9  A    between atoms: P_21  and  O_25
REMARK   10  A    between atoms: P_27  and  O_29
REMARK   11  A    between atoms: P_27  and  O_31
REMARK                            x       y       z     vdW  Elec       q    Type
REMARK                         _______ _______ _______ _____ _____    ______ ____
ROOT
ATOM      1  C   UNL     1      31.102  -7.024 -22.237  0.00  0.00    -0.019 C 
ATOM      2  C   UNL     1      31.494  -8.280 -22.674  0.00  0.00    -0.004 C 
ATOM      3  C   UNL     1      32.130  -9.147 -21.785  0.00  0.00    -0.000 C 
ATOM      4  C   UNL     1      31.331  -6.614 -20.933  0.00  0.00    -0.004 C 
ATOM      5  C   UNL     1      32.368  -8.747 -20.470  0.00  0.00    -0.000 C 
ATOM      6  C   UNL     1      31.968  -7.480 -20.043  0.00  0.00    -0.000 C 
ENDROOT
BRANCH   3   7
ATOM      7  C   UNL     1      32.545 -10.461 -22.227  0.00  0.00    -0.000 C 
ATOM      8  C   UNL     1      33.406 -10.592 -23.317  0.00  0.00    -0.000 C 
ATOM      9  C   UNL     1      32.086 -11.597 -21.562  0.00  0.00    -0.000 C 
ATOM     10  C   UNL     1      33.345 -12.995 -23.078  0.00  0.00    +0.000 C 
ATOM     11  C   UNL     1      33.805 -11.858 -23.743  0.00  0.00    -0.000 C 
ATOM     12  C   UNL     1      32.485 -12.864 -21.987  0.00  0.00    -0.000 C 
BRANCH  10  13
ATOM     13  C   UNL     1      33.759 -14.308 -23.519  0.00  0.00    +0.000 C 
ATOM     14  C   UNL     1      33.277 -14.825 -24.721  0.00  0.00    +0.000 C 
ATOM     15  C   UNL     1      34.641 -15.059 -22.741  0.00  0.00    +0.000 C 
ATOM     16  C   UNL     1      33.677 -16.092 -25.146  0.00  0.00    +0.000 C 
ATOM     17  C   UNL     1      35.040 -16.326 -23.166  0.00  0.00    +0.000 C 
ATOM     18  C   UNL     1      34.558 -16.843 -24.369  0.00  0.00    +0.000 C 
ENDBRANCH  10  13
ENDBRANCH   3   7
BRANCH   1  19
ATOM     19  C   UNL     1      30.412  -6.087 -23.197  0.00  0.00    +0.077 C 
BRANCH  19  20
ATOM     20  C   UNL     1      31.237  -4.878 -23.707  0.00  0.00    +0.279 C 
BRANCH  20  21
ATOM     21  P   UNL     1      32.891  -5.333 -24.329  0.00  0.00    +0.372 P 
ATOM     22  O   UNL     1      33.863  -5.806 -23.289  0.00  0.00    -0.255 OA
BRANCH  21  23
ATOM     23  O   UNL     1      33.350  -4.024 -25.158  0.00  0.00    -0.322 OA
ATOM     24  H   UNL     1      33.657  -4.290 -26.039  0.00  0.00    +0.220 HD
ENDBRANCH  21  23
BRANCH  21  25
ATOM     25  O   UNL     1      32.582  -6.412 -25.493  0.00  0.00    -0.322 OA
ATOM     26  H   UNL     1      31.668  -6.304 -25.799  0.00  0.00    +0.220 HD
ENDBRANCH  21  25
ENDBRANCH  20  21
BRANCH  20  27
ATOM     27  P   UNL     1      31.028  -3.514 -22.475  0.00  0.00    +0.372 P 
ATOM     28  O   UNL     1      29.709  -3.514 -21.759  0.00  0.00    -0.255 OA
BRANCH  27  29
ATOM     29  O   UNL     1      32.326  -3.682 -21.527  0.00  0.00    -0.322 OA
ATOM     30  H   UNL     1      33.116  -3.388 -22.007  0.00  0.00    +0.220 HD
ENDBRANCH  27  29
BRANCH  27  31
ATOM     31  O   UNL     1      31.349  -2.173 -23.316  0.00  0.00    -0.322 OA
ATOM     32  H   UNL     1      31.801  -1.533 -22.745  0.00  0.00    +0.220 HD
ENDBRANCH  27  31
ENDBRANCH  20  27
BRANCH  20  33
ATOM     33  O   UNL     1      30.592  -4.312 -24.849  0.00  0.00    -0.366 OA
ATOM     34  H   UNL     1      30.965  -3.434 -25.029  0.00  0.00    +0.212 HD
ENDBRANCH  20  33
ENDBRANCH  19  20
ENDBRANCH   1  19
TORSDOF 11
ENDMDL
MODEL 9
REMARK VINA RESULT:      -8.5     13.532     16.789
REMARK  Name = 16122554
REMARK  11 active torsions:
REMARK  status: ('A' for Active; 'I' for Inactive)
REMARK    1  A    between atoms: C_1  and  C_19
REMARK    2  A    between atoms: C_3  and  C_7
REMARK    3  A    between atoms: C_10  and  C_13
REMARK    4  A    between atoms: C_19  and  C_20
REMARK    5  A    between atoms: C_20  and  P_21
REMARK    6  A    between atoms: C_20  and  P_27
REMARK    7  A    between atoms: C_20  and  O_33
REMARK    8  A    between atoms: P_21  and  O_23
REMARK    9  A    between atoms: P_21  and  O_25
REMARK   10  A    between atoms: P_27  and  O_29
REMARK   11  A    between atoms: P_27  and  O_31
REMARK                            x       y       z     vdW  Elec       q    Type
REMARK                         _______ _______ _______ _____ _____    ______ ____
ROOT
ATOM      1  C   UNL     1      32.605  -6.065 -22.566  0.00  0.00    -0.019 C 
ATOM      2  C   UNL     1      32.905  -7.361 -22.956  0.00  0.00    -0.004 C 
ATOM      3  C   UNL     1      32.534  -8.426 -22.136  0.00  0.00    -0.000 C 
ATOM      4  C   UNL     1      31.942  -5.808 -21.375  0.00  0.00    -0.004 C 
ATOM      5  C   UNL     1      31.866  -8.182 -20.935  0.00  0.00    -0.000 C 
ATOM      6  C   UNL     1      31.570  -6.873 -20.554  0.00  0.00    -0.000 C 
ENDROOT
BRANCH   3   7
ATOM      7  C   UNL     1      32.841  -9.784 -22.529  0.00  0.00    -0.000 C 
ATOM      8  C   UNL     1      33.888 -10.035 -23.416  0.00  0.00    -0.000 C 
ATOM      9  C   UNL     1      32.089 -10.843 -22.021  0.00  0.00    -0.000 C 
ATOM     10  C   UNL     1      33.431 -12.403 -23.287  0.00  0.00    +0.000 C 
ATOM     11  C   UNL     1      34.183 -11.344 -23.795  0.00  0.00    -0.000 C 
ATOM     12  C   UNL     1      32.384 -12.153 -22.400  0.00  0.00    -0.000 C 
BRANCH  10  13
ATOM     13  C   UNL     1      33.737 -13.761 -23.680  0.00  0.00    +0.000 C 
ATOM     14  C   UNL     1      33.176 -14.295 -24.840  0.00  0.00    +0.000 C 
ATOM     15  C   UNL     1      34.594 -14.537 -22.899  0.00  0.00    +0.000 C 
ATOM     16  C   UNL     1      33.471 -15.605 -25.218  0.00  0.00    +0.000 C 
ATOM     17  C   UNL     1      34.889 -15.847 -23.277  0.00  0.00    +0.000 C 
ATOM     18  C   UNL     1      34.328 -16.381 -24.437  0.00  0.00    +0.000 C 
ENDBRANCH  10  13
ENDBRANCH   3   7
BRANCH   1  19
ATOM     19  C   UNL     1      33.005  -4.911 -23.453  0.00  0.00    +0.077 C 
BRANCH  19  20
ATOM     20  C   UNL     1      32.010  -4.514 -24.572  0.00  0.00    +0.279 C 
BRANCH  20  21
ATOM     21  P   UNL     1      32.722  -4.613 -26.250  0.00  0.00    +0.372 P 
ATOM     22  O   UNL     1      33.071  -5.994 -26.722  0.00  0.00    -0.255 OA
BRANCH  21  23
ATOM     23  O   UNL     1      33.956  -3.571 -26.192  0.00  0.00    -0.322 OA
ATOM     24  H   UNL     1      34.162  -3.367 -25.267  0.00  0.00    +0.220 HD
ENDBRANCH  21  23
BRANCH  21  25
ATOM     25  O   UNL     1      31.639  -3.847 -27.174  0.00  0.00    -0.322 OA
ATOM     26  H   UNL     1      31.757  -2.888 -27.081  0.00  0.00    +0.220 HD
ENDBRANCH  21  25
ENDBRANCH  20  21
BRANCH  20  27
ATOM     27  P   UNL     1      31.128  -2.991 -24.004  0.00  0.00    +0.372 P 
ATOM     28  O   UNL     1      31.075  -2.817 -22.515  0.00  0.00    -0.255 OA
BRANCH  27  29
ATOM     29  O   UNL     1      31.886  -1.812 -24.809  0.00  0.00    -0.322 OA
ATOM     30  H   UNL     1      31.235  -1.280 -25.292  0.00  0.00    +0.220 HD
ENDBRANCH  27  29
BRANCH  27  31
ATOM     31  O   UNL     1      29.689  -3.076 -24.733  0.00  0.00    -0.322 OA
ATOM     32  H   UNL     1      29.751  -2.685 -25.619  0.00  0.00    +0.220 HD
ENDBRANCH  27  31
ENDBRANCH  20  27
BRANCH  20  33
ATOM     33  O   UNL     1      30.934  -5.453 -24.607  0.00  0.00    -0.366 OA
ATOM     34  H   UNL     1      30.925  -5.966 -23.784  0.00  0.00    +0.212 HD
ENDBRANCH  20  33
ENDBRANCH  19  20
ENDBRANCH   1  19
TORSDOF 11
ENDMDL
