MODEL 1
REMARK VINA RESULT:     -11.0      0.000      0.000
REMARK  Name = 4708
REMARK  3 active torsions:
REMARK  status: ('A' for Active; 'I' for Inactive)
REMARK    1  A    between atoms: N_1  and  C_14
REMARK    2  A    between atoms: C_8  and  N_21
REMARK    3  A    between atoms: C_22  and  C_24
REMARK                            x       y       z     vdW  Elec       q    Type
REMARK                         _______ _______ _______ _____ _____    ______ ____
ROOT
ATOM      1  N   UNL     1      33.434 -22.669 -17.615  0.00  0.00    -0.301 N 
ATOM      2  N   UNL     1      33.642 -24.627 -13.975  0.00  0.00    -0.248 NA
ATOM      3  N   UNL     1      34.675 -23.863 -16.014  0.00  0.00    -0.233 NA
ATOM      4  C   UNL     1      32.341 -23.412 -15.580  0.00  0.00    +0.117 C 
ATOM      5  C   UNL     1      32.471 -24.088 -14.357  0.00  0.00    +0.067 C 
ATOM      6  C   UNL     1      33.488 -23.335 -16.365  0.00  0.00    +0.115 C 
ATOM      7  C   UNL     1      31.112 -22.851 -15.971  0.00  0.00    +0.001 C 
ATOM      8  C   UNL     1      30.002 -22.962 -15.139  0.00  0.00    +0.047 C 
ATOM      9  C   UNL     1      31.344 -24.184 -13.544  0.00  0.00    +0.016 C 
ATOM     10  C   UNL     1      30.119 -23.630 -13.924  0.00  0.00    +0.016 C 
ATOM     11  C   UNL     1      34.681 -24.486 -14.823  0.00  0.00    +0.251 C 
ATOM     12  H   UNL     1      32.552 -22.710 -18.048  0.00  0.00    +0.153 HD
ENDROOT
BRANCH   1  14
ATOM     13 BR   UNL     1      34.451 -19.500 -21.714  0.00  0.00    -0.049 Br
ATOM     14  C   UNL     1      34.395 -21.960 -18.352  0.00  0.00    +0.050 C 
ATOM     15  C   UNL     1      34.015 -21.213 -19.472  0.00  0.00    +0.021 C 
ATOM     16  C   UNL     1      35.740 -21.996 -17.972  0.00  0.00    +0.015 C 
ATOM     17  C   UNL     1      34.971 -20.507 -20.202  0.00  0.00    +0.036 C 
ATOM     18  C   UNL     1      36.696 -21.292 -18.704  0.00  0.00    +0.002 C 
ATOM     19  C   UNL     1      36.312 -20.547 -19.819  0.00  0.00    +0.007 C 
ENDBRANCH   1  14
BRANCH   8  21
ATOM     20  O   UNL     1      27.867 -24.031 -16.961  0.00  0.00    -0.270 OA
ATOM     21  N   UNL     1      28.780 -22.410 -15.520  0.00  0.00    -0.281 N 
ATOM     22  C   UNL     1      27.814 -22.955 -16.378  0.00  0.00    +0.250 C 
ATOM     23  H   UNL     1      28.568 -21.528 -15.138  0.00  0.00    +0.155 HD
BRANCH  22  24
ATOM     24  C   UNL     1      26.639 -22.049 -16.531  0.00  0.00    +0.058 C 
ATOM     25  C   UNL     1      26.206 -21.695 -17.744  0.00  0.00    +0.005 C 
ENDBRANCH  22  24
ENDBRANCH   8  21
TORSDOF 3
ENDMDL
MODEL 2
REMARK VINA RESULT:     -10.4      2.542      3.672
REMARK  Name = 4708
REMARK  3 active torsions:
REMARK  status: ('A' for Active; 'I' for Inactive)
REMARK    1  A    between atoms: N_1  and  C_14
REMARK    2  A    between atoms: C_8  and  N_21
REMARK    3  A    between atoms: C_22  and  C_24
REMARK                            x       y       z     vdW  Elec       q    Type
REMARK                         _______ _______ _______ _____ _____    ______ ____
ROOT
ATOM      1  N   UNL     1      34.781 -22.523 -17.642  0.00  0.00    -0.301 N 
ATOM      2  N   UNL     1      37.499 -22.683 -14.526  0.00  0.00    -0.248 NA
ATOM      3  N   UNL     1      36.922 -22.066 -16.783  0.00  0.00    -0.233 NA
ATOM      4  C   UNL     1      35.305 -23.167 -15.363  0.00  0.00    +0.117 C 
ATOM      5  C   UNL     1      36.269 -23.193 -14.342  0.00  0.00    +0.067 C 
ATOM      6  C   UNL     1      35.699 -22.585 -16.565  0.00  0.00    +0.115 C 
ATOM      7  C   UNL     1      34.021 -23.703 -15.161  0.00  0.00    +0.001 C 
ATOM      8  C   UNL     1      33.690 -24.270 -13.935  0.00  0.00    +0.047 C 
ATOM      9  C   UNL     1      35.910 -23.767 -13.125  0.00  0.00    +0.016 C 
ATOM     10  C   UNL     1      34.636 -24.303 -12.916  0.00  0.00    +0.016 C 
ATOM     11  C   UNL     1      37.760 -22.147 -15.735  0.00  0.00    +0.251 C 
ATOM     12  H   UNL     1      34.129 -23.260 -17.651  0.00  0.00    +0.153 HD
ENDROOT
BRANCH   1  14
ATOM     13 BR   UNL     1      37.071 -19.135 -20.983  0.00  0.00    -0.049 Br
ATOM     14  C   UNL     1      34.621 -21.612 -18.699  0.00  0.00    +0.050 C 
ATOM     15  C   UNL     1      35.729 -20.941 -19.225  0.00  0.00    +0.021 C 
ATOM     16  C   UNL     1      33.352 -21.370 -19.232  0.00  0.00    +0.015 C 
ATOM     17  C   UNL     1      35.569 -20.038 -20.276  0.00  0.00    +0.036 C 
ATOM     18  C   UNL     1      33.192 -20.465 -20.282  0.00  0.00    +0.002 C 
ATOM     19  C   UNL     1      34.301 -19.800 -20.804  0.00  0.00    +0.007 C 
ENDBRANCH   1  14
BRANCH   8  21
ATOM     20  O   UNL     1      31.004 -22.929 -13.863  0.00  0.00    -0.270 OA
ATOM     21  N   UNL     1      32.419 -24.804 -13.727  0.00  0.00    -0.281 N 
ATOM     22  C   UNL     1      31.191 -24.129 -13.704  0.00  0.00    +0.250 C 
ATOM     23  H   UNL     1      32.379 -25.777 -13.580  0.00  0.00    +0.155 HD
BRANCH  22  24
ATOM     24  C   UNL     1      30.054 -25.061 -13.452  0.00  0.00    +0.058 C 
ATOM     25  C   UNL     1      29.096 -25.231 -14.369  0.00  0.00    +0.005 C 
ENDBRANCH  22  24
ENDBRANCH   8  21
TORSDOF 3
ENDMDL
MODEL 3
REMARK VINA RESULT:     -10.4      3.249      6.864
REMARK  Name = 4708
REMARK  3 active torsions:
REMARK  status: ('A' for Active; 'I' for Inactive)
REMARK    1  A    between atoms: N_1  and  C_14
REMARK    2  A    between atoms: C_8  and  N_21
REMARK    3  A    between atoms: C_22  and  C_24
REMARK                            x       y       z     vdW  Elec       q    Type
REMARK                         _______ _______ _______ _____ _____    ______ ____
ROOT
ATOM      1  N   UNL     1      32.731 -23.212 -14.485  0.00  0.00    -0.301 N 
ATOM      2  N   UNL     1      36.227 -24.374 -12.599  0.00  0.00    -0.248 NA
ATOM      3  N   UNL     1      33.821 -24.279 -12.695  0.00  0.00    -0.233 NA
ATOM      4  C   UNL     1      35.156 -23.277 -14.443  0.00  0.00    +0.117 C 
ATOM      5  C   UNL     1      36.308 -23.697 -13.758  0.00  0.00    +0.067 C 
ATOM      6  C   UNL     1      33.938 -23.603 -13.853  0.00  0.00    +0.115 C 
ATOM      7  C   UNL     1      35.251 -22.569 -15.654  0.00  0.00    +0.001 C 
ATOM      8  C   UNL     1      36.500 -22.275 -16.191  0.00  0.00    +0.047 C 
ATOM      9  C   UNL     1      37.545 -23.388 -14.318  0.00  0.00    +0.016 C 
ATOM     10  C   UNL     1      37.649 -22.685 -15.522  0.00  0.00    +0.016 C 
ATOM     11  C   UNL     1      34.990 -24.629 -12.130  0.00  0.00    +0.251 C 
ATOM     12  H   UNL     1      32.809 -22.385 -15.012  0.00  0.00    +0.153 HD
ENDROOT
BRANCH   1  14
ATOM     13 BR   UNL     1      27.604 -22.578 -15.578  0.00  0.00    -0.049 Br
ATOM     14  C   UNL     1      31.447 -23.779 -14.507  0.00  0.00    +0.050 C 
ATOM     15  C   UNL     1      30.353 -23.030 -14.952  0.00  0.00    +0.021 C 
ATOM     16  C   UNL     1      31.253 -25.097 -14.084  0.00  0.00    +0.015 C 
ATOM     17  C   UNL     1      29.078 -23.595 -14.975  0.00  0.00    +0.036 C 
ATOM     18  C   UNL     1      29.978 -25.662 -14.106  0.00  0.00    +0.002 C 
ATOM     19  C   UNL     1      28.890 -24.911 -14.552  0.00  0.00    +0.007 C 
ENDBRANCH   1  14
BRANCH   8  21
ATOM     20  O   UNL     1      35.054 -22.655 -18.796  0.00  0.00    -0.270 OA
ATOM     21  N   UNL     1      36.602 -21.573 -17.391  0.00  0.00    -0.281 N 
ATOM     22  C   UNL     1      35.899 -21.793 -18.584  0.00  0.00    +0.250 C 
ATOM     23  H   UNL     1      37.247 -20.830 -17.402  0.00  0.00    +0.155 HD
BRANCH  22  24
ATOM     24  C   UNL     1      36.295 -20.822 -19.645  0.00  0.00    +0.058 C 
ATOM     25  C   UNL     1      35.371 -20.241 -20.415  0.00  0.00    +0.005 C 
ENDBRANCH  22  24
ENDBRANCH   8  21
TORSDOF 3
ENDMDL
MODEL 4
REMARK VINA RESULT:     -10.1      7.302     10.329
REMARK  Name = 4708
REMARK  3 active torsions:
REMARK  status: ('A' for Active; 'I' for Inactive)
REMARK    1  A    between atoms: N_1  and  C_14
REMARK    2  A    between atoms: C_8  and  N_21
REMARK    3  A    between atoms: C_22  and  C_24
REMARK                            x       y       z     vdW  Elec       q    Type
REMARK                         _______ _______ _______ _____ _____    ______ ____
ROOT
ATOM      1  N   UNL     1      35.344 -16.954 -21.432  0.00  0.00    -0.301 N 
ATOM      2  N   UNL     1      33.957 -15.634 -25.101  0.00  0.00    -0.248 NA
ATOM      3  N   UNL     1      35.097 -17.271 -23.750  0.00  0.00    -0.233 NA
ATOM      4  C   UNL     1      34.187 -15.272 -22.742  0.00  0.00    +0.117 C 
ATOM      5  C   UNL     1      33.740 -14.875 -24.012  0.00  0.00    +0.067 C 
ATOM      6  C   UNL     1      34.862 -16.488 -22.681  0.00  0.00    +0.115 C 
ATOM      7  C   UNL     1      33.955 -14.471 -21.610  0.00  0.00    +0.001 C 
ATOM      8  C   UNL     1      33.272 -13.266 -21.739  0.00  0.00    +0.047 C 
ATOM      9  C   UNL     1      33.060 -13.664 -24.113  0.00  0.00    +0.016 C 
ATOM     10  C   UNL     1      32.825 -12.862 -22.992  0.00  0.00    +0.016 C 
ATOM     11  C   UNL     1      34.623 -16.790 -24.912  0.00  0.00    +0.251 C 
ATOM     12  H   UNL     1      35.583 -16.235 -20.805  0.00  0.00    +0.153 HD
ENDROOT
BRANCH   1  14
ATOM     13 BR   UNL     1      33.169 -21.389 -19.563  0.00  0.00    -0.049 Br
ATOM     14  C   UNL     1      35.545 -18.245 -20.917  0.00  0.00    +0.050 C 
ATOM     15  C   UNL     1      34.451 -19.039 -20.558  0.00  0.00    +0.021 C 
ATOM     16  C   UNL     1      36.840 -18.746 -20.761  0.00  0.00    +0.015 C 
ATOM     17  C   UNL     1      34.652 -20.321 -20.048  0.00  0.00    +0.036 C 
ATOM     18  C   UNL     1      37.041 -20.028 -20.250  0.00  0.00    +0.002 C 
ATOM     19  C   UNL     1      35.946 -20.816 -19.893  0.00  0.00    +0.007 C 
ENDBRANCH   1  14
BRANCH   8  21
ATOM     20  O   UNL     1      30.827 -11.724 -20.926  0.00  0.00    -0.270 OA
ATOM     21  N   UNL     1      33.039 -12.467 -20.621  0.00  0.00    -0.281 N 
ATOM     22  C   UNL     1      31.871 -11.766 -20.287  0.00  0.00    +0.250 C 
ATOM     23  H   UNL     1      33.786 -12.386 -19.985  0.00  0.00    +0.155 HD
BRANCH  22  24
ATOM     24  C   UNL     1      32.022 -11.024 -19.002  0.00  0.00    +0.058 C 
ATOM     25  C   UNL     1      31.171 -10.047 -18.676  0.00  0.00    +0.005 C 
ENDBRANCH  22  24
ENDBRANCH   8  21
TORSDOF 3
ENDMDL
MODEL 5
REMARK VINA RESULT:      -9.9      1.786      2.684
REMARK  Name = 4708
REMARK  3 active torsions:
REMARK  status: ('A' for Active; 'I' for Inactive)
REMARK    1  A    between atoms: N_1  and  C_14
REMARK    2  A    between atoms: C_8  and  N_21
REMARK    3  A    between atoms: C_22  and  C_24
REMARK                            x       y       z     vdW  Elec       q    Type
REMARK                         _______ _______ _______ _____ _____    ______ ____
ROOT
ATOM      1  N   UNL     1      34.902 -21.582 -19.179  0.00  0.00    -0.301 N 
ATOM      2  N   UNL     1      36.198 -22.942 -15.491  0.00  0.00    -0.248 NA
ATOM      3  N   UNL     1      36.652 -22.007 -17.666  0.00  0.00    -0.233 NA
ATOM      4  C   UNL     1      34.385 -22.522 -17.004  0.00  0.00    +0.117 C 
ATOM      5  C   UNL     1      34.883 -22.971 -15.770  0.00  0.00    +0.067 C 
ATOM      6  C   UNL     1      35.329 -22.050 -17.912  0.00  0.00    +0.115 C 
ATOM      7  C   UNL     1      33.008 -22.558 -17.285  0.00  0.00    +0.001 C 
ATOM      8  C   UNL     1      32.117 -23.041 -16.333  0.00  0.00    +0.047 C 
ATOM      9  C   UNL     1      33.968 -23.450 -14.835  0.00  0.00    +0.016 C 
ATOM     10  C   UNL     1      32.598 -23.488 -15.106  0.00  0.00    +0.016 C 
ATOM     11  C   UNL     1      37.011 -22.461 -16.453  0.00  0.00    +0.251 C 
ATOM     12  H   UNL     1      34.087 -22.023 -19.511  0.00  0.00    +0.153 HD
ENDROOT
BRANCH   1  14
ATOM     13 BR   UNL     1      34.286 -18.843 -23.652  0.00  0.00    -0.049 Br
ATOM     14  C   UNL     1      35.416 -20.609 -20.051  0.00  0.00    +0.050 C 
ATOM     15  C   UNL     1      34.720 -20.268 -21.215  0.00  0.00    +0.021 C 
ATOM     16  C   UNL     1      36.627 -19.975 -19.762  0.00  0.00    +0.015 C 
ATOM     17  C   UNL     1      35.231 -19.300 -22.080  0.00  0.00    +0.036 C 
ATOM     18  C   UNL     1      37.139 -19.008 -20.627  0.00  0.00    +0.002 C 
ATOM     19  C   UNL     1      36.441 -18.670 -21.786  0.00  0.00    +0.007 C 
ENDBRANCH   1  14
BRANCH   8  21
ATOM     20  O   UNL     1      29.763 -22.474 -14.556  0.00  0.00    -0.270 OA
ATOM     21  N   UNL     1      30.750 -23.079 -16.605  0.00  0.00    -0.281 N 
ATOM     22  C   UNL     1      29.686 -22.803 -15.733  0.00  0.00    +0.250 C 
ATOM     23  H   UNL     1      30.500 -23.330 -17.523  0.00  0.00    +0.155 HD
BRANCH  22  24
ATOM     24  C   UNL     1      28.366 -22.956 -16.409  0.00  0.00    +0.058 C 
ATOM     25  C   UNL     1      27.247 -22.517 -15.825  0.00  0.00    +0.005 C 
ENDBRANCH  22  24
ENDBRANCH   8  21
TORSDOF 3
ENDMDL
MODEL 6
REMARK VINA RESULT:      -9.6      3.490      5.936
REMARK  Name = 4708
REMARK  3 active torsions:
REMARK  status: ('A' for Active; 'I' for Inactive)
REMARK    1  A    between atoms: N_1  and  C_14
REMARK    2  A    between atoms: C_8  and  N_21
REMARK    3  A    between atoms: C_22  and  C_24
REMARK                            x       y       z     vdW  Elec       q    Type
REMARK                         _______ _______ _______ _____ _____    ______ ____
ROOT
ATOM      1  N   UNL     1      34.592 -24.492 -14.120  0.00  0.00    -0.301 N 
ATOM      2  N   UNL     1      30.527 -24.478 -13.346  0.00  0.00    -0.248 NA
ATOM      3  N   UNL     1      32.780 -25.083 -12.742  0.00  0.00    -0.233 NA
ATOM      4  C   UNL     1      32.346 -23.855 -14.778  0.00  0.00    +0.117 C 
ATOM      5  C   UNL     1      30.978 -23.882 -14.464  0.00  0.00    +0.067 C 
ATOM      6  C   UNL     1      33.198 -24.477 -13.870  0.00  0.00    +0.115 C 
ATOM      7  C   UNL     1      32.808 -23.230 -15.950  0.00  0.00    +0.001 C 
ATOM      8  C   UNL     1      31.904 -22.625 -16.818  0.00  0.00    +0.047 C 
ATOM      9  C   UNL     1      30.096 -23.269 -15.350  0.00  0.00    +0.016 C 
ATOM     10  C   UNL     1      30.546 -22.645 -16.517  0.00  0.00    +0.016 C 
ATOM     11  C   UNL     1      31.451 -25.045 -12.546  0.00  0.00    +0.251 C 
ATOM     12  H   UNL     1      34.824 -24.487 -15.076  0.00  0.00    +0.153 HD
ENDROOT
BRANCH   1  14
ATOM     13 BR   UNL     1      39.704 -25.665 -13.501  0.00  0.00    -0.049 Br
ATOM     14  C   UNL     1      35.707 -24.511 -13.267  0.00  0.00    +0.050 C 
ATOM     15  C   UNL     1      36.937 -24.994 -13.725  0.00  0.00    +0.021 C 
ATOM     16  C   UNL     1      35.595 -24.046 -11.953  0.00  0.00    +0.015 C 
ATOM     17  C   UNL     1      38.044 -25.010 -12.877  0.00  0.00    +0.036 C 
ATOM     18  C   UNL     1      36.703 -24.063 -11.105  0.00  0.00    +0.002 C 
ATOM     19  C   UNL     1      37.927 -24.545 -11.567  0.00  0.00    +0.007 C 
ENDBRANCH   1  14
BRANCH   8  21
ATOM     20  O   UNL     1      34.563 -22.785 -18.205  0.00  0.00    -0.270 OA
ATOM     21  N   UNL     1      32.354 -22.004 -17.982  0.00  0.00    -0.281 N 
ATOM     22  C   UNL     1      33.612 -22.114 -18.590  0.00  0.00    +0.250 C 
ATOM     23  H   UNL     1      31.707 -21.415 -18.434  0.00  0.00    +0.155 HD
BRANCH  22  24
ATOM     24  C   UNL     1      33.701 -21.288 -19.828  0.00  0.00    +0.058 C 
ATOM     25  C   UNL     1      32.861 -20.267 -20.027  0.00  0.00    +0.005 C 
ENDBRANCH  22  24
ENDBRANCH   8  21
TORSDOF 3
ENDMDL
MODEL 7
REMARK VINA RESULT:      -9.6      1.458      2.048
REMARK  Name = 4708
REMARK  3 active torsions:
REMARK  status: ('A' for Active; 'I' for Inactive)
REMARK    1  A    between atoms: N_1  and  C_14
REMARK    2  A    between atoms: C_8  and  N_21
REMARK    3  A    between atoms: C_22  and  C_24
REMARK                            x       y       z     vdW  Elec       q    Type
REMARK                         _______ _______ _______ _____ _____    ______ ____
ROOT
ATOM      1  N   UNL     1      33.472 -22.309 -18.095  0.00  0.00    -0.301 N 
ATOM      2  N   UNL     1      35.373 -23.538 -14.631  0.00  0.00    -0.248 NA
ATOM      3  N   UNL     1      35.453 -22.732 -16.901  0.00  0.00    -0.233 NA
ATOM      4  C   UNL     1      33.330 -23.117 -15.813  0.00  0.00    +0.117 C 
ATOM      5  C   UNL     1      34.029 -23.525 -14.665  0.00  0.00    +0.067 C 
ATOM      6  C   UNL     1      34.107 -22.731 -16.901  0.00  0.00    +0.115 C 
ATOM      7  C   UNL     1      31.924 -23.108 -15.839  0.00  0.00    +0.001 C 
ATOM      8  C   UNL     1      31.206 -23.506 -14.716  0.00  0.00    +0.047 C 
ATOM      9  C   UNL     1      33.285 -23.918 -13.556  0.00  0.00    +0.016 C 
ATOM     10  C   UNL     1      31.887 -23.911 -13.573  0.00  0.00    +0.016 C 
ATOM     11  C   UNL     1      36.013 -23.141 -15.749  0.00  0.00    +0.251 C 
ATOM     12  H   UNL     1      32.596 -22.730 -18.250  0.00  0.00    +0.153 HD
ENDROOT
BRANCH   1  14
ATOM     13 BR   UNL     1      37.376 -19.629 -20.432  0.00  0.00    -0.049 Br
ATOM     14  C   UNL     1      33.850 -21.403 -19.099  0.00  0.00    +0.050 C 
ATOM     15  C   UNL     1      35.189 -21.029 -19.244  0.00  0.00    +0.021 C 
ATOM     16  C   UNL     1      32.888 -20.869 -19.963  0.00  0.00    +0.015 C 
ATOM     17  C   UNL     1      35.564 -20.131 -20.243  0.00  0.00    +0.036 C 
ATOM     18  C   UNL     1      33.263 -19.969 -20.961  0.00  0.00    +0.002 C 
ATOM     19  C   UNL     1      34.601 -19.600 -21.101  0.00  0.00    +0.007 C 
ENDBRANCH   1  14
BRANCH   8  21
ATOM     20  O   UNL     1      29.291 -22.090 -16.546  0.00  0.00    -0.270 OA
ATOM     21  N   UNL     1      29.811 -23.499 -14.735  0.00  0.00    -0.281 N 
ATOM     22  C   UNL     1      28.961 -22.817 -15.617  0.00  0.00    +0.250 C 
ATOM     23  H   UNL     1      29.369 -24.042 -14.043  0.00  0.00    +0.155 HD
BRANCH  22  24
ATOM     24  C   UNL     1      27.525 -23.070 -15.304  0.00  0.00    +0.058 C 
ATOM     25  C   UNL     1      26.585 -22.191 -15.665  0.00  0.00    +0.005 C 
ENDBRANCH  22  24
ENDBRANCH   8  21
TORSDOF 3
ENDMDL
MODEL 8
REMARK VINA RESULT:      -9.3     11.709     14.543
REMARK  Name = 4708
REMARK  3 active torsions:
REMARK  status: ('A' for Active; 'I' for Inactive)
REMARK    1  A    between atoms: N_1  and  C_14
REMARK    2  A    between atoms: C_8  and  N_21
REMARK    3  A    between atoms: C_22  and  C_24
REMARK                            x       y       z     vdW  Elec       q    Type
REMARK                         _______ _______ _______ _____ _____    ______ ____
ROOT
ATOM      1  N   UNL     1      32.740 -12.208 -23.377  0.00  0.00    -0.301 N 
ATOM      2  N   UNL     1      31.272 -10.529 -19.891  0.00  0.00    -0.248 NA
ATOM      3  N   UNL     1      31.669 -12.446 -21.297  0.00  0.00    -0.233 NA
ATOM      4  C   UNL     1      32.367 -10.243 -22.004  0.00  0.00    +0.117 C 
ATOM      5  C   UNL     1      31.851  -9.730 -20.803  0.00  0.00    +0.067 C 
ATOM      6  C   UNL     1      32.243 -11.617 -22.189  0.00  0.00    +0.115 C 
ATOM      7  C   UNL     1      32.971  -9.398 -22.952  0.00  0.00    +0.001 C 
ATOM      8  C   UNL     1      33.065  -8.032 -22.707  0.00  0.00    +0.047 C 
ATOM      9  C   UNL     1      31.958  -8.359 -20.584  0.00  0.00    +0.016 C 
ATOM     10  C   UNL     1      32.557  -7.512 -21.521  0.00  0.00    +0.016 C 
ATOM     11  C   UNL     1      31.212 -11.843 -20.186  0.00  0.00    +0.251 C 
ATOM     12  H   UNL     1      32.716 -11.610 -24.158  0.00  0.00    +0.153 HD
ENDROOT
BRANCH   1  14
ATOM     13 BR   UNL     1      35.331 -16.445 -21.582  0.00  0.00    -0.049 Br
ATOM     14  C   UNL     1      33.262 -13.481 -23.655  0.00  0.00    +0.050 C 
ATOM     15  C   UNL     1      33.923 -14.206 -22.658  0.00  0.00    +0.021 C 
ATOM     16  C   UNL     1      33.125 -14.034 -24.932  0.00  0.00    +0.015 C 
ATOM     17  C   UNL     1      34.439 -15.471 -22.935  0.00  0.00    +0.036 C 
ATOM     18  C   UNL     1      33.643 -15.299 -25.209  0.00  0.00    +0.002 C 
ATOM     19  C   UNL     1      34.300 -16.018 -24.210  0.00  0.00    +0.007 C 
ENDBRANCH   1  14
BRANCH   8  21
ATOM     20  O   UNL     1      35.886  -7.020 -22.893  0.00  0.00    -0.270 OA
ATOM     21  N   UNL     1      33.662  -7.189 -23.643  0.00  0.00    -0.281 N 
ATOM     22  C   UNL     1      34.991  -6.746 -23.683  0.00  0.00    +0.250 C 
ATOM     23  H   UNL     1      33.077  -6.865 -24.366  0.00  0.00    +0.155 HD
BRANCH  22  24
ATOM     24  C   UNL     1      35.238  -5.850 -24.850  0.00  0.00    +0.058 C 
ATOM     25  C   UNL     1      34.222  -5.244 -25.470  0.00  0.00    +0.005 C 
ENDBRANCH  22  24
ENDBRANCH   8  21
TORSDOF 3
ENDMDL
MODEL 9
REMARK VINA RESULT:      -9.1     12.447     14.864
REMARK  Name = 4708
REMARK  3 active torsions:
REMARK  status: ('A' for Active; 'I' for Inactive)
REMARK    1  A    between atoms: N_1  and  C_14
REMARK    2  A    between atoms: C_8  and  N_21
REMARK    3  A    between atoms: C_22  and  C_24
REMARK                            x       y       z     vdW  Elec       q    Type
REMARK                         _______ _______ _______ _____ _____    ______ ____
ROOT
ATOM      1  N   UNL     1      32.767  -8.449 -22.979  0.00  0.00    -0.301 N 
ATOM      2  N   UNL     1      31.595  -9.779 -19.240  0.00  0.00    -0.248 NA
ATOM      3  N   UNL     1      32.087  -7.988 -20.775  0.00  0.00    -0.233 NA
ATOM      4  C   UNL     1      32.284 -10.292 -21.478  0.00  0.00    +0.117 C 
ATOM      5  C   UNL     1      31.881 -10.685 -20.192  0.00  0.00    +0.067 C 
ATOM      6  C   UNL     1      32.366  -8.921 -21.705  0.00  0.00    +0.115 C 
ATOM      7  C   UNL     1      32.582 -11.247 -22.467  0.00  0.00    +0.001 C 
ATOM      8  C   UNL     1      32.479 -12.603 -22.176  0.00  0.00    +0.047 C 
ATOM      9  C   UNL     1      31.787 -12.049 -19.929  0.00  0.00    +0.016 C 
ATOM     10  C   UNL     1      32.081 -13.005 -20.905  0.00  0.00    +0.016 C 
ATOM     11  C   UNL     1      31.712  -8.481 -19.582  0.00  0.00    +0.251 C 
ATOM     12  H   UNL     1      33.378  -9.056 -23.454  0.00  0.00    +0.153 HD
ENDROOT
BRANCH   1  14
ATOM     13 BR   UNL     1      34.492  -4.553 -26.099  0.00  0.00    -0.049 Br
ATOM     14  C   UNL     1      32.457  -7.282 -23.697  0.00  0.00    +0.050 C 
ATOM     15  C   UNL     1      33.452  -6.612 -24.416  0.00  0.00    +0.021 C 
ATOM     16  C   UNL     1      31.152  -6.782 -23.697  0.00  0.00    +0.015 C 
ATOM     17  C   UNL     1      33.143  -5.454 -25.129  0.00  0.00    +0.036 C 
ATOM     18  C   UNL     1      30.843  -5.624 -24.410  0.00  0.00    +0.002 C 
ATOM     19  C   UNL     1      31.839  -4.959 -25.126  0.00  0.00    +0.007 C 
ENDBRANCH   1  14
BRANCH   8  21
ATOM     20  O   UNL     1      34.906 -14.335 -22.535  0.00  0.00    -0.270 OA
ATOM     21  N   UNL     1      32.773 -13.556 -23.151  0.00  0.00    -0.281 N 
ATOM     22  C   UNL     1      33.928 -14.341 -23.273  0.00  0.00    +0.250 C 
ATOM     23  H   UNL     1      32.083 -13.695 -23.840  0.00  0.00    +0.155 HD
BRANCH  22  24
ATOM     24  C   UNL     1      33.858 -15.245 -24.457  0.00  0.00    +0.058 C 
ATOM     25  C   UNL     1      33.178 -14.884 -25.550  0.00  0.00    +0.005 C 
ENDBRANCH  22  24
ENDBRANCH   8  21
TORSDOF 3
ENDMDL
