MODEL 1
REMARK VINA RESULT:     -12.5      0.000      0.000
REMARK  Name = 24882195
REMARK  2 active torsions:
REMARK  status: ('A' for Active; 'I' for Inactive)
REMARK    1  A    between atoms: C_5  and  N_15
REMARK    2  A    between atoms: N_15  and  C_21
REMARK                            x       y       z     vdW  Elec       q    Type
REMARK                         _______ _______ _______ _____ _____    ______ ____
ROOT
ATOM      1  C   UNL     1      35.168 -21.979 -17.792  0.00  0.00    +0.001 C 
ATOM      2  C   UNL     1      33.892 -21.900 -18.392  0.00  0.00    +0.000 C 
ATOM      3  C   UNL     1      36.071 -20.492 -19.518  0.00  0.00    +0.000 C 
ATOM      4  C   UNL     1      34.795 -20.413 -20.118  0.00  0.00    +0.000 C 
ATOM      5  C   UNL     1      34.262 -23.455 -16.083  0.00  0.00    +0.049 C 
ATOM      6  C   UNL     1      36.241 -21.275 -18.364  0.00  0.00    +0.000 C 
ATOM      7  C   UNL     1      35.337 -22.762 -16.639  0.00  0.00    +0.015 C 
ATOM      8  C   UNL     1      33.721 -21.118 -19.547  0.00  0.00    +0.000 C 
ATOM      9  C   UNL     1      32.819 -22.604 -17.820  0.00  0.00    +0.001 C 
ATOM     10  C   UNL     1      33.004 -23.377 -16.673  0.00  0.00    +0.015 C 
ATOM     11  C   UNL     1      37.143 -19.788 -20.090  0.00  0.00    +0.000 C 
ATOM     12  C   UNL     1      34.625 -19.630 -21.272  0.00  0.00    +0.000 C 
ATOM     13  C   UNL     1      36.958 -19.016 -21.237  0.00  0.00    +0.000 C 
ATOM     14  C   UNL     1      35.701 -18.937 -21.827  0.00  0.00    +0.000 C 
ENDROOT
BRANCH   5  15
ATOM     15  N   UNL     1      34.449 -24.236 -14.923  0.00  0.00    -0.299 N 
ATOM     16  H   UNL     1      33.666 -24.751 -14.624  0.00  0.00    +0.153 HD
BRANCH  15  21
ATOM     17  N   UNL     1      36.375 -25.485 -14.404  0.00  0.00    -0.106 N 
ATOM     18  N   UNL     1      37.950 -24.856 -12.700  0.00  0.00    -0.340 NA
ATOM     19  N   UNL     1      36.212 -26.485 -15.309  0.00  0.00    -0.139 NA
ATOM     20  N   UNL     1      38.114 -26.827 -14.105  0.00  0.00    -0.145 NA
ATOM     21  C   UNL     1      35.561 -24.370 -14.168  0.00  0.00    +0.138 C 
ATOM     22  C   UNL     1      35.930 -23.504 -13.211  0.00  0.00    +0.061 C 
ATOM     23  C   UNL     1      37.548 -25.715 -13.679  0.00  0.00    +0.174 C 
ATOM     24  C   UNL     1      37.194 -23.821 -12.480  0.00  0.00    +0.125 C 
ATOM     25  C   UNL     1      37.620 -22.858 -11.401  0.00  0.00    +0.068 C 
ATOM     26  C   UNL     1      37.275 -27.250 -15.083  0.00  0.00    +0.230 C 
ENDBRANCH  15  21
ENDBRANCH   5  15
TORSDOF 2
ENDMDL
MODEL 2
REMARK VINA RESULT:     -12.3      1.314      2.244
REMARK  Name = 24882195
REMARK  2 active torsions:
REMARK  status: ('A' for Active; 'I' for Inactive)
REMARK    1  A    between atoms: C_5  and  N_15
REMARK    2  A    between atoms: N_15  and  C_21
REMARK                            x       y       z     vdW  Elec       q    Type
REMARK                         _______ _______ _______ _____ _____    ______ ____
ROOT
ATOM      1  C   UNL     1      35.057 -22.399 -17.343  0.00  0.00    +0.001 C 
ATOM      2  C   UNL     1      33.699 -22.374 -17.728  0.00  0.00    +0.000 C 
ATOM      3  C   UNL     1      35.619 -20.935 -19.225  0.00  0.00    +0.000 C 
ATOM      4  C   UNL     1      34.260 -20.909 -19.611  0.00  0.00    +0.000 C 
ATOM      5  C   UNL     1      34.489 -23.854 -15.476  0.00  0.00    +0.049 C 
ATOM      6  C   UNL     1      35.999 -21.680 -18.097  0.00  0.00    +0.000 C 
ATOM      7  C   UNL     1      35.436 -23.145 -16.215  0.00  0.00    +0.015 C 
ATOM      8  C   UNL     1      33.317 -21.629 -18.857  0.00  0.00    +0.000 C 
ATOM      9  C   UNL     1      32.756 -23.093 -16.974  0.00  0.00    +0.001 C 
ATOM     10  C   UNL     1      33.150 -23.828 -15.855  0.00  0.00    +0.015 C 
ATOM     11  C   UNL     1      36.560 -20.216 -19.980  0.00  0.00    +0.000 C 
ATOM     12  C   UNL     1      33.880 -20.164 -20.739  0.00  0.00    +0.000 C 
ATOM     13  C   UNL     1      36.167 -19.481 -21.098  0.00  0.00    +0.000 C 
ATOM     14  C   UNL     1      34.829 -19.455 -21.477  0.00  0.00    +0.000 C 
ENDROOT
BRANCH   5  15
ATOM     15  N   UNL     1      34.887 -24.597 -14.345  0.00  0.00    -0.299 N 
ATOM     16  H   UNL     1      34.178 -25.119 -13.906  0.00  0.00    +0.153 HD
BRANCH  15  21
ATOM     17  N   UNL     1      36.205 -24.505 -12.398  0.00  0.00    -0.106 N 
ATOM     18  N   UNL     1      38.588 -24.828 -12.387  0.00  0.00    -0.340 NA
ATOM     19  N   UNL     1      35.217 -24.246 -11.502  0.00  0.00    -0.139 NA
ATOM     20  N   UNL     1      37.224 -24.371 -10.434  0.00  0.00    -0.145 NA
ATOM     21  C   UNL     1      36.112 -24.685 -13.784  0.00  0.00    +0.138 C 
ATOM     22  C   UNL     1      37.239 -24.934 -14.470  0.00  0.00    +0.061 C 
ATOM     23  C   UNL     1      37.426 -24.578 -11.720  0.00  0.00    +0.174 C 
ATOM     24  C   UNL     1      38.501 -24.996 -13.673  0.00  0.00    +0.125 C 
ATOM     25  C   UNL     1      39.775 -25.273 -14.431  0.00  0.00    +0.068 C 
ATOM     26  C   UNL     1      35.883 -24.178 -10.354  0.00  0.00    +0.230 C 
ENDBRANCH  15  21
ENDBRANCH   5  15
TORSDOF 2
ENDMDL
MODEL 3
REMARK VINA RESULT:     -12.2      5.678      9.967
REMARK  Name = 24882195
REMARK  2 active torsions:
REMARK  status: ('A' for Active; 'I' for Inactive)
REMARK    1  A    between atoms: C_5  and  N_15
REMARK    2  A    between atoms: N_15  and  C_21
REMARK                            x       y       z     vdW  Elec       q    Type
REMARK                         _______ _______ _______ _____ _____    ______ ____
ROOT
ATOM      1  C   UNL     1      34.926 -20.194 -20.310  0.00  0.00    +0.001 C 
ATOM      2  C   UNL     1      36.196 -20.297 -19.702  0.00  0.00    +0.000 C 
ATOM      3  C   UNL     1      33.998 -21.720 -18.633  0.00  0.00    +0.000 C 
ATOM      4  C   UNL     1      35.268 -21.824 -18.024  0.00  0.00    +0.000 C 
ATOM      5  C   UNL     1      35.857 -18.679 -21.972  0.00  0.00    +0.049 C 
ATOM      6  C   UNL     1      33.844 -20.907 -19.768  0.00  0.00    +0.000 C 
ATOM      7  C   UNL     1      34.772 -19.381 -21.445  0.00  0.00    +0.015 C 
ATOM      8  C   UNL     1      36.351 -21.111 -18.567  0.00  0.00    +0.000 C 
ATOM      9  C   UNL     1      37.278 -19.584 -20.244  0.00  0.00    +0.001 C 
ATOM     10  C   UNL     1      37.109 -18.780 -21.373  0.00  0.00    +0.015 C 
ATOM     11  C   UNL     1      32.917 -22.434 -18.090  0.00  0.00    +0.000 C 
ATOM     12  C   UNL     1      35.422 -22.637 -16.889  0.00  0.00    +0.000 C 
ATOM     13  C   UNL     1      33.086 -23.237 -16.963  0.00  0.00    +0.000 C 
ATOM     14  C   UNL     1      34.337 -23.338 -16.363  0.00  0.00    +0.000 C 
ENDROOT
BRANCH   5  15
ATOM     15  N   UNL     1      35.685 -17.866 -23.112  0.00  0.00    -0.299 N 
ATOM     16  H   UNL     1      36.147 -18.170 -23.927  0.00  0.00    +0.153 HD
BRANCH  15  21
ATOM     17  N   UNL     1      34.755 -15.969 -22.076  0.00  0.00    -0.106 N 
ATOM     18  N   UNL     1      33.499 -14.290 -23.252  0.00  0.00    -0.340 NA
ATOM     19  N   UNL     1      35.168 -16.216 -20.805  0.00  0.00    -0.139 NA
ATOM     20  N   UNL     1      33.982 -14.274 -20.875  0.00  0.00    -0.145 NA
ATOM     21  C   UNL     1      34.972 -16.726 -23.234  0.00  0.00    +0.138 C 
ATOM     22  C   UNL     1      34.461 -16.277 -24.392  0.00  0.00    +0.061 C 
ATOM     23  C   UNL     1      34.031 -14.773 -22.094  0.00  0.00    +0.174 C 
ATOM     24  C   UNL     1      33.701 -14.992 -24.328  0.00  0.00    +0.125 C 
ATOM     25  C   UNL     1      33.121 -14.477 -25.620  0.00  0.00    +0.068 C 
ATOM     26  C   UNL     1      34.679 -15.176 -20.139  0.00  0.00    +0.230 C 
ENDBRANCH  15  21
ENDBRANCH   5  15
TORSDOF 2
ENDMDL
MODEL 4
REMARK VINA RESULT:     -12.0      1.131      2.049
REMARK  Name = 24882195
REMARK  2 active torsions:
REMARK  status: ('A' for Active; 'I' for Inactive)
REMARK    1  A    between atoms: C_5  and  N_15
REMARK    2  A    between atoms: N_15  and  C_21
REMARK                            x       y       z     vdW  Elec       q    Type
REMARK                         _______ _______ _______ _____ _____    ______ ____
ROOT
ATOM      1  C   UNL     1      35.128 -21.871 -17.906  0.00  0.00    +0.001 C 
ATOM      2  C   UNL     1      36.448 -21.393 -17.755  0.00  0.00    +0.000 C 
ATOM      3  C   UNL     1      34.907 -20.603 -19.991  0.00  0.00    +0.000 C 
ATOM      4  C   UNL     1      36.227 -20.124 -19.840  0.00  0.00    +0.000 C 
ATOM      5  C   UNL     1      35.358 -23.127 -15.834  0.00  0.00    +0.049 C 
ATOM      6  C   UNL     1      34.375 -21.470 -19.022  0.00  0.00    +0.000 C 
ATOM      7  C   UNL     1      34.597 -22.737 -16.937  0.00  0.00    +0.015 C 
ATOM      8  C   UNL     1      36.981 -20.525 -18.724  0.00  0.00    +0.000 C 
ATOM      9  C   UNL     1      37.201 -21.794 -16.640  0.00  0.00    +0.001 C 
ATOM     10  C   UNL     1      36.659 -22.656 -15.685  0.00  0.00    +0.015 C 
ATOM     11  C   UNL     1      34.155 -20.201 -21.107  0.00  0.00    +0.000 C 
ATOM     12  C   UNL     1      36.759 -19.258 -20.809  0.00  0.00    +0.000 C 
ATOM     13  C   UNL     1      34.697 -19.340 -22.060  0.00  0.00    +0.000 C 
ATOM     14  C   UNL     1      35.997 -18.869 -21.912  0.00  0.00    +0.000 C 
ENDROOT
BRANCH   5  15
ATOM     15  N   UNL     1      34.809 -23.999 -14.870  0.00  0.00    -0.299 N 
ATOM     16  H   UNL     1      33.871 -24.260 -15.015  0.00  0.00    +0.153 HD
BRANCH  15  21
ATOM     17  N   UNL     1      36.281 -25.593 -13.960  0.00  0.00    -0.106 N 
ATOM     18  N   UNL     1      36.756 -25.778 -11.610  0.00  0.00    -0.340 NA
ATOM     19  N   UNL     1      36.646 -26.208 -15.116  0.00  0.00    -0.139 NA
ATOM     20  N   UNL     1      37.705 -27.178 -13.349  0.00  0.00    -0.145 NA
ATOM     21  C   UNL     1      35.399 -24.521 -13.773  0.00  0.00    +0.138 C 
ATOM     22  C   UNL     1      35.193 -24.078 -12.524  0.00  0.00    +0.061 C 
ATOM     23  C   UNL     1      36.944 -26.204 -12.891  0.00  0.00    +0.174 C 
ATOM     24  C   UNL     1      35.937 -24.783 -11.437  0.00  0.00    +0.125 C 
ATOM     25  C   UNL     1      35.714 -24.296 -10.028  0.00  0.00    +0.068 C 
ATOM     26  C   UNL     1      37.492 -27.139 -14.689  0.00  0.00    +0.230 C 
ENDBRANCH  15  21
ENDBRANCH   5  15
TORSDOF 2
ENDMDL
MODEL 5
REMARK VINA RESULT:     -11.7      6.259     10.292
REMARK  Name = 24882195
REMARK  2 active torsions:
REMARK  status: ('A' for Active; 'I' for Inactive)
REMARK    1  A    between atoms: C_5  and  N_15
REMARK    2  A    between atoms: N_15  and  C_21
REMARK                            x       y       z     vdW  Elec       q    Type
REMARK                         _______ _______ _______ _____ _____    ______ ____
ROOT
ATOM      1  C   UNL     1      34.770 -19.849 -20.281  0.00  0.00    +0.001 C 
ATOM      2  C   UNL     1      36.078 -20.181 -19.867  0.00  0.00    +0.000 C 
ATOM      3  C   UNL     1      33.857 -21.520 -18.740  0.00  0.00    +0.000 C 
ATOM      4  C   UNL     1      35.166 -21.854 -18.325  0.00  0.00    +0.000 C 
ATOM      5  C   UNL     1      35.686 -18.190 -21.808  0.00  0.00    +0.049 C 
ATOM      6  C   UNL     1      33.677 -20.523 -19.712  0.00  0.00    +0.000 C 
ATOM      7  C   UNL     1      34.590 -18.851 -21.253  0.00  0.00    +0.015 C 
ATOM      8  C   UNL     1      36.260 -21.180 -18.894  0.00  0.00    +0.000 C 
ATOM      9  C   UNL     1      37.172 -19.507 -20.435  0.00  0.00    +0.001 C 
ATOM     10  C   UNL     1      36.976 -18.518 -21.400  0.00  0.00    +0.015 C 
ATOM     11  C   UNL     1      32.765 -22.196 -18.171  0.00  0.00    +0.000 C 
ATOM     12  C   UNL     1      35.346 -22.851 -17.353  0.00  0.00    +0.000 C 
ATOM     13  C   UNL     1      32.961 -23.184 -17.207  0.00  0.00    +0.000 C 
ATOM     14  C   UNL     1      34.249 -23.511 -16.798  0.00  0.00    +0.000 C 
ENDROOT
BRANCH   5  15
ATOM     15  N   UNL     1      35.488 -17.191 -22.784  0.00  0.00    -0.299 N 
ATOM     16  H   UNL     1      35.908 -17.357 -23.658  0.00  0.00    +0.153 HD
BRANCH  15  21
ATOM     17  N   UNL     1      34.196 -15.529 -23.835  0.00  0.00    -0.106 N 
ATOM     18  N   UNL     1      33.298 -13.615 -22.688  0.00  0.00    -0.340 NA
ATOM     19  N   UNL     1      34.198 -16.043 -25.093  0.00  0.00    -0.139 NA
ATOM     20  N   UNL     1      33.008 -14.102 -25.047  0.00  0.00    -0.145 NA
ATOM     21  C   UNL     1      34.799 -16.034 -22.676  0.00  0.00    +0.138 C 
ATOM     22  C   UNL     1      34.658 -15.344 -21.534  0.00  0.00    +0.061 C 
ATOM     23  C   UNL     1      33.459 -14.340 -23.831  0.00  0.00    +0.174 C 
ATOM     24  C   UNL     1      33.858 -14.085 -21.612  0.00  0.00    +0.125 C 
ATOM     25  C   UNL     1      33.693 -13.299 -20.336  0.00  0.00    +0.068 C 
ATOM     26  C   UNL     1      33.477 -15.152 -25.766  0.00  0.00    +0.230 C 
ENDBRANCH  15  21
ENDBRANCH   5  15
TORSDOF 2
ENDMDL
MODEL 6
REMARK VINA RESULT:     -11.6      1.302      1.699
REMARK  Name = 24882195
REMARK  2 active torsions:
REMARK  status: ('A' for Active; 'I' for Inactive)
REMARK    1  A    between atoms: C_5  and  N_15
REMARK    2  A    between atoms: N_15  and  C_21
REMARK                            x       y       z     vdW  Elec       q    Type
REMARK                         _______ _______ _______ _____ _____    ______ ____
ROOT
ATOM      1  C   UNL     1      36.482 -21.358 -17.680  0.00  0.00    +0.001 C 
ATOM      2  C   UNL     1      35.182 -21.886 -17.840  0.00  0.00    +0.000 C 
ATOM      3  C   UNL     1      36.237 -20.122 -19.781  0.00  0.00    +0.000 C 
ATOM      4  C   UNL     1      34.937 -20.650 -19.942  0.00  0.00    +0.000 C 
ATOM      5  C   UNL     1      36.716 -22.589 -15.594  0.00  0.00    +0.049 C 
ATOM      6  C   UNL     1      36.992 -20.483 -18.654  0.00  0.00    +0.000 C 
ATOM      7  C   UNL     1      37.236 -21.719 -16.552  0.00  0.00    +0.015 C 
ATOM      8  C   UNL     1      34.426 -21.526 -18.968  0.00  0.00    +0.000 C 
ATOM      9  C   UNL     1      34.672 -22.761 -16.866  0.00  0.00    +0.001 C 
ATOM     10  C   UNL     1      35.434 -23.110 -15.750  0.00  0.00    +0.015 C 
ATOM     11  C   UNL     1      36.746 -19.248 -20.756  0.00  0.00    +0.000 C 
ATOM     12  C   UNL     1      34.182 -20.289 -21.069  0.00  0.00    +0.000 C 
ATOM     13  C   UNL     1      35.984 -18.899 -21.870  0.00  0.00    +0.000 C 
ATOM     14  C   UNL     1      34.704 -19.419 -22.027  0.00  0.00    +0.000 C 
ENDROOT
BRANCH   5  15
ATOM     15  N   UNL     1      37.487 -22.941 -14.467  0.00  0.00    -0.299 N 
ATOM     16  H   UNL     1      38.376 -22.522 -14.409  0.00  0.00    +0.153 HD
BRANCH  15  21
ATOM     17  N   UNL     1      37.368 -25.150 -13.664  0.00  0.00    -0.106 N 
ATOM     18  N   UNL     1      36.569 -25.728 -11.470  0.00  0.00    -0.340 NA
ATOM     19  N   UNL     1      37.850 -25.787 -14.763  0.00  0.00    -0.139 NA
ATOM     20  N   UNL     1      37.353 -27.304 -13.140  0.00  0.00    -0.145 NA
ATOM     21  C   UNL     1      37.169 -23.779 -13.456  0.00  0.00    +0.138 C 
ATOM     22  C   UNL     1      36.676 -23.380 -12.273  0.00  0.00    +0.061 C 
ATOM     23  C   UNL     1      37.071 -26.100 -12.682  0.00  0.00    +0.174 C 
ATOM     24  C   UNL     1      36.385 -24.456 -11.278  0.00  0.00    +0.125 C 
ATOM     25  C   UNL     1      35.830 -24.021  -9.945  0.00  0.00    +0.068 C 
ATOM     26  C   UNL     1      37.817 -27.062 -14.391  0.00  0.00    +0.230 C 
ENDBRANCH  15  21
ENDBRANCH   5  15
TORSDOF 2
ENDMDL
MODEL 7
REMARK VINA RESULT:     -11.6      1.695      2.488
REMARK  Name = 24882195
REMARK  2 active torsions:
REMARK  status: ('A' for Active; 'I' for Inactive)
REMARK    1  A    between atoms: C_5  and  N_15
REMARK    2  A    between atoms: N_15  and  C_21
REMARK                            x       y       z     vdW  Elec       q    Type
REMARK                         _______ _______ _______ _____ _____    ______ ____
ROOT
ATOM      1  C   UNL     1      36.519 -21.118 -17.742  0.00  0.00    +0.001 C 
ATOM      2  C   UNL     1      35.304 -21.758 -18.074  0.00  0.00    +0.000 C 
ATOM      3  C   UNL     1      36.467 -19.915 -19.875  0.00  0.00    +0.000 C 
ATOM      4  C   UNL     1      35.252 -20.554 -20.208  0.00  0.00    +0.000 C 
ATOM      5  C   UNL     1      36.561 -22.319 -15.626  0.00  0.00    +0.049 C 
ATOM      6  C   UNL     1      37.084 -20.206 -18.648  0.00  0.00    +0.000 C 
ATOM      7  C   UNL     1      37.135 -21.410 -16.515  0.00  0.00    +0.015 C 
ATOM      8  C   UNL     1      34.686 -21.467 -19.302  0.00  0.00    +0.000 C 
ATOM      9  C   UNL     1      34.738 -22.670 -17.168  0.00  0.00    +0.001 C 
ATOM     10  C   UNL     1      35.363 -22.949 -15.952  0.00  0.00    +0.015 C 
ATOM     11  C   UNL     1      37.032 -19.003 -20.782  0.00  0.00    +0.000 C 
ATOM     12  C   UNL     1      34.635 -20.263 -21.435  0.00  0.00    +0.000 C 
ATOM     13  C   UNL     1      36.408 -18.725 -21.997  0.00  0.00    +0.000 C 
ATOM     14  C   UNL     1      35.211 -19.353 -22.323  0.00  0.00    +0.000 C 
ENDROOT
BRANCH   5  15
ATOM     15  N   UNL     1      37.193 -22.600 -14.396  0.00  0.00    -0.299 N 
ATOM     16  H   UNL     1      37.273 -21.842 -13.774  0.00  0.00    +0.153 HD
BRANCH  15  21
ATOM     17  N   UNL     1      37.067 -24.397 -12.882  0.00  0.00    -0.106 N 
ATOM     18  N   UNL     1      38.607 -26.243 -12.876  0.00  0.00    -0.340 NA
ATOM     19  N   UNL     1      35.973 -23.992 -12.185  0.00  0.00    -0.139 NA
ATOM     20  N   UNL     1      36.737 -25.970 -11.356  0.00  0.00    -0.145 NA
ATOM     21  C   UNL     1      37.706 -23.771 -13.961  0.00  0.00    +0.138 C 
ATOM     22  C   UNL     1      38.782 -24.368 -14.495  0.00  0.00    +0.061 C 
ATOM     23  C   UNL     1      37.517 -25.612 -12.357  0.00  0.00    +0.174 C 
ATOM     24  C   UNL     1      39.200 -25.662 -13.877  0.00  0.00    +0.125 C 
ATOM     25  C   UNL     1      40.409 -26.342 -14.466  0.00  0.00    +0.068 C 
ATOM     26  C   UNL     1      35.826 -24.966 -11.294  0.00  0.00    +0.230 C 
ENDBRANCH  15  21
ENDBRANCH   5  15
TORSDOF 2
ENDMDL
MODEL 8
REMARK VINA RESULT:     -11.5      2.304      4.217
REMARK  Name = 24882195
REMARK  2 active torsions:
REMARK  status: ('A' for Active; 'I' for Inactive)
REMARK    1  A    between atoms: C_5  and  N_15
REMARK    2  A    between atoms: N_15  and  C_21
REMARK                            x       y       z     vdW  Elec       q    Type
REMARK                         _______ _______ _______ _____ _____    ______ ____
ROOT
ATOM      1  C   UNL     1      34.422 -21.255 -19.421  0.00  0.00    +0.001 C 
ATOM      2  C   UNL     1      35.747 -21.026 -18.990  0.00  0.00    +0.000 C 
ATOM      3  C   UNL     1      34.735 -19.644 -21.239  0.00  0.00    +0.000 C 
ATOM      4  C   UNL     1      36.060 -19.414 -20.809  0.00  0.00    +0.000 C 
ATOM      5  C   UNL     1      34.121 -22.854 -17.611  0.00  0.00    +0.049 C 
ATOM      6  C   UNL     1      33.933 -20.561 -20.540  0.00  0.00    +0.000 C 
ATOM      7  C   UNL     1      33.621 -22.172 -18.721  0.00  0.00    +0.015 C 
ATOM      8  C   UNL     1      36.549 -20.108 -19.689  0.00  0.00    +0.000 C 
ATOM      9  C   UNL     1      36.235 -21.721 -17.871  0.00  0.00    +0.001 C 
ATOM     10  C   UNL     1      35.427 -22.629 -17.186  0.00  0.00    +0.015 C 
ATOM     11  C   UNL     1      34.247 -18.948 -22.358  0.00  0.00    +0.000 C 
ATOM     12  C   UNL     1      36.861 -18.497 -21.508  0.00  0.00    +0.000 C 
ATOM     13  C   UNL     1      35.055 -18.040 -23.042  0.00  0.00    +0.000 C 
ATOM     14  C   UNL     1      36.361 -17.815 -22.618  0.00  0.00    +0.000 C 
ENDROOT
BRANCH   5  15
ATOM     15  N   UNL     1      33.303 -23.773 -16.920  0.00  0.00    -0.299 N 
ATOM     16  H   UNL     1      33.308 -24.694 -17.265  0.00  0.00    +0.153 HD
BRANCH  15  21
ATOM     17  N   UNL     1      33.058 -23.793 -14.579  0.00  0.00    -0.106 N 
ATOM     18  N   UNL     1      31.032 -23.163 -13.447  0.00  0.00    -0.340 NA
ATOM     19  N   UNL     1      34.305 -24.224 -14.254  0.00  0.00    -0.139 NA
ATOM     20  N   UNL     1      33.076 -23.895 -12.365  0.00  0.00    -0.145 NA
ATOM     21  C   UNL     1      32.511 -23.554 -15.847  0.00  0.00    +0.138 C 
ATOM     22  C   UNL     1      31.242 -23.126 -15.922  0.00  0.00    +0.061 C 
ATOM     23  C   UNL     1      32.323 -23.597 -13.406  0.00  0.00    +0.174 C 
ATOM     24  C   UNL     1      30.525 -22.942 -14.624  0.00  0.00    +0.125 C 
ATOM     25  C   UNL     1      29.098 -22.463 -14.694  0.00  0.00    +0.068 C 
ATOM     26  C   UNL     1      34.255 -24.264 -12.926  0.00  0.00    +0.230 C 
ENDBRANCH  15  21
ENDBRANCH   5  15
TORSDOF 2
ENDMDL
MODEL 9
REMARK VINA RESULT:     -11.4      1.788      2.710
REMARK  Name = 24882195
REMARK  2 active torsions:
REMARK  status: ('A' for Active; 'I' for Inactive)
REMARK    1  A    between atoms: C_5  and  N_15
REMARK    2  A    between atoms: N_15  and  C_21
REMARK                            x       y       z     vdW  Elec       q    Type
REMARK                         _______ _______ _______ _____ _____    ______ ____
ROOT
ATOM      1  C   UNL     1      35.903 -21.192 -18.572  0.00  0.00    +0.001 C 
ATOM      2  C   UNL     1      34.581 -21.461 -18.987  0.00  0.00    +0.000 C 
ATOM      3  C   UNL     1      36.199 -19.693 -20.488  0.00  0.00    +0.000 C 
ATOM      4  C   UNL     1      34.876 -19.962 -20.903  0.00  0.00    +0.000 C 
ATOM      5  C   UNL     1      35.600 -22.683 -16.673  0.00  0.00    +0.049 C 
ATOM      6  C   UNL     1      36.695 -20.312 -19.329  0.00  0.00    +0.000 C 
ATOM      7  C   UNL     1      36.399 -21.811 -17.413  0.00  0.00    +0.015 C 
ATOM      8  C   UNL     1      34.083 -20.842 -20.146  0.00  0.00    +0.000 C 
ATOM      9  C   UNL     1      33.789 -22.341 -18.230  0.00  0.00    +0.001 C 
ATOM     10  C   UNL     1      34.296 -22.948 -17.080  0.00  0.00    +0.015 C 
ATOM     11  C   UNL     1      36.990 -18.813 -21.245  0.00  0.00    +0.000 C 
ATOM     12  C   UNL     1      34.379 -19.343 -22.062  0.00  0.00    +0.000 C 
ATOM     13  C   UNL     1      36.483 -18.207 -22.394  0.00  0.00    +0.000 C 
ATOM     14  C   UNL     1      35.179 -18.471 -22.801  0.00  0.00    +0.000 C 
ENDROOT
BRANCH   5  15
ATOM     15  N   UNL     1      36.114 -23.296 -15.511  0.00  0.00    -0.299 N 
ATOM     16  H   UNL     1      37.079 -23.489 -15.520  0.00  0.00    +0.153 HD
BRANCH  15  21
ATOM     17  N   UNL     1      36.128 -23.507 -13.167  0.00  0.00    -0.106 N 
ATOM     18  N   UNL     1      34.269 -24.348 -11.894  0.00  0.00    -0.340 NA
ATOM     19  N   UNL     1      37.382 -23.039 -12.934  0.00  0.00    -0.139 NA
ATOM     20  N   UNL     1      36.385 -23.608 -10.968  0.00  0.00    -0.145 NA
ATOM     21  C   UNL     1      35.456 -23.656 -14.387  0.00  0.00    +0.138 C 
ATOM     22  C   UNL     1      34.207 -24.144 -14.369  0.00  0.00    +0.061 C 
ATOM     23  C   UNL     1      35.536 -23.848 -11.947  0.00  0.00    +0.174 C 
ATOM     24  C   UNL     1      33.646 -24.486 -13.027  0.00  0.00    +0.125 C 
ATOM     25  C   UNL     1      32.243 -25.037 -12.993  0.00  0.00    +0.068 C 
ATOM     26  C   UNL     1      37.477 -23.123 -11.611  0.00  0.00    +0.230 C 
ENDBRANCH  15  21
ENDBRANCH   5  15
TORSDOF 2
ENDMDL
