MODEL 1
REMARK VINA RESULT:     -12.3      0.000      0.000
REMARK  Name = 11740318
REMARK  5 active torsions:
REMARK  status: ('A' for Active; 'I' for Inactive)
REMARK    1  A    between atoms: N_1  and  C_20
REMARK    2  A    between atoms: C_2  and  O_8
REMARK    3  A    between atoms: O_8  and  C_9
REMARK    4  A    between atoms: C_14  and  N_15
REMARK    5  A    between atoms: C_20  and  C_23
REMARK                            x       y       z     vdW  Elec       q    Type
REMARK                         _______ _______ _______ _____ _____    ______ ____
ROOT
ATOM      1  N   UNL     1      34.015 -23.296 -13.981  0.00  0.00    +0.392 N 
ATOM      2  C   UNL     1      33.980 -22.820 -16.411  0.00  0.00    +0.145 C 
ATOM      3  C   UNL     1      34.701 -23.526 -15.258  0.00  0.00    -0.032 C 
ATOM      4  C   UNL     1      32.518 -23.249 -16.490  0.00  0.00    +0.039 C 
ATOM      5  C   UNL     1      31.838 -23.079 -15.138  0.00  0.00    -0.019 C 
ATOM      6  C   UNL     1      32.627 -23.777 -14.029  0.00  0.00    -0.077 C 
ATOM      7  H   UNL     1      33.993 -22.290 -13.814  0.00  0.00    -0.079 HD
ENDROOT
BRANCH   2   8
ATOM      8  O   UNL     1      34.614 -23.142 -17.644  0.00  0.00    -0.481 OA
BRANCH   8   9
ATOM      9  C   UNL     1      34.724 -22.132 -18.561  0.00  0.00    +0.138 C 
ATOM     10  C   UNL     1      35.982 -21.648 -18.905  0.00  0.00    +0.038 C 
ATOM     11  C   UNL     1      33.578 -21.600 -19.143  0.00  0.00    +0.038 C 
ATOM     12  C   UNL     1      36.095 -20.618 -19.840  0.00  0.00    +0.018 C 
ATOM     13  C   UNL     1      33.691 -20.571 -20.077  0.00  0.00    +0.018 C 
ATOM     14  C   UNL     1      34.949 -20.080 -20.426  0.00  0.00    +0.057 C 
BRANCH  14  15
ATOM     15  N   UNL     1      35.061 -19.061 -21.354  0.00  0.00    -0.246 N 
ATOM     16  N   UNL     1      35.444 -17.031 -22.194  0.00  0.00    -0.224 NA
ATOM     17  C   UNL     1      34.830 -19.153 -22.703  0.00  0.00    +0.092 C 
ATOM     18  C   UNL     1      35.428 -17.762 -21.101  0.00  0.00    +0.172 C 
ATOM     19  C   UNL     1      35.072 -17.893 -23.196  0.00  0.00    +0.117 C 
ENDBRANCH  14  15
ENDBRANCH   8   9
ENDBRANCH   2   8
BRANCH   1  20
ATOM     20  C   UNL     1      34.742 -23.937 -12.886  0.00  0.00    -0.050 C 
BRANCH  20  23
ATOM     21  O   UNL     1      39.607 -24.712 -13.224  0.00  0.00    -0.435 OA
ATOM     22  O   UNL     1      39.318 -26.634 -14.650  0.00  0.00    -0.435 OA
ATOM     23  C   UNL     1      35.952 -24.686 -13.379  0.00  0.00    -0.040 C 
ATOM     24  C   UNL     1      37.219 -24.256 -13.001  0.00  0.00    +0.034 C 
ATOM     25  C   UNL     1      35.773 -25.801 -14.207  0.00  0.00    -0.003 C 
ATOM     26  C   UNL     1      38.295 -24.975 -13.478  0.00  0.00    +0.176 C 
ATOM     27  C   UNL     1      36.880 -26.511 -14.675  0.00  0.00    +0.040 C 
ATOM     28  C   UNL     1      38.131 -26.072 -14.292  0.00  0.00    +0.176 C 
ATOM     29  C   UNL     1      40.249 -25.768 -13.969  0.00  0.00    +0.429 C 
ENDBRANCH  20  23
ENDBRANCH   1  20
TORSDOF 5
ENDMDL
MODEL 2
REMARK VINA RESULT:     -11.9      4.563      8.616
REMARK  Name = 11740318
REMARK  5 active torsions:
REMARK  status: ('A' for Active; 'I' for Inactive)
REMARK    1  A    between atoms: N_1  and  C_20
REMARK    2  A    between atoms: C_2  and  O_8
REMARK    3  A    between atoms: O_8  and  C_9
REMARK    4  A    between atoms: C_14  and  N_15
REMARK    5  A    between atoms: C_20  and  C_23
REMARK                            x       y       z     vdW  Elec       q    Type
REMARK                         _______ _______ _______ _____ _____    ______ ____
ROOT
ATOM      1  N   UNL     1      34.991 -18.938 -21.999  0.00  0.00    +0.392 N 
ATOM      2  C   UNL     1      34.625 -16.705 -23.003  0.00  0.00    +0.145 C 
ATOM      3  C   UNL     1      35.474 -17.552 -22.051  0.00  0.00    -0.032 C 
ATOM      4  C   UNL     1      34.579 -17.322 -24.398  0.00  0.00    +0.039 C 
ATOM      5  C   UNL     1      34.153 -18.782 -24.322  0.00  0.00    -0.019 C 
ATOM      6  C   UNL     1      35.018 -19.561 -23.329  0.00  0.00    -0.077 C 
ATOM      7  H   UNL     1      34.023 -18.921 -21.679  0.00  0.00    -0.079 HD
ENDROOT
BRANCH   2   8
ATOM      8  O   UNL     1      35.176 -15.397 -23.105  0.00  0.00    -0.481 OA
BRANCH   8   9
ATOM      9  C   UNL     1      34.462 -14.381 -22.527  0.00  0.00    +0.138 C 
ATOM     10  C   UNL     1      34.143 -14.445 -21.175  0.00  0.00    +0.038 C 
ATOM     11  C   UNL     1      34.063 -13.294 -23.298  0.00  0.00    +0.038 C 
ATOM     12  C   UNL     1      33.415 -13.409 -20.587  0.00  0.00    +0.018 C 
ATOM     13  C   UNL     1      33.336 -12.259 -22.710  0.00  0.00    +0.018 C 
ATOM     14  C   UNL     1      33.012 -12.317 -21.354  0.00  0.00    +0.057 C 
BRANCH  14  15
ATOM     15  N   UNL     1      32.292 -11.290 -20.771  0.00  0.00    -0.246 N 
ATOM     16  N   UNL     1      31.194  -9.361 -20.567  0.00  0.00    -0.224 NA
ATOM     17  C   UNL     1      31.874 -11.223 -19.467  0.00  0.00    +0.092 C 
ATOM     18  C   UNL     1      31.856 -10.144 -21.389  0.00  0.00    +0.172 C 
ATOM     19  C   UNL     1      31.201 -10.028 -19.367  0.00  0.00    +0.117 C 
ENDBRANCH  14  15
ENDBRANCH   8   9
ENDBRANCH   2   8
BRANCH   1  20
ATOM     20  C   UNL     1      35.784 -19.721 -21.051  0.00  0.00    -0.050 C 
BRANCH  20  23
ATOM     21  O   UNL     1      35.059 -22.924 -17.363  0.00  0.00    -0.435 OA
ATOM     22  O   UNL     1      32.662 -22.785 -17.560  0.00  0.00    -0.435 OA
ATOM     23  C   UNL     1      34.913 -20.532 -20.128  0.00  0.00    -0.040 C 
ATOM     24  C   UNL     1      35.510 -21.348 -19.173  0.00  0.00    +0.034 C 
ATOM     25  C   UNL     1      33.522 -20.444 -20.250  0.00  0.00    -0.003 C 
ATOM     26  C   UNL     1      34.671 -22.071 -18.351  0.00  0.00    +0.176 C 
ATOM     27  C   UNL     1      32.695 -21.187 -19.405  0.00  0.00    +0.040 C 
ATOM     28  C   UNL     1      33.301 -21.993 -18.464  0.00  0.00    +0.176 C 
ATOM     29  C   UNL     1      33.782 -23.371 -16.866  0.00  0.00    +0.429 C 
ENDBRANCH  20  23
ENDBRANCH   1  20
TORSDOF 5
ENDMDL
MODEL 3
REMARK VINA RESULT:     -11.5      3.379      5.693
REMARK  Name = 11740318
REMARK  5 active torsions:
REMARK  status: ('A' for Active; 'I' for Inactive)
REMARK    1  A    between atoms: N_1  and  C_20
REMARK    2  A    between atoms: C_2  and  O_8
REMARK    3  A    between atoms: O_8  and  C_9
REMARK    4  A    between atoms: C_14  and  N_15
REMARK    5  A    between atoms: C_20  and  C_23
REMARK                            x       y       z     vdW  Elec       q    Type
REMARK                         _______ _______ _______ _____ _____    ______ ____
ROOT
ATOM      1  N   UNL     1      35.675 -20.747 -19.099  0.00  0.00    +0.392 N 
ATOM      2  C   UNL     1      35.218 -18.918 -20.704  0.00  0.00    +0.145 C 
ATOM      3  C   UNL     1      36.257 -19.895 -20.144  0.00  0.00    -0.032 C 
ATOM      4  C   UNL     1      33.989 -19.659 -21.222  0.00  0.00    +0.039 C 
ATOM      5  C   UNL     1      33.442 -20.598 -20.156  0.00  0.00    -0.019 C 
ATOM      6  C   UNL     1      34.537 -21.520 -19.615  0.00  0.00    -0.077 C 
ATOM      7  H   UNL     1      35.331 -20.140 -18.355  0.00  0.00    -0.079 HD
ENDROOT
BRANCH   2   8
ATOM      8  O   UNL     1      35.786 -18.176 -21.777  0.00  0.00    -0.481 OA
BRANCH   8   9
ATOM      9  C   UNL     1      35.258 -16.935 -22.015  0.00  0.00    +0.138 C 
ATOM     10  C   UNL     1      34.956 -16.098 -20.946  0.00  0.00    +0.038 C 
ATOM     11  C   UNL     1      35.030 -16.522 -23.323  0.00  0.00    +0.038 C 
ATOM     12  C   UNL     1      34.418 -14.833 -21.188  0.00  0.00    +0.018 C 
ATOM     13  C   UNL     1      34.492 -15.258 -23.565  0.00  0.00    +0.018 C 
ATOM     14  C   UNL     1      34.187 -14.414 -22.498  0.00  0.00    +0.057 C 
BRANCH  14  15
ATOM     15  N   UNL     1      33.655 -13.160 -22.738  0.00  0.00    -0.246 N 
ATOM     16  N   UNL     1      32.356 -11.362 -22.513  0.00  0.00    -0.224 NA
ATOM     17  C   UNL     1      34.048 -12.277 -23.711  0.00  0.00    +0.092 C 
ATOM     18  C   UNL     1      32.633 -12.559 -22.045  0.00  0.00    +0.172 C 
ATOM     19  C   UNL     1      33.235 -11.181 -23.552  0.00  0.00    +0.117 C 
ENDBRANCH  14  15
ENDBRANCH   8   9
ENDBRANCH   2   8
BRANCH   1  20
ATOM     20  C   UNL     1      36.691 -21.640 -18.543  0.00  0.00    -0.050 C 
BRANCH  20  23
ATOM     21  O   UNL     1      37.674 -22.862 -13.861  0.00  0.00    -0.435 OA
ATOM     22  O   UNL     1      35.392 -23.503 -13.428  0.00  0.00    -0.435 OA
ATOM     23  C   UNL     1      36.307 -22.146 -17.178  0.00  0.00    -0.040 C 
ATOM     24  C   UNL     1      37.278 -22.233 -16.186  0.00  0.00    +0.034 C 
ATOM     25  C   UNL     1      34.978 -22.516 -16.936  0.00  0.00    -0.003 C 
ATOM     26  C   UNL     1      36.877 -22.702 -14.952  0.00  0.00    +0.176 C 
ATOM     27  C   UNL     1      34.599 -22.987 -15.678  0.00  0.00    +0.040 C 
ATOM     28  C   UNL     1      35.574 -23.069 -14.705  0.00  0.00    +0.176 C 
ATOM     29  C   UNL     1      36.727 -23.368 -12.898  0.00  0.00    +0.429 C 
ENDBRANCH  20  23
ENDBRANCH   1  20
TORSDOF 5
ENDMDL
MODEL 4
REMARK VINA RESULT:     -11.3      6.515     10.613
REMARK  Name = 11740318
REMARK  5 active torsions:
REMARK  status: ('A' for Active; 'I' for Inactive)
REMARK    1  A    between atoms: N_1  and  C_20
REMARK    2  A    between atoms: C_2  and  O_8
REMARK    3  A    between atoms: O_8  and  C_9
REMARK    4  A    between atoms: C_14  and  N_15
REMARK    5  A    between atoms: C_20  and  C_23
REMARK                            x       y       z     vdW  Elec       q    Type
REMARK                         _______ _______ _______ _____ _____    ______ ____
ROOT
ATOM      1  N   UNL     1      35.226 -16.250 -22.361  0.00  0.00    +0.392 N 
ATOM      2  C   UNL     1      34.262 -14.002 -22.742  0.00  0.00    +0.145 C 
ATOM      3  C   UNL     1      34.347 -15.453 -23.225  0.00  0.00    -0.032 C 
ATOM      4  C   UNL     1      33.809 -13.932 -21.286  0.00  0.00    +0.039 C 
ATOM      5  C   UNL     1      34.681 -14.824 -20.413  0.00  0.00    -0.019 C 
ATOM      6  C   UNL     1      34.751 -16.247 -20.970  0.00  0.00    -0.077 C 
ATOM      7  H   UNL     1      36.152 -15.823 -22.376  0.00  0.00    -0.079 HD
ENDROOT
BRANCH   2   8
ATOM      8  O   UNL     1      33.330 -13.283 -23.541  0.00  0.00    -0.481 OA
BRANCH   8   9
ATOM      9  C   UNL     1      33.114 -11.972 -23.207  0.00  0.00    +0.138 C 
ATOM     10  C   UNL     1      34.006 -10.996 -23.637  0.00  0.00    +0.038 C 
ATOM     11  C   UNL     1      32.005 -11.629 -22.441  0.00  0.00    +0.038 C 
ATOM     12  C   UNL     1      33.787  -9.660 -23.297  0.00  0.00    +0.018 C 
ATOM     13  C   UNL     1      31.786 -10.295 -22.101  0.00  0.00    +0.018 C 
ATOM     14  C   UNL     1      32.677  -9.310 -22.530  0.00  0.00    +0.057 C 
BRANCH  14  15
ATOM     15  N   UNL     1      32.459  -7.986 -22.193  0.00  0.00    -0.246 N 
ATOM     16  N   UNL     1      31.375  -6.070 -21.845  0.00  0.00    -0.224 NA
ATOM     17  C   UNL     1      33.398  -7.087 -21.758  0.00  0.00    +0.092 C 
ATOM     18  C   UNL     1      31.258  -7.322 -22.227  0.00  0.00    +0.172 C 
ATOM     19  C   UNL     1      32.707  -5.917 -21.551  0.00  0.00    +0.117 C 
ENDBRANCH  14  15
ENDBRANCH   8   9
ENDBRANCH   2   8
BRANCH   1  20
ATOM     20  C   UNL     1      35.333 -17.620 -22.863  0.00  0.00    -0.050 C 
BRANCH  20  23
ATOM     21  O   UNL     1      34.140 -21.232 -19.715  0.00  0.00    -0.435 OA
ATOM     22  O   UNL     1      36.357 -21.303 -18.776  0.00  0.00    -0.435 OA
ATOM     23  C   UNL     1      35.643 -18.598 -21.762  0.00  0.00    -0.040 C 
ATOM     24  C   UNL     1      34.643 -19.449 -21.305  0.00  0.00    +0.034 C 
ATOM     25  C   UNL     1      36.935 -18.632 -21.222  0.00  0.00    -0.003 C 
ATOM     26  C   UNL     1      34.976 -20.328 -20.295  0.00  0.00    +0.176 C 
ATOM     27  C   UNL     1      37.246 -19.532 -20.201  0.00  0.00    +0.040 C 
ATOM     28  C   UNL     1      36.242 -20.368 -19.758  0.00  0.00    +0.176 C 
ATOM     29  C   UNL     1      35.022 -21.847 -18.755  0.00  0.00    +0.429 C 
ENDBRANCH  20  23
ENDBRANCH   1  20
TORSDOF 5
ENDMDL
MODEL 5
REMARK VINA RESULT:     -11.0      3.195     10.133
REMARK  Name = 11740318
REMARK  5 active torsions:
REMARK  status: ('A' for Active; 'I' for Inactive)
REMARK    1  A    between atoms: N_1  and  C_20
REMARK    2  A    between atoms: C_2  and  O_8
REMARK    3  A    between atoms: O_8  and  C_9
REMARK    4  A    between atoms: C_14  and  N_15
REMARK    5  A    between atoms: C_20  and  C_23
REMARK                            x       y       z     vdW  Elec       q    Type
REMARK                         _______ _______ _______ _____ _____    ______ ____
ROOT
ATOM      1  N   UNL     1      35.541 -19.767 -20.949  0.00  0.00    +0.392 N 
ATOM      2  C   UNL     1      35.242 -21.689 -19.418  0.00  0.00    +0.145 C 
ATOM      3  C   UNL     1      36.127 -20.507 -19.824  0.00  0.00    -0.032 C 
ATOM      4  C   UNL     1      33.824 -21.229 -19.092  0.00  0.00    +0.039 C 
ATOM      5  C   UNL     1      33.257 -20.397 -20.234  0.00  0.00    -0.019 C 
ATOM      6  C   UNL     1      34.205 -19.257 -20.613  0.00  0.00    -0.077 C 
ATOM      7  H   UNL     1      35.443 -20.413 -21.732  0.00  0.00    -0.079 HD
ENDROOT
BRANCH   2   8
ATOM      8  O   UNL     1      35.787 -22.324 -18.267  0.00  0.00    -0.481 OA
BRANCH   8   9
ATOM      9  C   UNL     1      34.902 -22.692 -17.289  0.00  0.00    +0.138 C 
ATOM     10  C   UNL     1      33.635 -23.145 -17.640  0.00  0.00    +0.038 C 
ATOM     11  C   UNL     1      35.279 -22.610 -15.952  0.00  0.00    +0.038 C 
ATOM     12  C   UNL     1      32.733 -23.519 -16.643  0.00  0.00    +0.018 C 
ATOM     13  C   UNL     1      34.377 -22.984 -14.956  0.00  0.00    +0.018 C 
ATOM     14  C   UNL     1      33.105 -23.439 -15.302  0.00  0.00    +0.057 C 
BRANCH  14  15
ATOM     15  N   UNL     1      32.211 -23.812 -14.314  0.00  0.00    -0.246 N 
ATOM     16  N   UNL     1      31.312 -24.979 -12.641  0.00  0.00    -0.224 NA
ATOM     17  C   UNL     1      31.048 -23.168 -13.978  0.00  0.00    +0.092 C 
ATOM     18  C   UNL     1      32.322 -24.895 -13.478  0.00  0.00    +0.172 C 
ATOM     19  C   UNL     1      30.514 -23.905 -12.948  0.00  0.00    +0.117 C 
ENDBRANCH  14  15
ENDBRANCH   8   9
ENDBRANCH   2   8
BRANCH   1  20
ATOM     20  C   UNL     1      36.421 -18.671 -21.354  0.00  0.00    -0.050 C 
BRANCH  20  23
ATOM     21  O   UNL     1      34.121 -16.560 -25.180  0.00  0.00    -0.435 OA
ATOM     22  O   UNL     1      33.577 -14.585 -23.911  0.00  0.00    -0.435 OA
ATOM     23  C   UNL     1      35.656 -17.552 -22.011  0.00  0.00    -0.040 C 
ATOM     24  C   UNL     1      35.275 -17.678 -23.342  0.00  0.00    +0.034 C 
ATOM     25  C   UNL     1      35.345 -16.409 -21.265  0.00  0.00    -0.003 C 
ATOM     26  C   UNL     1      34.577 -16.627 -23.899  0.00  0.00    +0.176 C 
ATOM     27  C   UNL     1      34.637 -15.359 -21.853  0.00  0.00    +0.040 C 
ATOM     28  C   UNL     1      34.266 -15.498 -23.175  0.00  0.00    +0.176 C 
ATOM     29  C   UNL     1      33.487 -15.264 -25.180  0.00  0.00    +0.429 C 
ENDBRANCH  20  23
ENDBRANCH   1  20
TORSDOF 5
ENDMDL
MODEL 6
REMARK VINA RESULT:     -10.7      2.083      2.988
REMARK  Name = 11740318
REMARK  5 active torsions:
REMARK  status: ('A' for Active; 'I' for Inactive)
REMARK    1  A    between atoms: N_1  and  C_20
REMARK    2  A    between atoms: C_2  and  O_8
REMARK    3  A    between atoms: O_8  and  C_9
REMARK    4  A    between atoms: C_14  and  N_15
REMARK    5  A    between atoms: C_20  and  C_23
REMARK                            x       y       z     vdW  Elec       q    Type
REMARK                         _______ _______ _______ _____ _____    ______ ____
ROOT
ATOM      1  N   UNL     1      36.419 -22.277 -15.930  0.00  0.00    +0.392 N 
ATOM      2  C   UNL     1      35.545 -21.792 -18.195  0.00  0.00    +0.145 C 
ATOM      3  C   UNL     1      36.766 -22.172 -17.353  0.00  0.00    -0.032 C 
ATOM      4  C   UNL     1      34.400 -22.778 -17.982  0.00  0.00    +0.039 C 
ATOM      5  C   UNL     1      34.102 -22.937 -16.497  0.00  0.00    -0.019 C 
ATOM      6  C   UNL     1      35.369 -23.281 -15.711  0.00  0.00    -0.077 C 
ATOM      7  H   UNL     1      36.057 -21.373 -15.629  0.00  0.00    -0.079 HD
ENDROOT
BRANCH   2   8
ATOM      8  O   UNL     1      35.893 -21.794 -19.575  0.00  0.00    -0.481 OA
BRANCH   8   9
ATOM      9  C   UNL     1      35.702 -20.624 -20.260  0.00  0.00    +0.138 C 
ATOM     10  C   UNL     1      36.747 -19.714 -20.376  0.00  0.00    +0.038 C 
ATOM     11  C   UNL     1      34.464 -20.356 -20.835  0.00  0.00    +0.038 C 
ATOM     12  C   UNL     1      36.553 -18.521 -21.074  0.00  0.00    +0.018 C 
ATOM     13  C   UNL     1      34.269 -19.164 -21.532  0.00  0.00    +0.018 C 
ATOM     14  C   UNL     1      35.314 -18.247 -21.653  0.00  0.00    +0.057 C 
BRANCH  14  15
ATOM     15  N   UNL     1      35.120 -17.066 -22.345  0.00  0.00    -0.246 N 
ATOM     16  N   UNL     1      34.917 -14.880 -22.735  0.00  0.00    -0.224 NA
ATOM     17  C   UNL     1      34.888 -16.935 -23.691  0.00  0.00    +0.092 C 
ATOM     18  C   UNL     1      35.128 -15.798 -21.818  0.00  0.00    +0.172 C 
ATOM     19  C   UNL     1      34.767 -15.583 -23.904  0.00  0.00    +0.117 C 
ENDBRANCH  14  15
ENDBRANCH   8   9
ENDBRANCH   2   8
BRANCH   1  20
ATOM     20  C   UNL     1      37.605 -22.594 -15.136  0.00  0.00    -0.050 C 
BRANCH  20  23
ATOM     21  O   UNL     1      35.622 -23.541 -10.714  0.00  0.00    -0.435 OA
ATOM     22  O   UNL     1      36.327 -25.845 -10.763  0.00  0.00    -0.435 OA
ATOM     23  C   UNL     1      37.279 -23.497 -13.976  0.00  0.00    -0.040 C 
ATOM     24  C   UNL     1      36.571 -22.986 -12.894  0.00  0.00    +0.034 C 
ATOM     25  C   UNL     1      37.693 -24.834 -14.014  0.00  0.00    -0.003 C 
ATOM     26  C   UNL     1      36.296 -23.851 -11.856  0.00  0.00    +0.176 C 
ATOM     27  C   UNL     1      37.400 -25.690 -12.950  0.00  0.00    +0.040 C 
ATOM     28  C   UNL     1      36.699 -25.167 -11.883  0.00  0.00    +0.176 C 
ATOM     29  C   UNL     1      35.644 -24.809 -10.028  0.00  0.00    +0.429 C 
ENDBRANCH  20  23
ENDBRANCH   1  20
TORSDOF 5
ENDMDL
MODEL 7
REMARK VINA RESULT:     -10.7      3.636     10.658
REMARK  Name = 11740318
REMARK  5 active torsions:
REMARK  status: ('A' for Active; 'I' for Inactive)
REMARK    1  A    between atoms: N_1  and  C_20
REMARK    2  A    between atoms: C_2  and  O_8
REMARK    3  A    between atoms: O_8  and  C_9
REMARK    4  A    between atoms: C_14  and  N_15
REMARK    5  A    between atoms: C_20  and  C_23
REMARK                            x       y       z     vdW  Elec       q    Type
REMARK                         _______ _______ _______ _____ _____    ______ ____
ROOT
ATOM      1  N   UNL     1      35.484 -18.605 -22.113  0.00  0.00    +0.392 N 
ATOM      2  C   UNL     1      35.034 -20.227 -20.297  0.00  0.00    +0.145 C 
ATOM      3  C   UNL     1      34.818 -19.868 -21.770  0.00  0.00    -0.032 C 
ATOM      4  C   UNL     1      36.521 -20.281 -19.956  0.00  0.00    +0.039 C 
ATOM      5  C   UNL     1      37.215 -18.997 -20.388  0.00  0.00    -0.019 C 
ATOM      6  C   UNL     1      36.929 -18.679 -21.857  0.00  0.00    -0.077 C 
ATOM      7  H   UNL     1      35.097 -17.874 -21.517  0.00  0.00    -0.079 HD
ENDROOT
BRANCH   2   8
ATOM      8  O   UNL     1      34.460 -21.499 -20.023  0.00  0.00    -0.481 OA
BRANCH   8   9
ATOM      9  C   UNL     1      34.550 -21.951 -18.733  0.00  0.00    +0.138 C 
ATOM     10  C   UNL     1      35.762 -21.868 -18.057  0.00  0.00    +0.038 C 
ATOM     11  C   UNL     1      33.428 -22.488 -18.110  0.00  0.00    +0.038 C 
ATOM     12  C   UNL     1      35.854 -22.328 -16.742  0.00  0.00    +0.018 C 
ATOM     13  C   UNL     1      33.519 -22.947 -16.797  0.00  0.00    +0.018 C 
ATOM     14  C   UNL     1      34.733 -22.867 -16.113  0.00  0.00    +0.057 C 
BRANCH  14  15
ATOM     15  N   UNL     1      34.823 -23.322 -14.810  0.00  0.00    -0.246 N 
ATOM     16  N   UNL     1      35.703 -23.793 -12.817  0.00  0.00    -0.224 NA
ATOM     17  C   UNL     1      33.818 -23.891 -14.071  0.00  0.00    +0.092 C 
ATOM     18  C   UNL     1      35.936 -23.286 -14.007  0.00  0.00    +0.172 C 
ATOM     19  C   UNL     1      34.384 -24.172 -12.850  0.00  0.00    +0.117 C 
ENDBRANCH  14  15
ENDBRANCH   8   9
ENDBRANCH   2   8
BRANCH   1  20
ATOM     20  C   UNL     1      35.229 -18.254 -23.510  0.00  0.00    -0.050 C 
BRANCH  20  23
ATOM     21  O   UNL     1      34.617 -13.607 -21.958  0.00  0.00    -0.435 OA
ATOM     22  O   UNL     1      33.327 -13.005 -23.902  0.00  0.00    -0.435 OA
ATOM     23  C   UNL     1      34.701 -16.851 -23.648  0.00  0.00    -0.040 C 
ATOM     24  C   UNL     1      34.970 -15.922 -22.649  0.00  0.00    +0.034 C 
ATOM     25  C   UNL     1      33.953 -16.511 -24.781  0.00  0.00    -0.003 C 
ATOM     26  C   UNL     1      34.466 -14.649 -22.821  0.00  0.00    +0.176 C 
ATOM     27  C   UNL     1      33.455 -15.215 -24.931  0.00  0.00    +0.040 C 
ATOM     28  C   UNL     1      33.728 -14.305 -23.930  0.00  0.00    +0.176 C 
ATOM     29  C   UNL     1      33.895 -12.569 -22.651  0.00  0.00    +0.429 C 
ENDBRANCH  20  23
ENDBRANCH   1  20
TORSDOF 5
ENDMDL
MODEL 8
REMARK VINA RESULT:     -10.6      4.745     11.063
REMARK  Name = 11740318
REMARK  5 active torsions:
REMARK  status: ('A' for Active; 'I' for Inactive)
REMARK    1  A    between atoms: N_1  and  C_20
REMARK    2  A    between atoms: C_2  and  O_8
REMARK    3  A    between atoms: O_8  and  C_9
REMARK    4  A    between atoms: C_14  and  N_15
REMARK    5  A    between atoms: C_20  and  C_23
REMARK                            x       y       z     vdW  Elec       q    Type
REMARK                         _______ _______ _______ _____ _____    ______ ____
ROOT
ATOM      1  N   UNL     1      35.144 -16.468 -21.345  0.00  0.00    +0.392 N 
ATOM      2  C   UNL     1      35.068 -18.870 -21.939  0.00  0.00    +0.145 C 
ATOM      3  C   UNL     1      34.644 -17.788 -20.942  0.00  0.00    -0.032 C 
ATOM      4  C   UNL     1      34.617 -18.523 -23.354  0.00  0.00    +0.039 C 
ATOM      5  C   UNL     1      35.077 -17.121 -23.732  0.00  0.00    -0.019 C 
ATOM      6  C   UNL     1      34.651 -16.096 -22.678  0.00  0.00    -0.077 C 
ATOM      7  H   UNL     1      36.162 -16.519 -21.391  0.00  0.00    -0.079 HD
ENDROOT
BRANCH   2   8
ATOM      8  O   UNL     1      34.487 -20.117 -21.572  0.00  0.00    -0.481 OA
BRANCH   8   9
ATOM      9  C   UNL     1      34.885 -20.653 -20.376  0.00  0.00    +0.138 C 
ATOM     10  C   UNL     1      36.209 -20.525 -19.969  0.00  0.00    +0.038 C 
ATOM     11  C   UNL     1      33.962 -21.322 -19.579  0.00  0.00    +0.038 C 
ATOM     12  C   UNL     1      36.614 -21.072 -18.751  0.00  0.00    +0.018 C 
ATOM     13  C   UNL     1      34.366 -21.869 -18.362  0.00  0.00    +0.018 C 
ATOM     14  C   UNL     1      35.693 -21.743 -17.948  0.00  0.00    +0.057 C 
BRANCH  14  15
ATOM     15  N   UNL     1      36.094 -22.285 -16.740  0.00  0.00    -0.246 N 
ATOM     16  N   UNL     1      37.407 -22.802 -15.014  0.00  0.00    -0.224 NA
ATOM     17  C   UNL     1      35.324 -23.026 -15.880  0.00  0.00    +0.092 C 
ATOM     18  C   UNL     1      37.338 -22.180 -16.170  0.00  0.00    +0.172 C 
ATOM     19  C   UNL     1      36.154 -23.331 -14.828  0.00  0.00    +0.117 C 
ENDBRANCH  14  15
ENDBRANCH   8   9
ENDBRANCH   2   8
BRANCH   1  20
ATOM     20  C   UNL     1      34.770 -15.455 -20.359  0.00  0.00    -0.050 C 
BRANCH  20  23
ATOM     21  O   UNL     1      34.125 -11.789 -23.604  0.00  0.00    -0.435 OA
ATOM     22  O   UNL     1      31.932 -11.266 -22.752  0.00  0.00    -0.435 OA
ATOM     23  C   UNL     1      33.978 -14.334 -20.979  0.00  0.00    -0.040 C 
ATOM     24  C   UNL     1      34.527 -13.618 -22.037  0.00  0.00    +0.034 C 
ATOM     25  C   UNL     1      32.705 -14.038 -20.477  0.00  0.00    -0.003 C 
ATOM     26  C   UNL     1      33.764 -12.601 -22.572  0.00  0.00    +0.176 C 
ATOM     27  C   UNL     1      31.953 -13.004 -21.038  0.00  0.00    +0.040 C 
ATOM     28  C   UNL     1      32.512 -12.302 -22.086  0.00  0.00    +0.176 C 
ATOM     29  C   UNL     1      32.959 -10.947 -23.713  0.00  0.00    +0.429 C 
ENDBRANCH  20  23
ENDBRANCH   1  20
TORSDOF 5
ENDMDL
MODEL 9
REMARK VINA RESULT:     -10.6      2.456      5.617
REMARK  Name = 11740318
REMARK  5 active torsions:
REMARK  status: ('A' for Active; 'I' for Inactive)
REMARK    1  A    between atoms: N_1  and  C_20
REMARK    2  A    between atoms: C_2  and  O_8
REMARK    3  A    between atoms: O_8  and  C_9
REMARK    4  A    between atoms: C_14  and  N_15
REMARK    5  A    between atoms: C_20  and  C_23
REMARK                            x       y       z     vdW  Elec       q    Type
REMARK                         _______ _______ _______ _____ _____    ______ ____
ROOT
ATOM      1  N   UNL     1      33.825 -23.924 -14.435  0.00  0.00    +0.392 N 
ATOM      2  C   UNL     1      35.845 -23.335 -15.740  0.00  0.00    +0.145 C 
ATOM      3  C   UNL     1      34.668 -22.819 -14.907  0.00  0.00    -0.032 C 
ATOM      4  C   UNL     1      36.667 -24.356 -14.958  0.00  0.00    +0.039 C 
ATOM      5  C   UNL     1      35.769 -25.456 -14.408  0.00  0.00    -0.019 C 
ATOM      6  C   UNL     1      34.597 -24.871 -13.618  0.00  0.00    -0.077 C 
ATOM      7  H   UNL     1      33.479 -24.426 -15.253  0.00  0.00    -0.079 HD
ENDROOT
BRANCH   2   8
ATOM      8  O   UNL     1      36.694 -22.250 -16.099  0.00  0.00    -0.481 OA
BRANCH   8   9
ATOM      9  C   UNL     1      36.429 -21.630 -17.290  0.00  0.00    +0.138 C 
ATOM     10  C   UNL     1      35.331 -22.027 -18.045  0.00  0.00    +0.038 C 
ATOM     11  C   UNL     1      37.261 -20.607 -17.734  0.00  0.00    +0.038 C 
ATOM     12  C   UNL     1      35.062 -21.394 -19.260  0.00  0.00    +0.018 C 
ATOM     13  C   UNL     1      36.991 -19.974 -18.947  0.00  0.00    +0.018 C 
ATOM     14  C   UNL     1      35.891 -20.368 -19.710  0.00  0.00    +0.057 C 
BRANCH  14  15
ATOM     15  N   UNL     1      35.624 -19.740 -20.913  0.00  0.00    -0.246 N 
ATOM     16  N   UNL     1      35.843 -18.340 -22.634  0.00  0.00    -0.224 NA
ATOM     17  C   UNL     1      34.586 -20.014 -21.766  0.00  0.00    +0.092 C 
ATOM     18  C   UNL     1      36.350 -18.724 -21.484  0.00  0.00    +0.172 C 
ATOM     19  C   UNL     1      34.743 -19.140 -22.815  0.00  0.00    +0.117 C 
ENDBRANCH  14  15
ENDBRANCH   8   9
ENDBRANCH   2   8
BRANCH   1  20
ATOM     20  C   UNL     1      32.681 -23.411 -13.682  0.00  0.00    -0.050 C 
BRANCH  20  23
ATOM     21  O   UNL     1      28.860 -22.161 -16.549  0.00  0.00    -0.435 OA
ATOM     22  O   UNL     1      27.837 -24.332 -16.328  0.00  0.00    -0.435 OA
ATOM     23  C   UNL     1      31.378 -23.693 -14.380  0.00  0.00    -0.040 C 
ATOM     24  C   UNL     1      30.785 -22.694 -15.145  0.00  0.00    +0.034 C 
ATOM     25  C   UNL     1      30.791 -24.957 -14.246  0.00  0.00    -0.003 C 
ATOM     26  C   UNL     1      29.592 -23.000 -15.765  0.00  0.00    +0.176 C 
ATOM     27  C   UNL     1      29.583 -25.241 -14.885  0.00  0.00    +0.040 C 
ATOM     28  C   UNL     1      29.007 -24.240 -15.639  0.00  0.00    +0.176 C 
ATOM     29  C   UNL     1      27.751 -23.012 -16.903  0.00  0.00    +0.429 C 
ENDBRANCH  20  23
ENDBRANCH   1  20
TORSDOF 5
ENDMDL
