MODEL 1
REMARK VINA RESULT:     -12.1      0.000      0.000
REMARK  Name = 24864821
REMARK  5 active torsions:
REMARK  status: ('A' for Active; 'I' for Inactive)
REMARK    1  A    between atoms: C_5  and  C_16
REMARK    2  A    between atoms: C_7  and  C_10
REMARK    3  A    between atoms: C_16  and  O_17
REMARK    4  A    between atoms: O_17  and  C_20
REMARK    5  A    between atoms: C_25  and  O_28
REMARK                            x       y       z     vdW  Elec       q    Type
REMARK                         _______ _______ _______ _____ _____    ______ ____
ROOT
ATOM      1  N   UNL     1      36.238 -23.067 -15.138  0.00  0.00    -0.191 N 
ATOM      2  N   UNL     1      34.911 -22.830 -15.290  0.00  0.00    -0.163 NA
ATOM      3  N   UNL     1      38.412 -22.920 -15.366  0.00  0.00    -0.128 NA
ATOM      4  N   UNL     1      38.142 -23.917 -14.452  0.00  0.00    -0.127 NA
ATOM      5  C   UNL     1      37.264 -22.424 -15.766  0.00  0.00    +0.208 A 
ATOM      6  C   UNL     1      36.835 -23.998 -14.321  0.00  0.00    +0.186 A 
ATOM      7  C   UNL     1      34.153 -23.594 -14.553  0.00  0.00    +0.101 C 
ATOM      8  C   UNL     1      35.990 -24.821 -13.551  0.00  0.00    +0.042 C 
ATOM      9  C   UNL     1      34.663 -24.660 -13.633  0.00  0.00    +0.024 C 
ENDROOT
BRANCH   7  10
ATOM     10  C   UNL     1      32.678 -23.428 -14.627  0.00  0.00    +0.019 C 
ATOM     11  C   UNL     1      32.072 -23.098 -15.839  0.00  0.00    +0.002 C 
ATOM     12  C   UNL     1      31.899 -23.604 -13.483  0.00  0.00    +0.002 C 
ATOM     13  C   UNL     1      30.688 -22.945 -15.907  0.00  0.00    +0.000 C 
ATOM     14  C   UNL     1      30.515 -23.451 -13.552  0.00  0.00    +0.000 C 
ATOM     15  C   UNL     1      29.908 -23.120 -14.764  0.00  0.00    +0.000 C 
ENDBRANCH   7  10
BRANCH   5  16
ATOM     16  C   UNL     1      37.053 -21.317 -16.758  0.00  0.00    +0.272 C 
BRANCH  16  17
ATOM     17  O   UNL     1      36.883 -21.882 -18.056  0.00  0.00    -0.467 OA
BRANCH  17  20
ATOM     18  N   UNL     1      33.395 -20.907 -20.074  0.00  0.00    -0.248 NA
ATOM     19  C   UNL     1      35.748 -20.541 -19.711  0.00  0.00    +0.030 C 
ATOM     20  C   UNL     1      35.748 -21.544 -18.732  0.00  0.00    +0.138 C 
ATOM     21  C   UNL     1      34.533 -20.250 -20.365  0.00  0.00    +0.066 C 
ATOM     22  C   UNL     1      36.918 -19.834 -20.040  0.00  0.00    +0.059 C 
ATOM     23  C   UNL     1      34.534 -19.252 -21.336  0.00  0.00    +0.109 C 
ATOM     24  C   UNL     1      34.576 -22.223 -18.430  0.00  0.00    +0.057 C 
ATOM     25  C   UNL     1      35.697 -18.551 -21.664  0.00  0.00    +0.118 C 
ATOM     26  C   UNL     1      36.890 -18.842 -21.015  0.00  0.00    +0.011 C 
ATOM     27  C   UNL     1      33.436 -21.869 -19.124  0.00  0.00    +0.102 C 
BRANCH  25  28
ATOM     28  O   UNL     1      35.660 -17.583 -22.620  0.00  0.00    -0.476 OA
ATOM     29  C   UNL     1      35.226 -16.285 -22.214  0.00  0.00    +0.252 C 
ENDBRANCH  25  28
ENDBRANCH  17  20
ENDBRANCH  16  17
ENDBRANCH   5  16
TORSDOF 5
ENDMDL
MODEL 2
REMARK VINA RESULT:     -11.4      4.160     10.117
REMARK  Name = 24864821
REMARK  5 active torsions:
REMARK  status: ('A' for Active; 'I' for Inactive)
REMARK    1  A    between atoms: C_5  and  C_16
REMARK    2  A    between atoms: C_7  and  C_10
REMARK    3  A    between atoms: C_16  and  O_17
REMARK    4  A    between atoms: O_17  and  C_20
REMARK    5  A    between atoms: C_25  and  O_28
REMARK                            x       y       z     vdW  Elec       q    Type
REMARK                         _______ _______ _______ _____ _____    ______ ____
ROOT
ATOM      1  N   UNL     1      34.052 -15.220 -23.317  0.00  0.00    -0.191 N 
ATOM      2  N   UNL     1      33.708 -14.453 -22.253  0.00  0.00    -0.163 NA
ATOM      3  N   UNL     1      34.923 -16.832 -24.520  0.00  0.00    -0.128 NA
ATOM      4  N   UNL     1      34.239 -15.984 -25.367  0.00  0.00    -0.127 NA
ATOM      5  C   UNL     1      34.801 -16.360 -23.300  0.00  0.00    +0.208 A 
ATOM      6  C   UNL     1      33.720 -15.020 -24.637  0.00  0.00    +0.186 A 
ATOM      7  C   UNL     1      32.975 -13.420 -22.564  0.00  0.00    +0.101 C 
ATOM      8  C   UNL     1      32.943 -13.887 -24.945  0.00  0.00    +0.042 C 
ATOM      9  C   UNL     1      32.553 -13.069 -23.958  0.00  0.00    +0.024 C 
ENDROOT
BRANCH   7  10
ATOM     10  C   UNL     1      32.529 -12.503 -21.483  0.00  0.00    +0.019 C 
ATOM     11  C   UNL     1      32.587 -12.914 -20.151  0.00  0.00    +0.002 C 
ATOM     12  C   UNL     1      32.054 -11.231 -21.800  0.00  0.00    +0.002 C 
ATOM     13  C   UNL     1      32.170 -12.052 -19.137  0.00  0.00    +0.000 C 
ATOM     14  C   UNL     1      31.638 -10.369 -20.786  0.00  0.00    +0.000 C 
ATOM     15  C   UNL     1      31.694 -10.779 -19.454  0.00  0.00    +0.000 C 
ENDBRANCH   7  10
BRANCH   5  16
ATOM     16  C   UNL     1      35.374 -16.946 -22.042  0.00  0.00    +0.272 C 
BRANCH  16  17
ATOM     17  O   UNL     1      34.737 -18.195 -21.779  0.00  0.00    -0.467 OA
BRANCH  17  20
ATOM     18  N   UNL     1      36.820 -20.818 -19.336  0.00  0.00    -0.248 NA
ATOM     19  C   UNL     1      34.722 -20.053 -20.239  0.00  0.00    +0.030 C 
ATOM     20  C   UNL     1      35.401 -19.068 -20.969  0.00  0.00    +0.138 C 
ATOM     21  C   UNL     1      35.481 -20.918 -19.424  0.00  0.00    +0.066 C 
ATOM     22  C   UNL     1      33.324 -20.186 -20.306  0.00  0.00    +0.059 C 
ATOM     23  C   UNL     1      34.805 -21.896 -18.698  0.00  0.00    +0.109 C 
ATOM     24  C   UNL     1      36.782 -18.963 -20.881  0.00  0.00    +0.057 C 
ATOM     25  C   UNL     1      33.416 -22.028 -18.765  0.00  0.00    +0.118 C 
ATOM     26  C   UNL     1      32.675 -21.172 -19.570  0.00  0.00    +0.011 C 
ATOM     27  C   UNL     1      37.439 -19.855 -20.057  0.00  0.00    +0.102 C 
BRANCH  25  28
ATOM     28  O   UNL     1      32.791 -22.997 -18.043  0.00  0.00    -0.476 OA
ATOM     29  C   UNL     1      33.200 -23.161 -16.685  0.00  0.00    +0.252 C 
ENDBRANCH  25  28
ENDBRANCH  17  20
ENDBRANCH  16  17
ENDBRANCH   5  16
TORSDOF 5
ENDMDL
MODEL 3
REMARK VINA RESULT:     -11.4      7.328     13.481
REMARK  Name = 24864821
REMARK  5 active torsions:
REMARK  status: ('A' for Active; 'I' for Inactive)
REMARK    1  A    between atoms: C_5  and  C_16
REMARK    2  A    between atoms: C_7  and  C_10
REMARK    3  A    between atoms: C_16  and  O_17
REMARK    4  A    between atoms: O_17  and  C_20
REMARK    5  A    between atoms: C_25  and  O_28
REMARK                            x       y       z     vdW  Elec       q    Type
REMARK                         _______ _______ _______ _____ _____    ______ ____
ROOT
ATOM      1  N   UNL     1      32.231 -10.166 -21.116  0.00  0.00    -0.191 N 
ATOM      2  N   UNL     1      32.723  -9.437 -22.149  0.00  0.00    -0.163 NA
ATOM      3  N   UNL     1      31.455 -11.848 -19.945  0.00  0.00    -0.128 NA
ATOM      4  N   UNL     1      31.510 -10.741 -19.124  0.00  0.00    -0.127 NA
ATOM      5  C   UNL     1      31.889 -11.486 -21.131  0.00  0.00    +0.208 A 
ATOM      6  C   UNL     1      31.977  -9.737 -19.834  0.00  0.00    +0.186 A 
ATOM      7  C   UNL     1      32.971  -8.194 -21.845  0.00  0.00    +0.101 C 
ATOM      8  C   UNL     1      32.238  -8.384 -19.540  0.00  0.00    +0.042 C 
ATOM      9  C   UNL     1      32.726  -7.586 -20.498  0.00  0.00    +0.024 C 
ENDROOT
BRANCH   7  10
ATOM     10  C   UNL     1      33.517  -7.292 -22.893  0.00  0.00    +0.019 C 
ATOM     11  C   UNL     1      34.896  -7.196 -23.081  0.00  0.00    +0.002 C 
ATOM     12  C   UNL     1      32.651  -6.544 -23.689  0.00  0.00    +0.002 C 
ATOM     13  C   UNL     1      35.407  -6.352 -24.066  0.00  0.00    +0.000 C 
ATOM     14  C   UNL     1      33.162  -5.699 -24.674  0.00  0.00    +0.000 C 
ATOM     15  C   UNL     1      34.541  -5.602 -24.863  0.00  0.00    +0.000 C 
ENDBRANCH   7  10
BRANCH   5  16
ATOM     16  C   UNL     1      32.013 -12.351 -22.352  0.00  0.00    +0.272 C 
BRANCH  16  17
ATOM     17  O   UNL     1      33.364 -12.793 -22.472  0.00  0.00    -0.467 OA
BRANCH  17  20
ATOM     18  N   UNL     1      34.038 -15.969 -25.052  0.00  0.00    -0.248 NA
ATOM     19  C   UNL     1      34.215 -15.021 -22.844  0.00  0.00    +0.030 C 
ATOM     20  C   UNL     1      33.596 -13.850 -23.303  0.00  0.00    +0.138 C 
ATOM     21  C   UNL     1      34.419 -16.069 -23.765  0.00  0.00    +0.066 C 
ATOM     22  C   UNL     1      34.625 -15.162 -21.507  0.00  0.00    +0.059 C 
ATOM     23  C   UNL     1      35.034 -17.232 -23.309  0.00  0.00    +0.109 C 
ATOM     24  C   UNL     1      33.202 -13.743 -24.629  0.00  0.00    +0.057 C 
ATOM     25  C   UNL     1      35.442 -17.372 -21.980  0.00  0.00    +0.118 C 
ATOM     26  C   UNL     1      35.237 -16.335 -21.078  0.00  0.00    +0.011 C 
ATOM     27  C   UNL     1      33.444 -14.822 -25.456  0.00  0.00    +0.102 C 
BRANCH  25  28
ATOM     28  O   UNL     1      36.038 -18.524 -21.570  0.00  0.00    -0.476 OA
ATOM     29  C   UNL     1      35.198 -19.515 -20.978  0.00  0.00    +0.252 C 
ENDBRANCH  25  28
ENDBRANCH  17  20
ENDBRANCH  16  17
ENDBRANCH   5  16
TORSDOF 5
ENDMDL
MODEL 4
REMARK VINA RESULT:     -11.3      5.452      9.872
REMARK  Name = 24864821
REMARK  5 active torsions:
REMARK  status: ('A' for Active; 'I' for Inactive)
REMARK    1  A    between atoms: C_5  and  C_16
REMARK    2  A    between atoms: C_7  and  C_10
REMARK    3  A    between atoms: C_16  and  O_17
REMARK    4  A    between atoms: O_17  and  C_20
REMARK    5  A    between atoms: C_25  and  O_28
REMARK                            x       y       z     vdW  Elec       q    Type
REMARK                         _______ _______ _______ _____ _____    ______ ____
ROOT
ATOM      1  N   UNL     1      34.701 -17.026 -23.155  0.00  0.00    -0.191 N 
ATOM      2  N   UNL     1      35.060 -17.643 -22.002  0.00  0.00    -0.163 NA
ATOM      3  N   UNL     1      34.244 -15.457 -24.616  0.00  0.00    -0.128 NA
ATOM      4  N   UNL     1      34.070 -16.681 -25.229  0.00  0.00    -0.127 NA
ATOM      5  C   UNL     1      34.620 -15.682 -23.377  0.00  0.00    +0.208 A 
ATOM      6  C   UNL     1      34.347 -17.616 -24.346  0.00  0.00    +0.186 A 
ATOM      7  C   UNL     1      35.059 -18.944 -22.079  0.00  0.00    +0.101 C 
ATOM      8  C   UNL     1      34.338 -19.024 -24.394  0.00  0.00    +0.042 C 
ATOM      9  C   UNL     1      34.679 -19.721 -23.303  0.00  0.00    +0.024 C 
ENDROOT
BRANCH   7  10
ATOM     10  C   UNL     1      35.439 -19.736 -20.880  0.00  0.00    +0.019 C 
ATOM     11  C   UNL     1      34.503 -20.571 -20.269  0.00  0.00    +0.002 C 
ATOM     12  C   UNL     1      36.733 -19.645 -20.366  0.00  0.00    +0.002 C 
ATOM     13  C   UNL     1      34.861 -21.314 -19.146  0.00  0.00    +0.000 C 
ATOM     14  C   UNL     1      37.091 -20.389 -19.242  0.00  0.00    +0.000 C 
ATOM     15  C   UNL     1      36.155 -21.224 -18.631  0.00  0.00    +0.000 C 
ENDBRANCH   7  10
BRANCH   5  16
ATOM     16  C   UNL     1      34.928 -14.657 -22.326  0.00  0.00    +0.272 C 
BRANCH  16  17
ATOM     17  O   UNL     1      34.436 -13.389 -22.755  0.00  0.00    -0.467 OA
BRANCH  17  20
ATOM     18  N   UNL     1      31.232 -11.868 -20.606  0.00  0.00    -0.248 NA
ATOM     19  C   UNL     1      32.773 -11.667 -22.447  0.00  0.00    +0.030 C 
ATOM     20  C   UNL     1      33.381 -12.870 -22.063  0.00  0.00    +0.138 C 
ATOM     21  C   UNL     1      31.688 -11.196 -21.680  0.00  0.00    +0.066 C 
ATOM     22  C   UNL     1      33.222 -10.939 -23.563  0.00  0.00    +0.059 C 
ATOM     23  C   UNL     1      31.084 -10.001 -22.062  0.00  0.00    +0.109 C 
ATOM     24  C   UNL     1      32.915 -13.565 -20.957  0.00  0.00    +0.057 C 
ATOM     25  C   UNL     1      31.530  -9.277 -23.171  0.00  0.00    +0.118 C 
ATOM     26  C   UNL     1      32.601  -9.747 -23.922  0.00  0.00    +0.011 C 
ATOM     27  C   UNL     1      31.846 -13.025 -20.268  0.00  0.00    +0.102 C 
BRANCH  25  28
ATOM     28  O   UNL     1      30.914  -8.114 -23.515  0.00  0.00    -0.476 OA
ATOM     29  C   UNL     1      31.011  -7.030 -22.591  0.00  0.00    +0.252 C 
ENDBRANCH  25  28
ENDBRANCH  17  20
ENDBRANCH  16  17
ENDBRANCH   5  16
TORSDOF 5
ENDMDL
MODEL 5
REMARK VINA RESULT:     -11.2      1.850      4.355
REMARK  Name = 24864821
REMARK  5 active torsions:
REMARK  status: ('A' for Active; 'I' for Inactive)
REMARK    1  A    between atoms: C_5  and  C_16
REMARK    2  A    between atoms: C_7  and  C_10
REMARK    3  A    between atoms: C_16  and  O_17
REMARK    4  A    between atoms: O_17  and  C_20
REMARK    5  A    between atoms: C_25  and  O_28
REMARK                            x       y       z     vdW  Elec       q    Type
REMARK                         _______ _______ _______ _____ _____    ______ ____
ROOT
ATOM      1  N   UNL     1      33.682 -23.412 -16.324  0.00  0.00    -0.191 N 
ATOM      2  N   UNL     1      34.875 -23.930 -15.937  0.00  0.00    -0.163 NA
ATOM      3  N   UNL     1      32.105 -22.530 -17.565  0.00  0.00    -0.128 NA
ATOM      4  N   UNL     1      31.602 -22.710 -16.293  0.00  0.00    -0.127 NA
ATOM      5  C   UNL     1      33.349 -22.954 -17.565  0.00  0.00    +0.208 A 
ATOM      6  C   UNL     1      32.554 -23.239 -15.556  0.00  0.00    +0.186 A 
ATOM      7  C   UNL     1      34.908 -24.297 -14.687  0.00  0.00    +0.101 C 
ATOM      8  C   UNL     1      32.626 -23.628 -14.204  0.00  0.00    +0.042 C 
ATOM      9  C   UNL     1      33.764 -24.152 -13.730  0.00  0.00    +0.024 C 
ENDROOT
BRANCH   7  10
ATOM     10  C   UNL     1      36.160 -24.885 -14.143  0.00  0.00    +0.019 C 
ATOM     11  C   UNL     1      36.886 -24.201 -13.168  0.00  0.00    +0.002 C 
ATOM     12  C   UNL     1      36.609 -26.121 -14.608  0.00  0.00    +0.002 C 
ATOM     13  C   UNL     1      38.060 -24.754 -12.657  0.00  0.00    +0.000 C 
ATOM     14  C   UNL     1      37.782 -26.674 -14.097  0.00  0.00    +0.000 C 
ATOM     15  C   UNL     1      38.509 -25.991 -13.122  0.00  0.00    +0.000 C 
ENDBRANCH   7  10
BRANCH   5  16
ATOM     16  C   UNL     1      34.302 -22.960 -18.725  0.00  0.00    +0.272 C 
BRANCH  16  17
ATOM     17  O   UNL     1      34.079 -21.794 -19.515  0.00  0.00    -0.467 OA
BRANCH  17  20
ATOM     18  N   UNL     1      37.307 -19.220 -19.899  0.00  0.00    -0.248 NA
ATOM     19  C   UNL     1      35.165 -19.986 -20.690  0.00  0.00    +0.030 C 
ATOM     20  C   UNL     1      35.131 -20.937 -19.660  0.00  0.00    +0.138 C 
ATOM     21  C   UNL     1      36.287 -19.137 -20.773  0.00  0.00    +0.066 C 
ATOM     22  C   UNL     1      34.117 -19.871 -21.620  0.00  0.00    +0.059 C 
ATOM     23  C   UNL     1      36.320 -18.193 -21.796  0.00  0.00    +0.109 C 
ATOM     24  C   UNL     1      36.181 -21.026 -18.758  0.00  0.00    +0.057 C 
ATOM     25  C   UNL     1      35.279 -18.078 -22.720  0.00  0.00    +0.118 C 
ATOM     26  C   UNL     1      34.176 -18.919 -22.632  0.00  0.00    +0.011 C 
ATOM     27  C   UNL     1      37.237 -20.151 -18.920  0.00  0.00    +0.102 C 
BRANCH  25  28
ATOM     28  O   UNL     1      35.346 -17.142 -23.706  0.00  0.00    -0.476 OA
ATOM     29  C   UNL     1      34.954 -15.812 -23.366  0.00  0.00    +0.252 C 
ENDBRANCH  25  28
ENDBRANCH  17  20
ENDBRANCH  16  17
ENDBRANCH   5  16
TORSDOF 5
ENDMDL
MODEL 6
REMARK VINA RESULT:     -11.1      3.711      9.722
REMARK  Name = 24864821
REMARK  5 active torsions:
REMARK  status: ('A' for Active; 'I' for Inactive)
REMARK    1  A    between atoms: C_5  and  C_16
REMARK    2  A    between atoms: C_7  and  C_10
REMARK    3  A    between atoms: C_16  and  O_17
REMARK    4  A    between atoms: O_17  and  C_20
REMARK    5  A    between atoms: C_25  and  O_28
REMARK                            x       y       z     vdW  Elec       q    Type
REMARK                         _______ _______ _______ _____ _____    ______ ____
ROOT
ATOM      1  N   UNL     1      34.340 -15.877 -23.004  0.00  0.00    -0.191 N 
ATOM      2  N   UNL     1      33.900 -14.972 -22.094  0.00  0.00    -0.163 NA
ATOM      3  N   UNL     1      35.276 -17.655 -23.878  0.00  0.00    -0.128 NA
ATOM      4  N   UNL     1      34.753 -16.895 -24.904  0.00  0.00    -0.127 NA
ATOM      5  C   UNL     1      35.021 -17.032 -22.750  0.00  0.00    +0.208 A 
ATOM      6  C   UNL     1      34.193 -15.832 -24.370  0.00  0.00    +0.186 A 
ATOM      7  C   UNL     1      33.266 -13.962 -22.621  0.00  0.00    +0.101 C 
ATOM      8  C   UNL     1      33.520 -14.719 -24.913  0.00  0.00    +0.042 C 
ATOM      9  C   UNL     1      33.048 -13.772 -24.091  0.00  0.00    +0.024 C 
ENDROOT
BRANCH   7  10
ATOM     10  C   UNL     1      32.731 -12.903 -21.727  0.00  0.00    +0.019 C 
ATOM     11  C   UNL     1      32.692 -13.109 -20.348  0.00  0.00    +0.002 C 
ATOM     12  C   UNL     1      32.269 -11.702 -22.266  0.00  0.00    +0.002 C 
ATOM     13  C   UNL     1      32.191 -12.114 -19.509  0.00  0.00    +0.000 C 
ATOM     14  C   UNL     1      31.769 -10.708 -21.427  0.00  0.00    +0.000 C 
ATOM     15  C   UNL     1      31.728 -10.912 -20.048  0.00  0.00    +0.000 C 
ENDBRANCH   7  10
BRANCH   5  16
ATOM     16  C   UNL     1      35.396 -17.476 -21.367  0.00  0.00    +0.272 C 
BRANCH  16  17
ATOM     17  O   UNL     1      35.665 -18.877 -21.385  0.00  0.00    -0.467 OA
BRANCH  17  20
ATOM     18  N   UNL     1      32.864 -21.317 -19.543  0.00  0.00    -0.248 NA
ATOM     19  C   UNL     1      35.133 -20.523 -19.703  0.00  0.00    +0.030 C 
ATOM     20  C   UNL     1      34.761 -19.688 -20.765  0.00  0.00    +0.138 C 
ATOM     21  C   UNL     1      34.139 -21.332 -19.113  0.00  0.00    +0.066 C 
ATOM     22  C   UNL     1      36.455 -20.565 -19.228  0.00  0.00    +0.059 C 
ATOM     23  C   UNL     1      34.510 -22.162 -18.059  0.00  0.00    +0.109 C 
ATOM     24  C   UNL     1      33.447 -19.669 -21.210  0.00  0.00    +0.057 C 
ATOM     25  C   UNL     1      35.824 -22.204 -17.587  0.00  0.00    +0.118 C 
ATOM     26  C   UNL     1      36.799 -21.404 -18.173  0.00  0.00    +0.011 C 
ATOM     27  C   UNL     1      32.544 -20.496 -20.570  0.00  0.00    +0.102 C 
BRANCH  25  28
ATOM     28  O   UNL     1      36.149 -23.027 -16.553  0.00  0.00    -0.476 OA
ATOM     29  C   UNL     1      37.209 -22.604 -15.695  0.00  0.00    +0.252 C 
ENDBRANCH  25  28
ENDBRANCH  17  20
ENDBRANCH  16  17
ENDBRANCH   5  16
TORSDOF 5
ENDMDL
MODEL 7
REMARK VINA RESULT:     -10.6      6.379     11.070
REMARK  Name = 24864821
REMARK  5 active torsions:
REMARK  status: ('A' for Active; 'I' for Inactive)
REMARK    1  A    between atoms: C_5  and  C_16
REMARK    2  A    between atoms: C_7  and  C_10
REMARK    3  A    between atoms: C_16  and  O_17
REMARK    4  A    between atoms: O_17  and  C_20
REMARK    5  A    between atoms: C_25  and  O_28
REMARK                            x       y       z     vdW  Elec       q    Type
REMARK                         _______ _______ _______ _____ _____    ______ ____
ROOT
ATOM      1  N   UNL     1      34.053 -15.242 -22.823  0.00  0.00    -0.191 N 
ATOM      2  N   UNL     1      34.458 -16.157 -21.907  0.00  0.00    -0.163 NA
ATOM      3  N   UNL     1      33.268 -13.398 -23.709  0.00  0.00    -0.128 NA
ATOM      4  N   UNL     1      33.602 -14.260 -24.733  0.00  0.00    -0.127 NA
ATOM      5  C   UNL     1      33.543 -14.001 -22.575  0.00  0.00    +0.208 A 
ATOM      6  C   UNL     1      34.073 -15.363 -24.193  0.00  0.00    +0.186 A 
ATOM      7  C   UNL     1      34.913 -17.260 -22.431  0.00  0.00    +0.101 C 
ATOM      8  C   UNL     1      34.553 -16.573 -24.730  0.00  0.00    +0.042 C 
ATOM      9  C   UNL     1      34.977 -17.537 -23.902  0.00  0.00    +0.024 C 
ENDROOT
BRANCH   7  10
ATOM     10  C   UNL     1      35.392 -18.341 -21.529  0.00  0.00    +0.019 C 
ATOM     11  C   UNL     1      36.739 -18.407 -21.173  0.00  0.00    +0.002 C 
ATOM     12  C   UNL     1      34.493 -19.287 -21.037  0.00  0.00    +0.002 C 
ATOM     13  C   UNL     1      37.187 -19.419 -20.326  0.00  0.00    +0.000 C 
ATOM     14  C   UNL     1      34.941 -20.300 -20.190  0.00  0.00    +0.000 C 
ATOM     15  C   UNL     1      36.288 -20.367 -19.834  0.00  0.00    +0.000 C 
ENDBRANCH   7  10
BRANCH   5  16
ATOM     16  C   UNL     1      33.349 -13.456 -21.190  0.00  0.00    +0.272 C 
BRANCH  16  17
ATOM     17  O   UNL     1      32.069 -12.832 -21.112  0.00  0.00    -0.467 OA
BRANCH  17  20
ATOM     18  N   UNL     1      31.897  -9.173 -19.168  0.00  0.00    -0.248 NA
ATOM     19  C   UNL     1      31.918 -10.426 -21.226  0.00  0.00    +0.030 C 
ATOM     20  C   UNL     1      32.011 -11.617 -20.494  0.00  0.00    +0.138 C 
ATOM     21  C   UNL     1      31.863  -9.210 -20.513  0.00  0.00    +0.066 C 
ATOM     22  C   UNL     1      31.880 -10.426 -22.631  0.00  0.00    +0.059 C 
ATOM     23  C   UNL     1      31.770  -8.027 -21.241  0.00  0.00    +0.109 C 
ATOM     24  C   UNL     1      32.047 -11.583 -19.107  0.00  0.00    +0.057 C 
ATOM     25  C   UNL     1      31.732  -8.028 -22.638  0.00  0.00    +0.118 C 
ATOM     26  C   UNL     1      31.787  -9.229 -23.334  0.00  0.00    +0.011 C 
ATOM     27  C   UNL     1      31.987 -10.345 -18.498  0.00  0.00    +0.102 C 
BRANCH  25  28
ATOM     28  O   UNL     1      31.640  -6.851 -23.315  0.00  0.00    -0.476 OA
ATOM     29  C   UNL     1      32.071  -6.850 -24.676  0.00  0.00    +0.252 C 
ENDBRANCH  25  28
ENDBRANCH  17  20
ENDBRANCH  16  17
ENDBRANCH   5  16
TORSDOF 5
ENDMDL
MODEL 8
REMARK VINA RESULT:     -10.6      2.383      8.163
REMARK  Name = 24864821
REMARK  5 active torsions:
REMARK  status: ('A' for Active; 'I' for Inactive)
REMARK    1  A    between atoms: C_5  and  C_16
REMARK    2  A    between atoms: C_7  and  C_10
REMARK    3  A    between atoms: C_16  and  O_17
REMARK    4  A    between atoms: O_17  and  C_20
REMARK    5  A    between atoms: C_25  and  O_28
REMARK                            x       y       z     vdW  Elec       q    Type
REMARK                         _______ _______ _______ _____ _____    ______ ____
ROOT
ATOM      1  N   UNL     1      35.352 -20.916 -19.324  0.00  0.00    -0.191 N 
ATOM      2  N   UNL     1      34.795 -20.281 -20.385  0.00  0.00    -0.163 NA
ATOM      3  N   UNL     1      35.595 -22.209 -17.571  0.00  0.00    -0.128 NA
ATOM      4  N   UNL     1      36.804 -21.593 -17.823  0.00  0.00    -0.127 NA
ATOM      5  C   UNL     1      34.740 -21.793 -18.477  0.00  0.00    +0.208 A 
ATOM      6  C   UNL     1      36.649 -20.820 -18.876  0.00  0.00    +0.186 A 
ATOM      7  C   UNL     1      35.622 -19.503 -21.026  0.00  0.00    +0.101 C 
ATOM      8  C   UNL     1      37.514 -19.958 -19.578  0.00  0.00    +0.042 C 
ATOM      9  C   UNL     1      37.054 -19.288 -20.642  0.00  0.00    +0.024 C 
ENDROOT
BRANCH   7  10
ATOM     10  C   UNL     1      35.131 -18.754 -22.213  0.00  0.00    +0.019 C 
ATOM     11  C   UNL     1      35.362 -17.382 -22.316  0.00  0.00    +0.002 C 
ATOM     12  C   UNL     1      34.442 -19.423 -23.223  0.00  0.00    +0.002 C 
ATOM     13  C   UNL     1      34.903 -16.680 -23.430  0.00  0.00    +0.000 C 
ATOM     14  C   UNL     1      33.983 -18.721 -24.337  0.00  0.00    +0.000 C 
ATOM     15  C   UNL     1      34.213 -17.349 -24.441  0.00  0.00    +0.000 C 
ENDBRANCH   7  10
BRANCH   5  16
ATOM     16  C   UNL     1      33.298 -22.189 -18.609  0.00  0.00    +0.272 C 
BRANCH  16  17
ATOM     17  O   UNL     1      33.066 -23.363 -17.833  0.00  0.00    -0.467 OA
BRANCH  17  20
ATOM     18  N   UNL     1      30.942 -22.855 -14.309  0.00  0.00    -0.248 NA
ATOM     19  C   UNL     1      32.966 -23.529 -15.427  0.00  0.00    +0.030 C 
ATOM     20  C   UNL     1      32.386 -23.204 -16.662  0.00  0.00    +0.138 C 
ATOM     21  C   UNL     1      32.198 -23.336 -14.261  0.00  0.00    +0.066 C 
ATOM     22  C   UNL     1      34.275 -24.033 -15.339  0.00  0.00    +0.059 C 
ATOM     23  C   UNL     1      32.775 -23.659 -13.035  0.00  0.00    +0.109 C 
ATOM     24  C   UNL     1      31.092 -22.709 -16.715  0.00  0.00    +0.057 C 
ATOM     25  C   UNL     1      34.076 -24.160 -12.948  0.00  0.00    +0.118 C 
ATOM     26  C   UNL     1      34.827 -24.347 -14.101  0.00  0.00    +0.011 C 
ATOM     27  C   UNL     1      30.418 -22.554 -15.519  0.00  0.00    +0.102 C 
BRANCH  25  28
ATOM     28  O   UNL     1      34.606 -24.462 -11.732  0.00  0.00    -0.476 OA
ATOM     29  C   UNL     1      35.811 -23.791 -11.364  0.00  0.00    +0.252 C 
ENDBRANCH  25  28
ENDBRANCH  17  20
ENDBRANCH  16  17
ENDBRANCH   5  16
TORSDOF 5
ENDMDL
MODEL 9
REMARK VINA RESULT:     -10.5      5.267      9.693
REMARK  Name = 24864821
REMARK  5 active torsions:
REMARK  status: ('A' for Active; 'I' for Inactive)
REMARK    1  A    between atoms: C_5  and  C_16
REMARK    2  A    between atoms: C_7  and  C_10
REMARK    3  A    between atoms: C_16  and  O_17
REMARK    4  A    between atoms: O_17  and  C_20
REMARK    5  A    between atoms: C_25  and  O_28
REMARK                            x       y       z     vdW  Elec       q    Type
REMARK                         _______ _______ _______ _____ _____    ______ ____
ROOT
ATOM      1  N   UNL     1      34.678 -17.207 -22.990  0.00  0.00    -0.191 N 
ATOM      2  N   UNL     1      34.800 -17.875 -21.815  0.00  0.00    -0.163 NA
ATOM      3  N   UNL     1      34.496 -15.575 -24.440  0.00  0.00    -0.128 NA
ATOM      4  N   UNL     1      34.500 -16.769 -25.133  0.00  0.00    -0.127 NA
ATOM      5  C   UNL     1      34.603 -15.856 -23.162  0.00  0.00    +0.208 A 
ATOM      6  C   UNL     1      34.610 -17.742 -24.255  0.00  0.00    +0.186 A 
ATOM      7  C   UNL     1      34.859 -19.171 -21.951  0.00  0.00    +0.101 C 
ATOM      8  C   UNL     1      34.658 -19.145 -24.369  0.00  0.00    +0.042 C 
ATOM      9  C   UNL     1      34.779 -19.890 -23.263  0.00  0.00    +0.024 C 
ENDROOT
BRANCH   7  10
ATOM     10  C   UNL     1      34.997 -20.015 -20.736  0.00  0.00    +0.019 C 
ATOM     11  C   UNL     1      36.252 -20.211 -20.161  0.00  0.00    +0.002 C 
ATOM     12  C   UNL     1      33.870 -20.610 -20.169  0.00  0.00    +0.002 C 
ATOM     13  C   UNL     1      36.381 -21.002 -19.020  0.00  0.00    +0.000 C 
ATOM     14  C   UNL     1      33.999 -21.401 -19.027  0.00  0.00    +0.000 C 
ATOM     15  C   UNL     1      35.254 -21.598 -18.452  0.00  0.00    +0.000 C 
ENDBRANCH   7  10
BRANCH   5  16
ATOM     16  C   UNL     1      34.642 -14.881 -22.022  0.00  0.00    +0.272 C 
BRANCH  16  17
ATOM     17  O   UNL     1      33.334 -14.350 -21.818  0.00  0.00    -0.467 OA
BRANCH  17  20
ATOM     18  N   UNL     1      32.681 -10.489 -23.180  0.00  0.00    -0.248 NA
ATOM     19  C   UNL     1      32.633 -12.084 -21.375  0.00  0.00    +0.030 C 
ATOM     20  C   UNL     1      33.112 -13.074 -22.244  0.00  0.00    +0.138 C 
ATOM     21  C   UNL     1      32.429 -10.788 -21.892  0.00  0.00    +0.066 C 
ATOM     22  C   UNL     1      32.359 -12.360 -20.024  0.00  0.00    +0.059 C 
ATOM     23  C   UNL     1      31.953  -9.805 -21.028  0.00  0.00    +0.109 C 
ATOM     24  C   UNL     1      33.372 -12.770 -23.572  0.00  0.00    +0.057 C 
ATOM     25  C   UNL     1      31.681 -10.079 -19.686  0.00  0.00    +0.118 C 
ATOM     26  C   UNL     1      31.885 -11.358 -19.183  0.00  0.00    +0.011 C 
ATOM     27  C   UNL     1      33.142 -11.473 -23.987  0.00  0.00    +0.102 C 
BRANCH  25  28
ATOM     28  O   UNL     1      31.219  -9.092 -18.871  0.00  0.00    -0.476 OA
ATOM     29  C   UNL     1      31.656  -7.762 -19.150  0.00  0.00    +0.252 C 
ENDBRANCH  25  28
ENDBRANCH  17  20
ENDBRANCH  16  17
ENDBRANCH   5  16
TORSDOF 5
ENDMDL
