MODEL 1
REMARK VINA RESULT:     -11.4      0.000      0.000
REMARK  Name = 656913
REMARK  7 active torsions:
REMARK  status: ('A' for Active; 'I' for Inactive)
REMARK    1  A    between atoms: N_3  and  C_22
REMARK    2  A    between atoms: N_4  and  C_11
REMARK    3  A    between atoms: C_11  and  C_14
REMARK    4  A    between atoms: C_14  and  C_17
REMARK    5  A    between atoms: C_22  and  C_25
REMARK    6  A    between atoms: N_24  and  C_27
REMARK    7  A    between atoms: C_27  and  C_29
REMARK                            x       y       z     vdW  Elec       q    Type
REMARK                         _______ _______ _______ _____ _____    ______ ____
ROOT
ATOM      1 CL   UNL     1      32.154 -13.898 -19.855  0.00  0.00    -0.064 Cl
ATOM      2  O   UNL     1      31.910 -10.415 -23.470  0.00  0.00    -0.266 OA
ATOM      3  N   UNL     1      32.026 -12.067 -21.810  0.00  0.00    -0.233 N 
ATOM      4  N   UNL     1      31.674  -8.389 -21.711  0.00  0.00    -0.310 N 
ATOM      5  N   UNL     1      31.779  -9.953 -19.969  0.00  0.00    -0.223 NA
ATOM      6  C   UNL     1      31.785  -9.673 -21.241  0.00  0.00    +0.183 C 
ATOM      7  C   UNL     1      31.914 -10.764 -22.295  0.00  0.00    +0.285 C 
ATOM      8  C   UNL     1      32.014 -12.286 -20.446  0.00  0.00    +0.133 C 
ATOM      9  C   UNL     1      31.896 -11.261 -19.597  0.00  0.00    +0.127 C 
ATOM     10  H   UNL     1      31.684  -8.235 -22.684  0.00  0.00    +0.149 HD
ENDROOT
BRANCH   4  11
ATOM     11  C   UNL     1      31.546  -7.266 -20.837  0.00  0.00    +0.162 C 
BRANCH  11  14
ATOM     12  F   UNL     1      33.668  -7.151 -19.839  0.00  0.00    -0.196 F 
ATOM     13  F   UNL     1      32.632  -5.281 -20.211  0.00  0.00    -0.196 F 
ATOM     14  C   UNL     1      32.873  -6.513 -20.749  0.00  0.00    +0.317 C 
BRANCH  14  17
ATOM     15  O   UNL     1      31.868  -4.959 -22.791  0.00  0.00    -0.163 OA
ATOM     16  N   UNL     1      32.935  -5.612 -23.042  0.00  0.00    -0.128 N 
ATOM     17  C   UNL     1      33.529  -6.420 -22.105  0.00  0.00    +0.142 C 
ATOM     18  C   UNL     1      34.685  -7.131 -22.365  0.00  0.00    +0.022 C 
ATOM     19  C   UNL     1      33.521  -5.515 -24.289  0.00  0.00    +0.121 C 
ATOM     20  C   UNL     1      35.268  -7.026 -23.623  0.00  0.00    +0.003 C 
ATOM     21  C   UNL     1      34.685  -6.214 -24.592  0.00  0.00    +0.022 C 
ENDBRANCH  14  17
ENDBRANCH  11  14
ENDBRANCH   4  11
BRANCH   3  22
ATOM     22  C   UNL     1      32.152 -13.168 -22.760  0.00  0.00    +0.184 C 
BRANCH  22  25
ATOM     23  O   UNL     1      34.474 -12.680 -23.217  0.00  0.00    -0.273 OA
ATOM     24  N   UNL     1      33.836 -14.877 -22.809  0.00  0.00    -0.299 N 
ATOM     25  C   UNL     1      33.615 -13.514 -22.942  0.00  0.00    +0.243 C 
ATOM     26  H   UNL     1      33.070 -15.455 -22.585  0.00  0.00    +0.150 HD
BRANCH  24  27
ATOM     27  C   UNL     1      35.133 -15.492 -22.983  0.00  0.00    +0.119 C 
BRANCH  27  29
ATOM     28  F   UNL     1      34.357 -17.468 -24.847  0.00  0.00    -0.204 F 
ATOM     29  C   UNL     1      35.109 -16.957 -22.654  0.00  0.00    +0.025 C 
ATOM     30  C   UNL     1      34.716 -17.875 -23.621  0.00  0.00    +0.138 C 
ATOM     31  C   UNL     1      35.481 -17.379 -21.383  0.00  0.00    -0.000 C 
ATOM     32  C   UNL     1      34.696 -19.234 -23.313  0.00  0.00    +0.029 C 
ATOM     33  C   UNL     1      35.460 -18.739 -21.076  0.00  0.00    -0.000 C 
ATOM     34  C   UNL     1      35.068 -19.667 -22.040  0.00  0.00    +0.002 C 
ENDBRANCH  27  29
ENDBRANCH  24  27
ENDBRANCH  22  25
ENDBRANCH   3  22
TORSDOF 7
ENDMDL
MODEL 2
REMARK VINA RESULT:     -11.3      2.521     10.445
REMARK  Name = 656913
REMARK  7 active torsions:
REMARK  status: ('A' for Active; 'I' for Inactive)
REMARK    1  A    between atoms: N_3  and  C_22
REMARK    2  A    between atoms: N_4  and  C_11
REMARK    3  A    between atoms: C_11  and  C_14
REMARK    4  A    between atoms: C_14  and  C_17
REMARK    5  A    between atoms: C_22  and  C_25
REMARK    6  A    between atoms: N_24  and  C_27
REMARK    7  A    between atoms: C_27  and  C_29
REMARK                            x       y       z     vdW  Elec       q    Type
REMARK                         _______ _______ _______ _____ _____    ______ ____
ROOT
ATOM      1 CL   UNL     1      31.626 -11.326 -20.411  0.00  0.00    -0.064 Cl
ATOM      2  O   UNL     1      34.027 -14.098 -23.848  0.00  0.00    -0.266 OA
ATOM      3  N   UNL     1      32.897 -12.780 -22.271  0.00  0.00    -0.233 N 
ATOM      4  N   UNL     1      34.868 -15.897 -22.030  0.00  0.00    -0.310 N 
ATOM      5  N   UNL     1      33.774 -14.658 -20.368  0.00  0.00    -0.223 NA
ATOM      6  C   UNL     1      34.107 -14.834 -21.615  0.00  0.00    +0.183 C 
ATOM      7  C   UNL     1      33.670 -13.859 -22.700  0.00  0.00    +0.285 C 
ATOM      8  C   UNL     1      32.582 -12.661 -20.932  0.00  0.00    +0.133 C 
ATOM      9  C   UNL     1      33.014 -13.570 -20.052  0.00  0.00    +0.127 C 
ATOM     10  H   UNL     1      35.091 -15.980 -22.986  0.00  0.00    +0.149 HD
ENDROOT
BRANCH   4  11
ATOM     11  C   UNL     1      35.349 -16.890 -21.121  0.00  0.00    +0.162 C 
BRANCH  11  14
ATOM     12  F   UNL     1      36.691 -18.257 -22.479  0.00  0.00    -0.196 F 
ATOM     13  F   UNL     1      34.551 -18.289 -22.829  0.00  0.00    -0.196 F 
ATOM     14  C   UNL     1      35.486 -18.235 -21.836  0.00  0.00    +0.317 C 
BRANCH  14  17
ATOM     15  O   UNL     1      37.597 -19.209 -20.357  0.00  0.00    -0.163 OA
ATOM     16  N   UNL     1      36.467 -19.776 -20.182  0.00  0.00    -0.128 N 
ATOM     17  C   UNL     1      35.343 -19.378 -20.861  0.00  0.00    +0.142 C 
ATOM     18  C   UNL     1      34.114 -19.983 -20.679  0.00  0.00    +0.022 C 
ATOM     19  C   UNL     1      36.355 -20.822 -19.286  0.00  0.00    +0.121 C 
ATOM     20  C   UNL     1      34.012 -21.034 -19.775  0.00  0.00    +0.003 C 
ATOM     21  C   UNL     1      35.136 -21.457 -19.073  0.00  0.00    +0.022 C 
ENDBRANCH  14  17
ENDBRANCH  11  14
ENDBRANCH   4  11
BRANCH   3  22
ATOM     22  C   UNL     1      32.441 -11.802 -23.253  0.00  0.00    +0.184 C 
BRANCH  22  25
ATOM     23  O   UNL     1      34.585 -10.993 -24.023  0.00  0.00    -0.273 OA
ATOM     24  N   UNL     1      33.159  -9.538 -22.905  0.00  0.00    -0.299 N 
ATOM     25  C   UNL     1      33.517 -10.756 -23.464  0.00  0.00    +0.243 C 
ATOM     26  H   UNL     1      32.274  -9.461 -22.480  0.00  0.00    +0.150 HD
BRANCH  24  27
ATOM     27  C   UNL     1      34.020  -8.377 -22.916  0.00  0.00    +0.119 C 
BRANCH  27  29
ATOM     28  F   UNL     1      33.514  -7.777 -20.200  0.00  0.00    -0.204 F 
ATOM     29  C   UNL     1      33.296  -7.137 -22.476  0.00  0.00    +0.025 C 
ATOM     30  C   UNL     1      33.082  -6.905 -21.123  0.00  0.00    +0.138 C 
ATOM     31  C   UNL     1      32.846  -6.232 -23.431  0.00  0.00    -0.000 C 
ATOM     32  C   UNL     1      32.409  -5.752 -20.718  0.00  0.00    +0.029 C 
ATOM     33  C   UNL     1      32.174  -5.079 -23.026  0.00  0.00    -0.000 C 
ATOM     34  C   UNL     1      31.955  -4.839 -21.670  0.00  0.00    +0.002 C 
ENDBRANCH  27  29
ENDBRANCH  24  27
ENDBRANCH  22  25
ENDBRANCH   3  22
TORSDOF 7
ENDMDL
MODEL 3
REMARK VINA RESULT:     -11.3      3.361     10.728
REMARK  Name = 656913
REMARK  7 active torsions:
REMARK  status: ('A' for Active; 'I' for Inactive)
REMARK    1  A    between atoms: N_3  and  C_22
REMARK    2  A    between atoms: N_4  and  C_11
REMARK    3  A    between atoms: C_11  and  C_14
REMARK    4  A    between atoms: C_14  and  C_17
REMARK    5  A    between atoms: C_22  and  C_25
REMARK    6  A    between atoms: N_24  and  C_27
REMARK    7  A    between atoms: C_27  and  C_29
REMARK                            x       y       z     vdW  Elec       q    Type
REMARK                         _______ _______ _______ _____ _____    ______ ____
ROOT
ATOM      1 CL   UNL     1      33.303 -14.523 -25.779  0.00  0.00    -0.064 Cl
ATOM      2  O   UNL     1      35.281 -14.715 -21.163  0.00  0.00    -0.266 OA
ATOM      3  N   UNL     1      34.352 -14.588 -23.312  0.00  0.00    -0.233 N 
ATOM      4  N   UNL     1      35.723 -17.368 -21.298  0.00  0.00    -0.310 N 
ATOM      5  N   UNL     1      34.812 -17.361 -23.458  0.00  0.00    -0.223 NA
ATOM      6  C   UNL     1      35.152 -16.730 -22.370  0.00  0.00    +0.183 C 
ATOM      7  C   UNL     1      34.933 -15.231 -22.219  0.00  0.00    +0.285 C 
ATOM      8  C   UNL     1      34.019 -15.324 -24.433  0.00  0.00    +0.133 C 
ATOM      9  C   UNL     1      34.251 -16.640 -24.472  0.00  0.00    +0.127 C 
ATOM     10  H   UNL     1      35.960 -16.841 -20.501  0.00  0.00    +0.149 HD
ENDROOT
BRANCH   4  11
ATOM     11  C   UNL     1      35.986 -18.773 -21.300  0.00  0.00    +0.162 C 
BRANCH  11  14
ATOM     12  F   UNL     1      34.254 -20.147 -22.088  0.00  0.00    -0.196 F 
ATOM     13  F   UNL     1      33.748 -18.648 -20.603  0.00  0.00    -0.196 F 
ATOM     14  C   UNL     1      34.716 -19.547 -20.951  0.00  0.00    +0.317 C 
BRANCH  14  17
ATOM     15  O   UNL     1      32.738 -21.125 -19.860  0.00  0.00    -0.163 OA
ATOM     16  N   UNL     1      33.913 -21.276 -19.388  0.00  0.00    -0.128 N 
ATOM     17  C   UNL     1      34.980 -20.547 -19.851  0.00  0.00    +0.142 C 
ATOM     18  C   UNL     1      36.258 -20.702 -19.350  0.00  0.00    +0.022 C 
ATOM     19  C   UNL     1      34.137 -22.195 -18.382  0.00  0.00    +0.121 C 
ATOM     20  C   UNL     1      36.472 -21.631 -18.337  0.00  0.00    +0.003 C 
ATOM     21  C   UNL     1      35.408 -22.382 -17.849  0.00  0.00    +0.022 C 
ENDBRANCH  14  17
ENDBRANCH  11  14
ENDBRANCH   4  11
BRANCH   3  22
ATOM     22  C   UNL     1      34.109 -13.151 -23.242  0.00  0.00    +0.184 C 
BRANCH  22  25
ATOM     23  O   UNL     1      32.279 -13.738 -21.776  0.00  0.00    -0.273 OA
ATOM     24  N   UNL     1      32.344 -11.613 -22.716  0.00  0.00    -0.299 N 
ATOM     25  C   UNL     1      32.828 -12.891 -22.477  0.00  0.00    +0.243 C 
ATOM     26  H   UNL     1      32.868 -11.016 -23.297  0.00  0.00    +0.150 HD
BRANCH  24  27
ATOM     27  C   UNL     1      31.109 -11.115 -22.153  0.00  0.00    +0.119 C 
BRANCH  27  29
ATOM     28  F   UNL     1      31.768  -8.378 -22.403  0.00  0.00    -0.204 F 
ATOM     29  C   UNL     1      31.351 -10.223 -20.969  0.00  0.00    +0.025 C 
ATOM     30  C   UNL     1      31.671  -8.885 -21.166  0.00  0.00    +0.138 C 
ATOM     31  C   UNL     1      31.252 -10.748 -19.686  0.00  0.00    -0.000 C 
ATOM     32  C   UNL     1      31.895  -8.060 -20.065  0.00  0.00    +0.029 C 
ATOM     33  C   UNL     1      31.475  -9.922 -18.584  0.00  0.00    -0.000 C 
ATOM     34  C   UNL     1      31.797  -8.579 -18.773  0.00  0.00    +0.002 C 
ENDBRANCH  27  29
ENDBRANCH  24  27
ENDBRANCH  22  25
ENDBRANCH   3  22
TORSDOF 7
ENDMDL
MODEL 4
REMARK VINA RESULT:     -11.3      2.511     10.252
REMARK  Name = 656913
REMARK  7 active torsions:
REMARK  status: ('A' for Active; 'I' for Inactive)
REMARK    1  A    between atoms: N_3  and  C_22
REMARK    2  A    between atoms: N_4  and  C_11
REMARK    3  A    between atoms: C_11  and  C_14
REMARK    4  A    between atoms: C_14  and  C_17
REMARK    5  A    between atoms: C_22  and  C_25
REMARK    6  A    between atoms: N_24  and  C_27
REMARK    7  A    between atoms: C_27  and  C_29
REMARK                            x       y       z     vdW  Elec       q    Type
REMARK                         _______ _______ _______ _____ _____    ______ ____
ROOT
ATOM      1 CL   UNL     1      31.111 -11.428 -20.680  0.00  0.00    -0.064 Cl
ATOM      2  O   UNL     1      34.296 -13.750 -23.798  0.00  0.00    -0.266 OA
ATOM      3  N   UNL     1      32.804 -12.640 -22.369  0.00  0.00    -0.233 N 
ATOM      4  N   UNL     1      34.905 -15.658 -21.998  0.00  0.00    -0.310 N 
ATOM      5  N   UNL     1      33.438 -14.632 -20.485  0.00  0.00    -0.223 NA
ATOM      6  C   UNL     1      34.009 -14.677 -21.655  0.00  0.00    +0.183 C 
ATOM      7  C   UNL     1      33.715 -13.634 -22.725  0.00  0.00    +0.285 C 
ATOM      8  C   UNL     1      32.237 -12.658 -21.110  0.00  0.00    +0.133 C 
ATOM      9  C   UNL     1      32.558 -13.618 -20.237  0.00  0.00    +0.127 C 
ATOM     10  H   UNL     1      35.307 -15.643 -22.897  0.00  0.00    +0.149 HD
ENDROOT
BRANCH   4  11
ATOM     11  C   UNL     1      35.276 -16.701 -21.094  0.00  0.00    +0.162 C 
BRANCH  11  14
ATOM     12  F   UNL     1      36.632 -17.998 -22.506  0.00  0.00    -0.196 F 
ATOM     13  F   UNL     1      34.489 -18.065 -22.835  0.00  0.00    -0.196 F 
ATOM     14  C   UNL     1      35.434 -18.020 -21.850  0.00  0.00    +0.317 C 
BRANCH  14  17
ATOM     15  O   UNL     1      37.602 -19.060 -20.505  0.00  0.00    -0.163 OA
ATOM     16  N   UNL     1      36.476 -19.624 -20.296  0.00  0.00    -0.128 N 
ATOM     17  C   UNL     1      35.326 -19.195 -20.909  0.00  0.00    +0.142 C 
ATOM     18  C   UNL     1      34.100 -19.796 -20.690  0.00  0.00    +0.022 C 
ATOM     19  C   UNL     1      36.396 -20.699 -19.432  0.00  0.00    +0.121 C 
ATOM     20  C   UNL     1      34.031 -20.877 -19.817  0.00  0.00    +0.003 C 
ATOM     21  C   UNL     1      35.183 -21.332 -19.184  0.00  0.00    +0.022 C 
ENDBRANCH  14  17
ENDBRANCH  11  14
ENDBRANCH   4  11
BRANCH   3  22
ATOM     22  C   UNL     1      32.472 -11.603 -23.341  0.00  0.00    +0.184 C 
BRANCH  22  25
ATOM     23  O   UNL     1      34.578 -10.427 -23.486  0.00  0.00    -0.273 OA
ATOM     24  N   UNL     1      32.751  -9.366 -22.519  0.00  0.00    -0.299 N 
ATOM     25  C   UNL     1      33.396 -10.418 -23.153  0.00  0.00    +0.243 C 
ATOM     26  H   UNL     1      31.797  -9.469 -22.297  0.00  0.00    +0.150 HD
BRANCH  24  27
ATOM     27  C   UNL     1      33.409  -8.127 -22.169  0.00  0.00    +0.119 C 
BRANCH  27  29
ATOM     28  F   UNL     1      35.946  -7.011 -22.722  0.00  0.00    -0.204 F 
ATOM     29  C   UNL     1      33.678  -7.274 -23.375  0.00  0.00    +0.025 C 
ATOM     30  C   UNL     1      34.952  -6.758 -23.585  0.00  0.00    +0.138 C 
ATOM     31  C   UNL     1      32.649  -7.010 -24.270  0.00  0.00    -0.000 C 
ATOM     32  C   UNL     1      35.199  -5.967 -24.706  0.00  0.00    +0.029 C 
ATOM     33  C   UNL     1      32.896  -6.218 -25.391  0.00  0.00    -0.000 C 
ATOM     34  C   UNL     1      34.171  -5.697 -25.609  0.00  0.00    +0.002 C 
ENDBRANCH  27  29
ENDBRANCH  24  27
ENDBRANCH  22  25
ENDBRANCH   3  22
TORSDOF 7
ENDMDL
MODEL 5
REMARK VINA RESULT:     -11.2      4.424     11.534
REMARK  Name = 656913
REMARK  7 active torsions:
REMARK  status: ('A' for Active; 'I' for Inactive)
REMARK    1  A    between atoms: N_3  and  C_22
REMARK    2  A    between atoms: N_4  and  C_11
REMARK    3  A    between atoms: C_11  and  C_14
REMARK    4  A    between atoms: C_14  and  C_17
REMARK    5  A    between atoms: C_22  and  C_25
REMARK    6  A    between atoms: N_24  and  C_27
REMARK    7  A    between atoms: C_27  and  C_29
REMARK                            x       y       z     vdW  Elec       q    Type
REMARK                         _______ _______ _______ _____ _____    ______ ____
ROOT
ATOM      1 CL   UNL     1      34.372 -15.640 -25.147  0.00  0.00    -0.064 Cl
ATOM      2  O   UNL     1      35.214 -16.335 -20.241  0.00  0.00    -0.266 OA
ATOM      3  N   UNL     1      34.820 -15.973 -22.525  0.00  0.00    -0.233 N 
ATOM      4  N   UNL     1      35.252 -19.018 -20.474  0.00  0.00    -0.310 N 
ATOM      5  N   UNL     1      34.859 -18.776 -22.772  0.00  0.00    -0.223 NA
ATOM      6  C   UNL     1      35.043 -18.252 -21.593  0.00  0.00    +0.183 C 
ATOM      7  C   UNL     1      35.034 -16.744 -21.382  0.00  0.00    +0.285 C 
ATOM      8  C   UNL     1      34.635 -16.600 -23.741  0.00  0.00    +0.133 C 
ATOM      9  C   UNL     1      34.659 -17.933 -23.826  0.00  0.00    +0.127 C 
ATOM     10  H   UNL     1      35.385 -18.568 -19.607  0.00  0.00    +0.149 HD
ENDROOT
BRANCH   4  11
ATOM     11  C   UNL     1      35.286 -20.445 -20.522  0.00  0.00    +0.162 C 
BRANCH  11  14
ATOM     12  F   UNL     1      36.798 -19.941 -18.798  0.00  0.00    -0.196 F 
ATOM     13  F   UNL     1      37.129 -21.768 -19.920  0.00  0.00    -0.196 F 
ATOM     14  C   UNL     1      36.145 -20.990 -19.381  0.00  0.00    +0.317 C 
BRANCH  14  17
ATOM     15  O   UNL     1      37.103 -21.828 -16.937  0.00  0.00    -0.163 OA
ATOM     16  N   UNL     1      35.889 -22.117 -17.204  0.00  0.00    -0.128 N 
ATOM     17  C   UNL     1      35.301 -21.753 -18.389  0.00  0.00    +0.142 C 
ATOM     18  C   UNL     1      33.986 -22.058 -18.689  0.00  0.00    +0.022 C 
ATOM     19  C   UNL     1      35.131 -22.816 -16.284  0.00  0.00    +0.121 C 
ATOM     20  C   UNL     1      33.232 -22.761 -17.756  0.00  0.00    +0.003 C 
ATOM     21  C   UNL     1      33.805 -23.143 -16.547  0.00  0.00    +0.022 C 
ENDBRANCH  14  17
ENDBRANCH  11  14
ENDBRANCH   4  11
BRANCH   3  22
ATOM     22  C   UNL     1      34.797 -14.519 -22.403  0.00  0.00    +0.184 C 
BRANCH  22  25
ATOM     23  O   UNL     1      32.543 -13.985 -23.095  0.00  0.00    -0.273 OA
ATOM     24  N   UNL     1      33.153 -13.669 -20.874  0.00  0.00    -0.299 N 
ATOM     25  C   UNL     1      33.372 -14.052 -22.190  0.00  0.00    +0.243 C 
ATOM     26  H   UNL     1      33.892 -13.767 -20.230  0.00  0.00    +0.150 HD
BRANCH  24  27
ATOM     27  C   UNL     1      31.895 -13.136 -20.402  0.00  0.00    +0.119 C 
BRANCH  27  29
ATOM     28  F   UNL     1      31.952 -11.586 -18.039  0.00  0.00    -0.204 F 
ATOM     29  C   UNL     1      31.882 -11.634 -20.412  0.00  0.00    +0.025 C 
ATOM     30  C   UNL     1      31.912 -10.935 -19.211  0.00  0.00    +0.138 C 
ATOM     31  C   UNL     1      31.840 -10.958 -21.626  0.00  0.00    -0.000 C 
ATOM     32  C   UNL     1      31.900  -9.541 -19.224  0.00  0.00    +0.029 C 
ATOM     33  C   UNL     1      31.829  -9.564 -21.638  0.00  0.00    -0.000 C 
ATOM     34  C   UNL     1      31.859  -8.855 -20.438  0.00  0.00    +0.002 C 
ENDBRANCH  27  29
ENDBRANCH  24  27
ENDBRANCH  22  25
ENDBRANCH   3  22
TORSDOF 7
ENDMDL
MODEL 6
REMARK VINA RESULT:     -11.1      9.586     13.640
REMARK  Name = 656913
REMARK  7 active torsions:
REMARK  status: ('A' for Active; 'I' for Inactive)
REMARK    1  A    between atoms: N_3  and  C_22
REMARK    2  A    between atoms: N_4  and  C_11
REMARK    3  A    between atoms: C_11  and  C_14
REMARK    4  A    between atoms: C_14  and  C_17
REMARK    5  A    between atoms: C_22  and  C_25
REMARK    6  A    between atoms: N_24  and  C_27
REMARK    7  A    between atoms: C_27  and  C_29
REMARK                            x       y       z     vdW  Elec       q    Type
REMARK                         _______ _______ _______ _____ _____    ______ ____
ROOT
ATOM      1 CL   UNL     1      29.629 -23.647 -14.567  0.00  0.00    -0.064 Cl
ATOM      2  O   UNL     1      34.420 -24.227 -15.968  0.00  0.00    -0.266 OA
ATOM      3  N   UNL     1      32.190 -23.981 -15.287  0.00  0.00    -0.233 N 
ATOM      4  N   UNL     1      34.181 -22.520 -18.037  0.00  0.00    -0.310 N 
ATOM      5  N   UNL     1      31.935 -22.197 -17.448  0.00  0.00    -0.223 NA
ATOM      6  C   UNL     1      33.090 -22.763 -17.240  0.00  0.00    +0.183 C 
ATOM      7  C   UNL     1      33.303 -23.739 -16.092  0.00  0.00    +0.285 C 
ATOM      8  C   UNL     1      30.998 -23.343 -15.567  0.00  0.00    +0.133 C 
ATOM      9  C   UNL     1      30.909 -22.500 -16.601  0.00  0.00    +0.127 C 
ATOM     10  H   UNL     1      35.030 -22.976 -17.834  0.00  0.00    +0.149 HD
ENDROOT
BRANCH   4  11
ATOM     11  C   UNL     1      34.127 -21.627 -19.151  0.00  0.00    +0.162 C 
BRANCH  11  14
ATOM     12  F   UNL     1      36.274 -22.229 -19.886  0.00  0.00    -0.196 F 
ATOM     13  F   UNL     1      36.130 -20.685 -18.369  0.00  0.00    -0.196 F 
ATOM     14  C   UNL     1      35.533 -21.145 -19.507  0.00  0.00    +0.317 C 
BRANCH  14  17
ATOM     15  O   UNL     1      37.482 -19.220 -19.805  0.00  0.00    -0.163 OA
ATOM     16  N   UNL     1      36.512 -19.183 -20.633  0.00  0.00    -0.128 N 
ATOM     17  C   UNL     1      35.483 -20.089 -20.585  0.00  0.00    +0.142 C 
ATOM     18  C   UNL     1      34.428 -20.062 -21.477  0.00  0.00    +0.022 C 
ATOM     19  C   UNL     1      36.482 -18.210 -21.613  0.00  0.00    +0.121 C 
ATOM     20  C   UNL     1      34.408 -19.077 -22.460  0.00  0.00    +0.003 C 
ATOM     21  C   UNL     1      35.439 -18.146 -22.530  0.00  0.00    +0.022 C 
ENDBRANCH  14  17
ENDBRANCH  11  14
ENDBRANCH   4  11
BRANCH   3  22
ATOM     22  C   UNL     1      32.315 -24.907 -14.166  0.00  0.00    +0.184 C 
BRANCH  22  25
ATOM     23  O   UNL     1      32.980 -23.374 -12.420  0.00  0.00    -0.273 OA
ATOM     24  N   UNL     1      34.489 -24.982 -13.152  0.00  0.00    -0.299 N 
ATOM     25  C   UNL     1      33.265 -24.330 -13.137  0.00  0.00    +0.243 C 
ATOM     26  H   UNL     1      34.607 -25.740 -13.769  0.00  0.00    +0.150 HD
BRANCH  24  27
ATOM     27  C   UNL     1      35.599 -24.605 -12.306  0.00  0.00    +0.119 C 
BRANCH  27  29
ATOM     28  F   UNL     1      37.505 -26.537 -11.516  0.00  0.00    -0.204 F 
ATOM     29  C   UNL     1      36.919 -24.779 -13.000  0.00  0.00    +0.025 C 
ATOM     30  C   UNL     1      37.809 -25.751 -12.558  0.00  0.00    +0.138 C 
ATOM     31  C   UNL     1      37.237 -23.964 -14.080  0.00  0.00    -0.000 C 
ATOM     32  C   UNL     1      39.034 -25.910 -13.205  0.00  0.00    +0.029 C 
ATOM     33  C   UNL     1      38.462 -24.124 -14.727  0.00  0.00    -0.000 C 
ATOM     34  C   UNL     1      39.360 -25.096 -14.290  0.00  0.00    +0.002 C 
ENDBRANCH  27  29
ENDBRANCH  24  27
ENDBRANCH  22  25
ENDBRANCH   3  22
TORSDOF 7
ENDMDL
MODEL 7
REMARK VINA RESULT:     -10.9     10.777     15.409
REMARK  Name = 656913
REMARK  7 active torsions:
REMARK  status: ('A' for Active; 'I' for Inactive)
REMARK    1  A    between atoms: N_3  and  C_22
REMARK    2  A    between atoms: N_4  and  C_11
REMARK    3  A    between atoms: C_11  and  C_14
REMARK    4  A    between atoms: C_14  and  C_17
REMARK    5  A    between atoms: C_22  and  C_25
REMARK    6  A    between atoms: N_24  and  C_27
REMARK    7  A    between atoms: C_27  and  C_29
REMARK                            x       y       z     vdW  Elec       q    Type
REMARK                         _______ _______ _______ _____ _____    ______ ____
ROOT
ATOM      1 CL   UNL     1      29.910 -24.531 -15.581  0.00  0.00    -0.064 Cl
ATOM      2  O   UNL     1      34.434 -22.409 -15.048  0.00  0.00    -0.266 OA
ATOM      3  N   UNL     1      32.319 -23.382 -15.330  0.00  0.00    -0.233 N 
ATOM      4  N   UNL     1      34.814 -23.475 -12.604  0.00  0.00    -0.310 N 
ATOM      5  N   UNL     1      32.712 -24.498 -12.777  0.00  0.00    -0.223 NA
ATOM      6  C   UNL     1      33.648 -23.743 -13.277  0.00  0.00    +0.183 C 
ATOM      7  C   UNL     1      33.506 -23.105 -14.652  0.00  0.00    +0.285 C 
ATOM      8  C   UNL     1      31.372 -24.193 -14.736  0.00  0.00    +0.133 C 
ATOM      9  C   UNL     1      31.588 -24.708 -13.522  0.00  0.00    +0.127 C 
ATOM     10  H   UNL     1      35.488 -22.897 -13.031  0.00  0.00    +0.149 HD
ENDROOT
BRANCH   4  11
ATOM     11  C   UNL     1      35.083 -24.006 -11.305  0.00  0.00    +0.162 C 
BRANCH  11  14
ATOM     12  F   UNL     1      36.793 -24.893  -9.963  0.00  0.00    -0.196 F 
ATOM     13  F   UNL     1      37.133 -22.950 -10.865  0.00  0.00    -0.196 F 
ATOM     14  C   UNL     1      36.589 -24.178 -11.109  0.00  0.00    +0.317 C 
BRANCH  14  17
ATOM     15  O   UNL     1      37.694 -22.759 -13.197  0.00  0.00    -0.163 OA
ATOM     16  N   UNL     1      37.733 -24.031 -13.288  0.00  0.00    -0.128 N 
ATOM     17  C   UNL     1      37.215 -24.844 -12.311  0.00  0.00    +0.142 C 
ATOM     18  C   UNL     1      37.252 -26.223 -12.396  0.00  0.00    +0.022 C 
ATOM     19  C   UNL     1      38.309 -24.624 -14.395  0.00  0.00    +0.121 C 
ATOM     20  C   UNL     1      37.834 -26.809 -13.515  0.00  0.00    +0.003 C 
ATOM     21  C   UNL     1      38.366 -26.008 -14.520  0.00  0.00    +0.022 C 
ENDBRANCH  14  17
ENDBRANCH  11  14
ENDBRANCH   4  11
BRANCH   3  22
ATOM     22  C   UNL     1      32.109 -22.805 -16.654  0.00  0.00    +0.184 C 
BRANCH  22  25
ATOM     23  O   UNL     1      33.523 -24.436 -17.739  0.00  0.00    -0.273 OA
ATOM     24  N   UNL     1      33.848 -22.179 -18.184  0.00  0.00    -0.299 N 
ATOM     25  C   UNL     1      33.214 -23.257 -17.585  0.00  0.00    +0.243 C 
ATOM     26  H   UNL     1      33.515 -21.273 -17.988  0.00  0.00    +0.150 HD
BRANCH  24  27
ATOM     27  C   UNL     1      34.972 -22.318 -19.083  0.00  0.00    +0.119 C 
BRANCH  27  29
ATOM     28  F   UNL     1      33.084 -20.750 -20.485  0.00  0.00    -0.204 F 
ATOM     29  C   UNL     1      35.325 -21.018 -19.747  0.00  0.00    +0.025 C 
ATOM     30  C   UNL     1      34.345 -20.298 -20.419  0.00  0.00    +0.138 C 
ATOM     31  C   UNL     1      36.632 -20.549 -19.681  0.00  0.00    -0.000 C 
ATOM     32  C   UNL     1      34.676 -19.091 -21.035  0.00  0.00    +0.029 C 
ATOM     33  C   UNL     1      36.962 -19.342 -20.296  0.00  0.00    -0.000 C 
ATOM     34  C   UNL     1      35.985 -18.613 -20.973  0.00  0.00    +0.002 C 
ENDBRANCH  27  29
ENDBRANCH  24  27
ENDBRANCH  22  25
ENDBRANCH   3  22
TORSDOF 7
ENDMDL
MODEL 8
REMARK VINA RESULT:     -10.8      2.768     10.581
REMARK  Name = 656913
REMARK  7 active torsions:
REMARK  status: ('A' for Active; 'I' for Inactive)
REMARK    1  A    between atoms: N_3  and  C_22
REMARK    2  A    between atoms: N_4  and  C_11
REMARK    3  A    between atoms: C_11  and  C_14
REMARK    4  A    between atoms: C_14  and  C_17
REMARK    5  A    between atoms: C_22  and  C_25
REMARK    6  A    between atoms: N_24  and  C_27
REMARK    7  A    between atoms: C_27  and  C_29
REMARK                            x       y       z     vdW  Elec       q    Type
REMARK                         _______ _______ _______ _____ _____    ______ ____
ROOT
ATOM      1 CL   UNL     1      32.891 -11.402 -23.545  0.00  0.00    -0.064 Cl
ATOM      2  O   UNL     1      32.547 -14.798 -19.857  0.00  0.00    -0.266 OA
ATOM      3  N   UNL     1      32.676 -13.196 -21.566  0.00  0.00    -0.233 N 
ATOM      4  N   UNL     1      34.717 -16.154 -20.698  0.00  0.00    -0.310 N 
ATOM      5  N   UNL     1      34.944 -14.610 -22.447  0.00  0.00    -0.223 NA
ATOM      6  C   UNL     1      34.314 -15.040 -21.391  0.00  0.00    +0.183 C 
ATOM      7  C   UNL     1      33.080 -14.327 -20.856  0.00  0.00    +0.285 C 
ATOM      8  C   UNL     1      33.395 -12.800 -22.676  0.00  0.00    +0.133 C 
ATOM      9  C   UNL     1      34.468 -13.493 -23.070  0.00  0.00    +0.127 C 
ATOM     10  H   UNL     1      34.202 -16.434 -19.906  0.00  0.00    +0.149 HD
ENDROOT
BRANCH   4  11
ATOM     11  C   UNL     1      35.858 -16.922 -21.086  0.00  0.00    +0.162 C 
BRANCH  11  14
ATOM     12  F   UNL     1      36.306 -18.459 -22.803  0.00  0.00    -0.196 F 
ATOM     13  F   UNL     1      34.231 -17.946 -22.433  0.00  0.00    -0.196 F 
ATOM     14  C   UNL     1      35.414 -18.198 -21.801  0.00  0.00    +0.317 C 
BRANCH  14  17
ATOM     15  O   UNL     1      37.576 -19.197 -20.414  0.00  0.00    -0.163 OA
ATOM     16  N   UNL     1      36.451 -19.757 -20.198  0.00  0.00    -0.128 N 
ATOM     17  C   UNL     1      35.303 -19.348 -20.829  0.00  0.00    +0.142 C 
ATOM     18  C   UNL     1      34.078 -19.945 -20.602  0.00  0.00    +0.022 C 
ATOM     19  C   UNL     1      36.368 -20.808 -19.305  0.00  0.00    +0.121 C 
ATOM     20  C   UNL     1      34.005 -21.003 -19.701  0.00  0.00    +0.003 C 
ATOM     21  C   UNL     1      35.154 -21.438 -19.048  0.00  0.00    +0.022 C 
ENDBRANCH  14  17
ENDBRANCH  11  14
ENDBRANCH   4  11
BRANCH   3  22
ATOM     22  C   UNL     1      31.500 -12.460 -21.114  0.00  0.00    +0.184 C 
BRANCH  22  25
ATOM     23  O   UNL     1      32.234 -11.616 -18.972  0.00  0.00    -0.273 OA
ATOM     24  N   UNL     1      31.855 -10.122 -20.711  0.00  0.00    -0.299 N 
ATOM     25  C   UNL     1      31.921 -11.383 -20.137  0.00  0.00    +0.243 C 
ATOM     26  H   UNL     1      31.592 -10.052 -21.657  0.00  0.00    +0.150 HD
BRANCH  24  27
ATOM     27  C   UNL     1      32.156  -8.905 -19.990  0.00  0.00    +0.119 C 
BRANCH  27  29
ATOM     28  F   UNL     1      33.267  -6.395 -19.315  0.00  0.00    -0.204 F 
ATOM     29  C   UNL     1      32.003  -7.687 -20.855  0.00  0.00    +0.025 C 
ATOM     30  C   UNL     1      32.577  -6.484 -20.461  0.00  0.00    +0.138 C 
ATOM     31  C   UNL     1      31.287  -7.776 -22.043  0.00  0.00    -0.000 C 
ATOM     32  C   UNL     1      32.433  -5.355 -21.266  0.00  0.00    +0.029 C 
ATOM     33  C   UNL     1      31.144  -6.647 -22.848  0.00  0.00    -0.000 C 
ATOM     34  C   UNL     1      31.717  -5.437 -22.460  0.00  0.00    +0.002 C 
ENDBRANCH  27  29
ENDBRANCH  24  27
ENDBRANCH  22  25
ENDBRANCH   3  22
TORSDOF 7
ENDMDL
MODEL 9
REMARK VINA RESULT:     -10.8      4.387      7.121
REMARK  Name = 656913
REMARK  7 active torsions:
REMARK  status: ('A' for Active; 'I' for Inactive)
REMARK    1  A    between atoms: N_3  and  C_22
REMARK    2  A    between atoms: N_4  and  C_11
REMARK    3  A    between atoms: C_11  and  C_14
REMARK    4  A    between atoms: C_14  and  C_17
REMARK    5  A    between atoms: C_22  and  C_25
REMARK    6  A    between atoms: N_24  and  C_27
REMARK    7  A    between atoms: C_27  and  C_29
REMARK                            x       y       z     vdW  Elec       q    Type
REMARK                         _______ _______ _______ _____ _____    ______ ____
ROOT
ATOM      1 CL   UNL     1      35.056 -19.909 -24.066  0.00  0.00    -0.064 Cl
ATOM      2  O   UNL     1      35.515 -16.615 -20.298  0.00  0.00    -0.266 OA
ATOM      3  N   UNL     1      35.314 -18.179 -22.034  0.00  0.00    -0.233 N 
ATOM      4  N   UNL     1      34.639 -14.553 -21.793  0.00  0.00    -0.310 N 
ATOM      5  N   UNL     1      34.398 -16.028 -23.599  0.00  0.00    -0.223 NA
ATOM      6  C   UNL     1      34.725 -15.800 -22.358  0.00  0.00    +0.183 C 
ATOM      7  C   UNL     1      35.229 -16.915 -21.451  0.00  0.00    +0.285 C 
ATOM      8  C   UNL     1      34.949 -18.344 -23.355  0.00  0.00    +0.133 C 
ATOM      9  C   UNL     1      34.517 -17.302 -24.073  0.00  0.00    +0.127 C 
ATOM     10  H   UNL     1      34.899 -14.439 -20.850  0.00  0.00    +0.149 HD
ENDROOT
BRANCH   4  11
ATOM     11  C   UNL     1      34.183 -13.414 -22.525  0.00  0.00    +0.162 C 
BRANCH  11  14
ATOM     12  F   UNL     1      32.270 -14.062 -21.329  0.00  0.00    -0.196 F 
ATOM     13  F   UNL     1      32.049 -13.708 -23.458  0.00  0.00    -0.196 F 
ATOM     14  C   UNL     1      32.676 -13.238 -22.340  0.00  0.00    +0.317 C 
BRANCH  14  17
ATOM     15  O   UNL     1      33.196 -11.211 -24.132  0.00  0.00    -0.163 OA
ATOM     16  N   UNL     1      32.641 -10.873 -23.034  0.00  0.00    -0.128 N 
ATOM     17  C   UNL     1      32.333 -11.794 -22.064  0.00  0.00    +0.142 C 
ATOM     18  C   UNL     1      31.731 -11.441 -20.871  0.00  0.00    +0.022 C 
ATOM     19  C   UNL     1      32.335  -9.547 -22.799  0.00  0.00    +0.121 C 
ATOM     20  C   UNL     1      31.427 -10.103 -20.645  0.00  0.00    +0.003 C 
ATOM     21  C   UNL     1      31.729  -9.150 -21.612  0.00  0.00    +0.022 C 
ENDBRANCH  14  17
ENDBRANCH  11  14
ENDBRANCH   4  11
BRANCH   3  22
ATOM     22  C   UNL     1      35.790 -19.299 -21.227  0.00  0.00    +0.184 C 
BRANCH  22  25
ATOM     23  O   UNL     1      33.448 -19.633 -20.736  0.00  0.00    -0.273 OA
ATOM     24  N   UNL     1      35.014 -21.106 -19.852  0.00  0.00    -0.299 N 
ATOM     25  C   UNL     1      34.609 -20.015 -20.608  0.00  0.00    +0.243 C 
ATOM     26  H   UNL     1      35.974 -21.322 -19.821  0.00  0.00    +0.150 HD
BRANCH  24  27
ATOM     27  C   UNL     1      34.097 -21.941 -19.110  0.00  0.00    +0.119 C 
BRANCH  27  29
ATOM     28  F   UNL     1      32.535 -23.196 -17.116  0.00  0.00    -0.204 F 
ATOM     29  C   UNL     1      34.643 -22.315 -17.762  0.00  0.00    +0.025 C 
ATOM     30  C   UNL     1      33.817 -22.931 -16.829  0.00  0.00    +0.138 C 
ATOM     31  C   UNL     1      35.972 -22.040 -17.462  0.00  0.00    -0.000 C 
ATOM     32  C   UNL     1      34.328 -23.277 -15.579  0.00  0.00    +0.029 C 
ATOM     33  C   UNL     1      36.482 -22.387 -16.211  0.00  0.00    -0.000 C 
ATOM     34  C   UNL     1      35.661 -23.005 -15.270  0.00  0.00    +0.002 C 
ENDBRANCH  27  29
ENDBRANCH  24  27
ENDBRANCH  22  25
ENDBRANCH   3  22
TORSDOF 7
ENDMDL
