MODEL 1
REMARK VINA RESULT:     -11.7      0.000      0.000
REMARK  Name = 6450813
REMARK  4 active torsions:
REMARK  status: ('A' for Active; 'I' for Inactive)
REMARK    1  A    between atoms: C_4  and  C_10
REMARK    2  A    between atoms: C_6  and  C_22
REMARK    3  A    between atoms: C_12  and  N_17
REMARK    4  A    between atoms: C_22  and  C_24
REMARK                            x       y       z     vdW  Elec       q    Type
REMARK                         _______ _______ _______ _____ _____    ______ ____
ROOT
ATOM      1  N   UNL     1      34.781 -16.021 -22.197  0.00  0.00    -0.191 N 
ATOM      2  N   UNL     1      34.924 -15.477 -20.956  0.00  0.00    -0.179 NA
ATOM      3  N   UNL     1      34.104 -15.374 -24.420  0.00  0.00    -0.231 NA
ATOM      4  C   UNL     1      35.018 -17.349 -22.591  0.00  0.00    +0.143 C 
ATOM      5  C   UNL     1      34.331 -15.065 -23.112  0.00  0.00    +0.141 C 
ATOM      6  C   UNL     1      34.200 -13.886 -22.415  0.00  0.00    +0.161 C 
ATOM      7  C   UNL     1      34.807 -17.698 -23.872  0.00  0.00    +0.020 C 
ATOM      8  C   UNL     1      34.576 -14.200 -21.104  0.00  0.00    +0.106 C 
ATOM      9  C   UNL     1      34.329 -16.607 -24.757  0.00  0.00    +0.097 C 
ENDROOT
BRANCH   4  10
ATOM     10  C   UNL     1      35.506 -18.365 -21.640  0.00  0.00    +0.003 C 
ATOM     11  C   UNL     1      34.603 -19.222 -21.009  0.00  0.00    +0.013 C 
ATOM     12  C   UNL     1      35.064 -20.183 -20.111  0.00  0.00    +0.054 C 
ATOM     13  C   UNL     1      36.870 -18.471 -21.372  0.00  0.00    -0.002 C 
ATOM     14  C   UNL     1      36.429 -20.289 -19.842  0.00  0.00    +0.015 C 
ATOM     15  C   UNL     1      37.332 -19.433 -20.472  0.00  0.00    +0.001 C 
BRANCH  12  17
ATOM     16  O   UNL     1      35.743 -22.353 -18.319  0.00  0.00    -0.275 OA
ATOM     17  N   UNL     1      34.161 -21.040 -19.478  0.00  0.00    -0.257 N 
ATOM     18  C   UNL     1      32.699 -20.812 -19.685  0.00  0.00    +0.120 C 
ATOM     19  C   UNL     1      34.567 -22.076 -18.568  0.00  0.00    +0.230 C 
ATOM     20  C   UNL     1      33.490 -22.850 -17.842  0.00  0.00    +0.095 C 
ENDBRANCH  12  17
ENDBRANCH   4  10
BRANCH   6  22
ATOM     21  O   UNL     1      34.296 -12.127 -23.962  0.00  0.00    -0.290 OA
ATOM     22  C   UNL     1      33.765 -12.633 -22.953  0.00  0.00    +0.191 C 
BRANCH  22  24
ATOM     23  S   UNL     1      32.322 -10.347 -22.755  0.00  0.00    -0.084 S 
ATOM     24  C   UNL     1      32.647 -11.932 -22.279  0.00  0.00    +0.065 C 
ATOM     25  C   UNL     1      31.847 -12.422 -21.316  0.00  0.00    +0.010 C 
ATOM     26  C   UNL     1      30.891 -11.442 -20.924  0.00  0.00    +0.008 C 
ATOM     27  C   UNL     1      31.036 -10.267 -21.627  0.00  0.00    +0.036 C 
ENDBRANCH  22  24
ENDBRANCH   6  22
TORSDOF 4
ENDMDL
MODEL 2
REMARK VINA RESULT:     -11.1      3.257      8.921
REMARK  Name = 6450813
REMARK  4 active torsions:
REMARK  status: ('A' for Active; 'I' for Inactive)
REMARK    1  A    between atoms: C_4  and  C_10
REMARK    2  A    between atoms: C_6  and  C_22
REMARK    3  A    between atoms: C_12  and  N_17
REMARK    4  A    between atoms: C_22  and  C_24
REMARK                            x       y       z     vdW  Elec       q    Type
REMARK                         _______ _______ _______ _____ _____    ______ ____
ROOT
ATOM      1  N   UNL     1      34.279 -15.177 -22.220  0.00  0.00    -0.191 N 
ATOM      2  N   UNL     1      34.454 -15.000 -20.880  0.00  0.00    -0.179 NA
ATOM      3  N   UNL     1      34.765 -16.799 -23.937  0.00  0.00    -0.231 NA
ATOM      4  C   UNL     1      33.668 -14.303 -23.135  0.00  0.00    +0.143 C 
ATOM      5  C   UNL     1      34.813 -16.401 -22.635  0.00  0.00    +0.141 C 
ATOM      6  C   UNL     1      35.328 -17.006 -21.511  0.00  0.00    +0.161 C 
ATOM      7  C   UNL     1      33.601 -14.656 -24.429  0.00  0.00    +0.020 C 
ATOM      8  C   UNL     1      35.080 -16.102 -20.471  0.00  0.00    +0.106 C 
ATOM      9  C   UNL     1      34.199 -15.973 -24.761  0.00  0.00    +0.097 C 
ENDROOT
BRANCH   4  10
ATOM     10  C   UNL     1      33.089 -13.015 -22.710  0.00  0.00    +0.003 C 
ATOM     11  C   UNL     1      33.534 -11.824 -23.286  0.00  0.00    +0.013 C 
ATOM     12  C   UNL     1      32.986 -10.607 -22.884  0.00  0.00    +0.054 C 
ATOM     13  C   UNL     1      32.096 -12.987 -21.731  0.00  0.00    -0.002 C 
ATOM     14  C   UNL     1      31.992 -10.579 -21.905  0.00  0.00    +0.015 C 
ATOM     15  C   UNL     1      31.547 -11.769 -21.328  0.00  0.00    +0.001 C 
BRANCH  12  17
ATOM     16  O   UNL     1      31.311  -8.484 -23.918  0.00  0.00    -0.275 OA
ATOM     17  N   UNL     1      33.430  -9.416 -23.459  0.00  0.00    -0.257 N 
ATOM     18  C   UNL     1      34.902  -9.159 -23.518  0.00  0.00    +0.120 C 
ATOM     19  C   UNL     1      32.541  -8.384 -23.919  0.00  0.00    +0.230 C 
ATOM     20  C   UNL     1      33.143  -7.084 -24.399  0.00  0.00    +0.095 C 
ENDBRANCH  12  17
ENDBRANCH   4  10
BRANCH   6  22
ATOM     21  O   UNL     1      37.078 -18.485 -22.005  0.00  0.00    -0.290 OA
ATOM     22  C   UNL     1      35.974 -18.282 -21.463  0.00  0.00    +0.191 C 
BRANCH  22  24
ATOM     23  S   UNL     1      36.260 -20.434 -19.840  0.00  0.00    -0.084 S 
ATOM     24  C   UNL     1      35.295 -19.383 -20.738  0.00  0.00    +0.065 C 
ATOM     25  C   UNL     1      33.977 -19.643 -20.713  0.00  0.00    +0.010 C 
ATOM     26  C   UNL     1      33.716 -20.785 -19.904  0.00  0.00    +0.008 C 
ATOM     27  C   UNL     1      34.869 -21.314 -19.368  0.00  0.00    +0.036 C 
ENDBRANCH  22  24
ENDBRANCH   6  22
TORSDOF 4
ENDMDL
MODEL 3
REMARK VINA RESULT:     -10.7      4.663     10.169
REMARK  Name = 6450813
REMARK  4 active torsions:
REMARK  status: ('A' for Active; 'I' for Inactive)
REMARK    1  A    between atoms: C_4  and  C_10
REMARK    2  A    between atoms: C_6  and  C_22
REMARK    3  A    between atoms: C_12  and  N_17
REMARK    4  A    between atoms: C_22  and  C_24
REMARK                            x       y       z     vdW  Elec       q    Type
REMARK                         _______ _______ _______ _____ _____    ______ ____
ROOT
ATOM      1  N   UNL     1      35.561 -21.636 -17.963  0.00  0.00    -0.191 N 
ATOM      2  N   UNL     1      36.825 -21.371 -17.529  0.00  0.00    -0.179 NA
ATOM      3  N   UNL     1      33.619 -22.902 -17.298  0.00  0.00    -0.231 NA
ATOM      4  C   UNL     1      34.934 -21.174 -19.132  0.00  0.00    +0.143 C 
ATOM      5  C   UNL     1      34.897 -22.486 -17.074  0.00  0.00    +0.141 C 
ATOM      6  C   UNL     1      35.778 -22.748 -16.049  0.00  0.00    +0.161 C 
ATOM      7  C   UNL     1      33.673 -21.559 -19.392  0.00  0.00    +0.020 C 
ATOM      8  C   UNL     1      36.938 -22.041 -16.383  0.00  0.00    +0.106 C 
ATOM      9  C   UNL     1      33.064 -22.462 -18.384  0.00  0.00    +0.097 C 
ENDROOT
BRANCH   4  10
ATOM     10  C   UNL     1      35.617 -20.266 -20.072  0.00  0.00    +0.003 C 
ATOM     11  C   UNL     1      34.907 -19.685 -21.124  0.00  0.00    +0.013 C 
ATOM     12  C   UNL     1      35.552 -18.826 -22.012  0.00  0.00    +0.054 C 
ATOM     13  C   UNL     1      36.974 -19.988 -19.911  0.00  0.00    -0.002 C 
ATOM     14  C   UNL     1      36.910 -18.549 -21.851  0.00  0.00    +0.015 C 
ATOM     15  C   UNL     1      37.621 -19.129 -20.800  0.00  0.00    +0.001 C 
BRANCH  12  17
ATOM     16  O   UNL     1      35.374 -15.995 -22.590  0.00  0.00    -0.275 OA
ATOM     17  N   UNL     1      34.843 -18.245 -23.064  0.00  0.00    -0.257 N 
ATOM     18  C   UNL     1      34.139 -19.144 -24.030  0.00  0.00    +0.120 C 
ATOM     19  C   UNL     1      34.828 -16.830 -23.316  0.00  0.00    +0.230 C 
ATOM     20  C   UNL     1      34.135 -16.334 -24.564  0.00  0.00    +0.095 C 
ENDBRANCH  12  17
ENDBRANCH   4  10
BRANCH   6  22
ATOM     21  O   UNL     1      34.583 -23.346 -14.123  0.00  0.00    -0.290 OA
ATOM     22  C   UNL     1      35.522 -23.576 -14.910  0.00  0.00    +0.191 C 
BRANCH  22  24
ATOM     23  S   UNL     1      37.930 -24.437 -14.012  0.00  0.00    -0.084 S 
ATOM     24  C   UNL     1      36.411 -24.740 -14.677  0.00  0.00    +0.065 C 
ATOM     25  C   UNL     1      36.140 -26.030 -14.939  0.00  0.00    +0.010 C 
ATOM     26  C   UNL     1      37.247 -26.848 -14.575  0.00  0.00    +0.008 C 
ATOM     27  C   UNL     1      38.289 -26.111 -14.058  0.00  0.00    +0.036 C 
ENDBRANCH  22  24
ENDBRANCH   6  22
TORSDOF 4
ENDMDL
MODEL 4
REMARK VINA RESULT:     -10.5      3.028      8.088
REMARK  Name = 6450813
REMARK  4 active torsions:
REMARK  status: ('A' for Active; 'I' for Inactive)
REMARK    1  A    between atoms: C_4  and  C_10
REMARK    2  A    between atoms: C_6  and  C_22
REMARK    3  A    between atoms: C_12  and  N_17
REMARK    4  A    between atoms: C_22  and  C_24
REMARK                            x       y       z     vdW  Elec       q    Type
REMARK                         _______ _______ _______ _____ _____    ______ ____
ROOT
ATOM      1  N   UNL     1      34.541 -15.622 -22.398  0.00  0.00    -0.191 N 
ATOM      2  N   UNL     1      34.713 -15.272 -21.093  0.00  0.00    -0.179 NA
ATOM      3  N   UNL     1      34.920 -17.502 -23.861  0.00  0.00    -0.231 NA
ATOM      4  C   UNL     1      34.012 -14.842 -23.440  0.00  0.00    +0.143 C 
ATOM      5  C   UNL     1      34.982 -16.929 -22.626  0.00  0.00    +0.141 C 
ATOM      6  C   UNL     1      35.436 -17.406 -21.417  0.00  0.00    +0.161 C 
ATOM      7  C   UNL     1      33.932 -15.368 -24.674  0.00  0.00    +0.020 C 
ATOM      8  C   UNL     1      35.246 -16.349 -20.520  0.00  0.00    +0.106 C 
ATOM      9  C   UNL     1      34.429 -16.760 -24.805  0.00  0.00    +0.097 C 
ENDROOT
BRANCH   4  10
ATOM     10  C   UNL     1      33.530 -13.467 -23.212  0.00  0.00    +0.003 C 
ATOM     11  C   UNL     1      33.032 -13.099 -21.961  0.00  0.00    +0.013 C 
ATOM     12  C   UNL     1      32.577 -11.799 -21.745  0.00  0.00    +0.054 C 
ATOM     13  C   UNL     1      33.571 -12.533 -24.247  0.00  0.00    -0.002 C 
ATOM     14  C   UNL     1      32.618 -10.865 -22.781  0.00  0.00    +0.015 C 
ATOM     15  C   UNL     1      33.116 -11.232 -24.032  0.00  0.00    +0.001 C 
BRANCH  12  17
ATOM     16  O   UNL     1      31.387  -9.248 -21.068  0.00  0.00    -0.275 OA
ATOM     17  N   UNL     1      32.079 -11.431 -20.495  0.00  0.00    -0.257 N 
ATOM     18  C   UNL     1      32.102 -12.441 -19.393  0.00  0.00    +0.120 C 
ATOM     19  C   UNL     1      31.464 -10.157 -20.237  0.00  0.00    +0.230 C 
ATOM     20  C   UNL     1      30.842  -9.926 -18.880  0.00  0.00    +0.095 C 
ENDBRANCH  12  17
ENDBRANCH   4  10
BRANCH   6  22
ATOM     21  O   UNL     1      37.146 -19.008 -21.500  0.00  0.00    -0.290 OA
ATOM     22  C   UNL     1      35.979 -18.708 -21.177  0.00  0.00    +0.191 C 
BRANCH  22  24
ATOM     23  S   UNL     1      35.871 -20.907 -19.595  0.00  0.00    -0.084 S 
ATOM     24  C   UNL     1      35.114 -19.717 -20.519  0.00  0.00    +0.065 C 
ATOM     25  C   UNL     1      33.774 -19.793 -20.575  0.00  0.00    +0.010 C 
ATOM     26  C   UNL     1      33.311 -20.902 -19.811  0.00  0.00    +0.008 C 
ATOM     27  C   UNL     1      34.347 -21.595 -19.224  0.00  0.00    +0.036 C 
ENDBRANCH  22  24
ENDBRANCH   6  22
TORSDOF 4
ENDMDL
MODEL 5
REMARK VINA RESULT:     -10.4      3.325      5.679
REMARK  Name = 6450813
REMARK  4 active torsions:
REMARK  status: ('A' for Active; 'I' for Inactive)
REMARK    1  A    between atoms: C_4  and  C_10
REMARK    2  A    between atoms: C_6  and  C_22
REMARK    3  A    between atoms: C_12  and  N_17
REMARK    4  A    between atoms: C_22  and  C_24
REMARK                            x       y       z     vdW  Elec       q    Type
REMARK                         _______ _______ _______ _____ _____    ______ ____
ROOT
ATOM      1  N   UNL     1      35.419 -20.467 -19.519  0.00  0.00    -0.191 N 
ATOM      2  N   UNL     1      36.704 -20.018 -19.461  0.00  0.00    -0.179 NA
ATOM      3  N   UNL     1      33.438 -20.193 -20.867  0.00  0.00    -0.231 NA
ATOM      4  C   UNL     1      34.775 -21.362 -18.648  0.00  0.00    +0.143 C 
ATOM      5  C   UNL     1      34.743 -19.902 -20.605  0.00  0.00    +0.141 C 
ATOM      6  C   UNL     1      35.644 -19.083 -21.246  0.00  0.00    +0.161 C 
ATOM      7  C   UNL     1      33.488 -21.676 -18.869  0.00  0.00    +0.020 C 
ATOM      8  C   UNL     1      36.824 -19.194 -20.501  0.00  0.00    +0.106 C 
ATOM      9  C   UNL     1      32.867 -21.021 -20.047  0.00  0.00    +0.097 C 
ENDROOT
BRANCH   4  10
ATOM     10  C   UNL     1      35.479 -21.975 -17.506  0.00  0.00    +0.003 C 
ATOM     11  C   UNL     1      34.785 -22.797 -16.617  0.00  0.00    +0.013 C 
ATOM     12  C   UNL     1      35.451 -23.377 -15.538  0.00  0.00    +0.054 C 
ATOM     13  C   UNL     1      36.840 -21.735 -17.315  0.00  0.00    -0.002 C 
ATOM     14  C   UNL     1      36.811 -23.136 -15.347  0.00  0.00    +0.015 C 
ATOM     15  C   UNL     1      37.506 -22.315 -16.236  0.00  0.00    +0.001 C 
BRANCH  12  17
ATOM     16  O   UNL     1      32.819 -22.867 -14.446  0.00  0.00    -0.275 OA
ATOM     17  N   UNL     1      34.757 -24.198 -14.648  0.00  0.00    -0.257 N 
ATOM     18  C   UNL     1      35.383 -25.493 -14.238  0.00  0.00    +0.120 C 
ATOM     19  C   UNL     1      33.433 -23.902 -14.173  0.00  0.00    +0.230 C 
ATOM     20  C   UNL     1      32.733 -24.934 -13.319  0.00  0.00    +0.095 C 
ENDBRANCH  12  17
ENDBRANCH   4  10
BRANCH   6  22
ATOM     21  O   UNL     1      35.409 -18.796 -23.560  0.00  0.00    -0.290 OA
ATOM     22  C   UNL     1      35.387 -18.301 -22.417  0.00  0.00    +0.191 C 
BRANCH  22  24
ATOM     23  S   UNL     1      34.829 -15.945 -23.635  0.00  0.00    -0.084 S 
ATOM     24  C   UNL     1      35.084 -16.860 -22.242  0.00  0.00    +0.065 C 
ATOM     25  C   UNL     1      34.986 -16.188 -21.083  0.00  0.00    +0.010 C 
ATOM     26  C   UNL     1      34.681 -14.820 -21.331  0.00  0.00    +0.008 C 
ATOM     27  C   UNL     1      34.567 -14.550 -22.677  0.00  0.00    +0.036 C 
ENDBRANCH  22  24
ENDBRANCH   6  22
TORSDOF 4
ENDMDL
MODEL 6
REMARK VINA RESULT:     -10.4      3.338      9.026
REMARK  Name = 6450813
REMARK  4 active torsions:
REMARK  status: ('A' for Active; 'I' for Inactive)
REMARK    1  A    between atoms: C_4  and  C_10
REMARK    2  A    between atoms: C_6  and  C_22
REMARK    3  A    between atoms: C_12  and  N_17
REMARK    4  A    between atoms: C_22  and  C_24
REMARK                            x       y       z     vdW  Elec       q    Type
REMARK                         _______ _______ _______ _____ _____    ______ ____
ROOT
ATOM      1  N   UNL     1      33.687 -14.169 -21.776  0.00  0.00    -0.191 N 
ATOM      2  N   UNL     1      34.097 -14.488 -20.516  0.00  0.00    -0.179 NA
ATOM      3  N   UNL     1      33.782 -15.054 -24.018  0.00  0.00    -0.231 NA
ATOM      4  C   UNL     1      32.981 -13.027 -22.192  0.00  0.00    +0.143 C 
ATOM      5  C   UNL     1      34.073 -15.154 -22.690  0.00  0.00    +0.141 C 
ATOM      6  C   UNL     1      34.737 -16.121 -21.969  0.00  0.00    +0.161 C 
ATOM      7  C   UNL     1      32.674 -12.888 -23.493  0.00  0.00    +0.020 C 
ATOM      8  C   UNL     1      34.720 -15.658 -20.648  0.00  0.00    +0.106 C 
ATOM      9  C   UNL     1      33.132 -13.990 -24.376  0.00  0.00    +0.097 C 
ENDROOT
BRANCH   4  10
ATOM     10  C   UNL     1      32.557 -11.987 -21.238  0.00  0.00    +0.003 C 
ATOM     11  C   UNL     1      32.449 -10.659 -21.654  0.00  0.00    +0.013 C 
ATOM     12  C   UNL     1      32.047  -9.675 -20.752  0.00  0.00    +0.054 C 
ATOM     13  C   UNL     1      32.262 -12.329 -19.918  0.00  0.00    -0.002 C 
ATOM     14  C   UNL     1      31.753 -10.017 -19.432  0.00  0.00    +0.015 C 
ATOM     15  C   UNL     1      31.861 -11.345 -19.015  0.00  0.00    +0.001 C 
BRANCH  12  17
ATOM     16  O   UNL     1      33.198  -7.375 -19.423  0.00  0.00    -0.275 OA
ATOM     17  N   UNL     1      31.939  -8.347 -21.167  0.00  0.00    -0.257 N 
ATOM     18  C   UNL     1      31.210  -8.055 -22.439  0.00  0.00    +0.120 C 
ATOM     19  C   UNL     1      32.570  -7.254 -20.478  0.00  0.00    +0.230 C 
ATOM     20  C   UNL     1      32.494  -5.879 -21.100  0.00  0.00    +0.095 C 
ENDBRANCH  12  17
ENDBRANCH   4  10
BRANCH   6  22
ATOM     21  O   UNL     1      35.470 -17.494 -23.722  0.00  0.00    -0.290 OA
ATOM     22  C   UNL     1      35.308 -17.322 -22.497  0.00  0.00    +0.191 C 
BRANCH  22  24
ATOM     23  S   UNL     1      34.529 -19.464 -21.030  0.00  0.00    -0.084 S 
ATOM     24  C   UNL     1      35.716 -18.381 -21.543  0.00  0.00    +0.065 C 
ATOM     25  C   UNL     1      36.942 -18.581 -21.032  0.00  0.00    +0.010 C 
ATOM     26  C   UNL     1      36.932 -19.700 -20.152  0.00  0.00    +0.008 C 
ATOM     27  C   UNL     1      35.683 -20.274 -20.058  0.00  0.00    +0.036 C 
ENDBRANCH  22  24
ENDBRANCH   6  22
TORSDOF 4
ENDMDL
MODEL 7
REMARK VINA RESULT:     -10.4      5.747      9.237
REMARK  Name = 6450813
REMARK  4 active torsions:
REMARK  status: ('A' for Active; 'I' for Inactive)
REMARK    1  A    between atoms: C_4  and  C_10
REMARK    2  A    between atoms: C_6  and  C_22
REMARK    3  A    between atoms: C_12  and  N_17
REMARK    4  A    between atoms: C_22  and  C_24
REMARK                            x       y       z     vdW  Elec       q    Type
REMARK                         _______ _______ _______ _____ _____    ______ ____
ROOT
ATOM      1  N   UNL     1      34.335 -22.892 -16.481  0.00  0.00    -0.191 N 
ATOM      2  N   UNL     1      35.654 -22.688 -16.755  0.00  0.00    -0.179 NA
ATOM      3  N   UNL     1      32.168 -22.435 -17.437  0.00  0.00    -0.231 NA
ATOM      4  C   UNL     1      33.773 -23.527 -15.361  0.00  0.00    +0.143 C 
ATOM      5  C   UNL     1      33.528 -22.361 -17.491  0.00  0.00    +0.141 C 
ATOM      6  C   UNL     1      34.378 -21.817 -18.427  0.00  0.00    +0.161 C 
ATOM      7  C   UNL     1      32.436 -23.622 -15.266  0.00  0.00    +0.020 C 
ATOM      8  C   UNL     1      35.663 -22.047 -17.922  0.00  0.00    +0.106 C 
ATOM      9  C   UNL     1      31.675 -23.024 -16.392  0.00  0.00    +0.097 C 
ENDROOT
BRANCH   4  10
ATOM     10  C   UNL     1      34.611 -24.104 -14.294  0.00  0.00    +0.003 C 
ATOM     11  C   UNL     1      35.811 -24.741 -14.615  0.00  0.00    +0.013 C 
ATOM     12  C   UNL     1      36.604 -25.286 -13.606  0.00  0.00    +0.054 C 
ATOM     13  C   UNL     1      34.207 -24.013 -12.962  0.00  0.00    -0.002 C 
ATOM     14  C   UNL     1      36.199 -25.195 -12.275  0.00  0.00    +0.015 C 
ATOM     15  C   UNL     1      34.999 -24.559 -11.952  0.00  0.00    +0.001 C 
BRANCH  12  17
ATOM     16  O   UNL     1      39.250 -24.467 -12.762  0.00  0.00    -0.275 OA
ATOM     17  N   UNL     1      37.804 -25.924 -13.927  0.00  0.00    -0.257 N 
ATOM     18  C   UNL     1      37.749 -27.177 -14.739  0.00  0.00    +0.120 C 
ATOM     19  C   UNL     1      39.083 -25.483 -13.440  0.00  0.00    +0.230 C 
ATOM     20  C   UNL     1      40.294 -26.334 -13.745  0.00  0.00    +0.095 C 
ENDBRANCH  12  17
ENDBRANCH   4  10
BRANCH   6  22
ATOM     21  O   UNL     1      32.857 -21.316 -20.139  0.00  0.00    -0.290 OA
ATOM     22  C   UNL     1      33.989 -21.163 -19.640  0.00  0.00    +0.191 C 
BRANCH  22  24
ATOM     23  S   UNL     1      34.481 -19.476 -21.703  0.00  0.00    -0.084 S 
ATOM     24  C   UNL     1      34.975 -20.278 -20.305  0.00  0.00    +0.065 C 
ATOM     25  C   UNL     1      36.238 -20.037 -19.915  0.00  0.00    +0.010 C 
ATOM     26  C   UNL     1      36.866 -19.130 -20.815  0.00  0.00    +0.008 C 
ATOM     27  C   UNL     1      36.024 -18.745 -21.834  0.00  0.00    +0.036 C 
ENDBRANCH  22  24
ENDBRANCH   6  22
TORSDOF 4
ENDMDL
MODEL 8
REMARK VINA RESULT:     -10.4      4.477     10.856
REMARK  Name = 6450813
REMARK  4 active torsions:
REMARK  status: ('A' for Active; 'I' for Inactive)
REMARK    1  A    between atoms: C_4  and  C_10
REMARK    2  A    between atoms: C_6  and  C_22
REMARK    3  A    between atoms: C_12  and  N_17
REMARK    4  A    between atoms: C_22  and  C_24
REMARK                            x       y       z     vdW  Elec       q    Type
REMARK                         _______ _______ _______ _____ _____    ______ ____
ROOT
ATOM      1  N   UNL     1      32.743 -10.657 -22.469  0.00  0.00    -0.191 N 
ATOM      2  N   UNL     1      33.705 -10.269 -23.353  0.00  0.00    -0.179 NA
ATOM      3  N   UNL     1      31.588 -12.656 -21.773  0.00  0.00    -0.231 NA
ATOM      4  C   UNL     1      32.023  -9.855 -21.568  0.00  0.00    +0.143 C 
ATOM      5  C   UNL     1      32.514 -12.033 -22.555  0.00  0.00    +0.141 C 
ATOM      6  C   UNL     1      33.370 -12.515 -23.520  0.00  0.00    +0.161 C 
ATOM      7  C   UNL     1      31.100 -10.428 -20.778  0.00  0.00    +0.020 C 
ATOM      8  C   UNL     1      34.071 -11.391 -23.971  0.00  0.00    +0.106 C 
ATOM      9  C   UNL     1      30.936 -11.893 -20.951  0.00  0.00    +0.097 C 
ENDROOT
BRANCH   4  10
ATOM     10  C   UNL     1      32.264  -8.404 -21.457  0.00  0.00    +0.003 C 
ATOM     11  C   UNL     1      32.016  -7.569 -22.548  0.00  0.00    +0.013 C 
ATOM     12  C   UNL     1      32.242  -6.198 -22.443  0.00  0.00    +0.054 C 
ATOM     13  C   UNL     1      32.738  -7.865 -20.262  0.00  0.00    -0.002 C 
ATOM     14  C   UNL     1      32.718  -5.659 -21.247  0.00  0.00    +0.015 C 
ATOM     15  C   UNL     1      32.966  -6.493 -20.156  0.00  0.00    +0.001 C 
BRANCH  12  17
ATOM     16  O   UNL     1      30.066  -4.304 -22.682  0.00  0.00    -0.275 OA
ATOM     17  N   UNL     1      31.996  -5.362 -23.533  0.00  0.00    -0.257 N 
ATOM     18  C   UNL     1      32.954  -5.387 -24.681  0.00  0.00    +0.120 C 
ATOM     19  C   UNL     1      30.915  -4.415 -23.570  0.00  0.00    +0.230 C 
ATOM     20  C   UNL     1      30.831  -3.472 -24.748  0.00  0.00    +0.095 C 
ENDBRANCH  12  17
ENDBRANCH   4  10
BRANCH   6  22
ATOM     21  O   UNL     1      33.031 -14.271 -25.035  0.00  0.00    -0.290 OA
ATOM     22  C   UNL     1      33.482 -13.878 -23.941  0.00  0.00    +0.191 C 
BRANCH  22  24
ATOM     23  S   UNL     1      34.823 -16.224 -23.729  0.00  0.00    -0.084 S 
ATOM     24  C   UNL     1      34.163 -14.835 -23.037  0.00  0.00    +0.065 C 
ATOM     25  C   UNL     1      34.318 -14.722 -21.707  0.00  0.00    +0.010 C 
ATOM     26  C   UNL     1      35.027 -15.847 -21.196  0.00  0.00    +0.008 C 
ATOM     27  C   UNL     1      35.362 -16.741 -22.188  0.00  0.00    +0.036 C 
ENDBRANCH  22  24
ENDBRANCH   6  22
TORSDOF 4
ENDMDL
MODEL 9
REMARK VINA RESULT:     -10.3      3.449      8.899
REMARK  Name = 6450813
REMARK  4 active torsions:
REMARK  status: ('A' for Active; 'I' for Inactive)
REMARK    1  A    between atoms: C_4  and  C_10
REMARK    2  A    between atoms: C_6  and  C_22
REMARK    3  A    between atoms: C_12  and  N_17
REMARK    4  A    between atoms: C_22  and  C_24
REMARK                            x       y       z     vdW  Elec       q    Type
REMARK                         _______ _______ _______ _____ _____    ______ ____
ROOT
ATOM      1  N   UNL     1      34.433 -20.900 -19.583  0.00  0.00    -0.191 N 
ATOM      2  N   UNL     1      33.093 -20.828 -19.816  0.00  0.00    -0.179 NA
ATOM      3  N   UNL     1      35.987 -22.046 -18.138  0.00  0.00    -0.231 NA
ATOM      4  C   UNL     1      35.461 -20.190 -20.225  0.00  0.00    +0.143 C 
ATOM      5  C   UNL     1      34.713 -21.808 -18.558  0.00  0.00    +0.141 C 
ATOM      6  C   UNL     1      33.503 -22.323 -18.149  0.00  0.00    +0.161 C 
ATOM      7  C   UNL     1      36.733 -20.393 -19.842  0.00  0.00    +0.020 C 
ATOM      8  C   UNL     1      32.552 -21.687 -18.954  0.00  0.00    +0.106 C 
ATOM      9  C   UNL     1      36.917 -21.377 -18.746  0.00  0.00    +0.097 C 
ENDROOT
BRANCH   4  10
ATOM     10  C   UNL     1      35.183 -19.238 -21.317  0.00  0.00    +0.003 C 
ATOM     11  C   UNL     1      35.071 -17.874 -21.043  0.00  0.00    +0.013 C 
ATOM     12  C   UNL     1      34.808 -16.974 -22.075  0.00  0.00    +0.054 C 
ATOM     13  C   UNL     1      35.032 -19.701 -22.624  0.00  0.00    -0.002 C 
ATOM     14  C   UNL     1      34.657 -17.438 -23.382  0.00  0.00    +0.015 C 
ATOM     15  C   UNL     1      34.769 -18.801 -23.657  0.00  0.00    +0.001 C 
BRANCH  12  17
ATOM     16  O   UNL     1      34.393 -14.875 -24.025  0.00  0.00    -0.275 OA
ATOM     17  N   UNL     1      34.694 -15.610 -21.803  0.00  0.00    -0.257 N 
ATOM     18  C   UNL     1      34.737 -15.163 -20.377  0.00  0.00    +0.120 C 
ATOM     19  C   UNL     1      34.450 -14.623 -22.818  0.00  0.00    +0.230 C 
ATOM     20  C   UNL     1      34.212 -13.195 -22.384  0.00  0.00    +0.095 C 
ENDBRANCH  12  17
ENDBRANCH   4  10
BRANCH   6  22
ATOM     21  O   UNL     1      34.030 -24.307 -17.016  0.00  0.00    -0.290 OA
ATOM     22  C   UNL     1      33.308 -23.296 -17.117  0.00  0.00    +0.191 C 
BRANCH  22  24
ATOM     23  S   UNL     1      32.595 -23.145 -14.507  0.00  0.00    -0.084 S 
ATOM     24  C   UNL     1      32.209 -23.074 -16.146  0.00  0.00    +0.065 C 
ATOM     25  C   UNL     1      30.921 -22.818 -16.427  0.00  0.00    +0.010 C 
ATOM     26  C   UNL     1      30.175 -22.666 -15.223  0.00  0.00    +0.008 C 
ATOM     27  C   UNL     1      30.963 -22.819 -14.104  0.00  0.00    +0.036 C 
ENDBRANCH  22  24
ENDBRANCH   6  22
TORSDOF 4
ENDMDL
