MODEL 1
REMARK VINA RESULT:     -12.0      0.000      0.000
REMARK  Name = 6852141
REMARK  6 active torsions:
REMARK  status: ('A' for Active; 'I' for Inactive)
REMARK    1  A    between atoms: C_3  and  N_18
REMARK    2  A    between atoms: C_7  and  C_31
REMARK    3  A    between atoms: C_9  and  C_13
REMARK    4  A    between atoms: C_19  and  C_21
REMARK    5  A    between atoms: C_24  and  O_28
REMARK    6  A    between atoms: C_31  and  O_32
REMARK                            x       y       z     vdW  Elec       q    Type
REMARK                         _______ _______ _______ _____ _____    ______ ____
ROOT
ATOM      1  C   UNL     1      31.984 -23.746 -15.026  0.00  0.00    +0.014 C 
ATOM      2  C   UNL     1      31.817 -24.538 -13.865  0.00  0.00    +0.001 C 
ATOM      3  C   UNL     1      33.265 -23.276 -15.358  0.00  0.00    +0.051 C 
ATOM      4  C   UNL     1      30.865 -23.447 -15.820  0.00  0.00    +0.004 C 
ATOM      5  C   UNL     1      32.936 -24.838 -13.071  0.00  0.00    +0.007 C 
ATOM      6  C   UNL     1      34.366 -23.584 -14.558  0.00  0.00    +0.021 C 
ATOM      7  C   UNL     1      34.201 -24.363 -13.416  0.00  0.00    +0.077 C 
ATOM      8  C   UNL     1      30.536 -25.008 -13.533  0.00  0.00    +0.000 C 
ATOM      9  C   UNL     1      29.600 -23.923 -15.474  0.00  0.00    +0.031 C 
ATOM     10  C   UNL     1      29.436 -24.702 -14.333  0.00  0.00    +0.003 C 
ENDROOT
BRANCH   9  13
ATOM     11  N   UNL     1      27.942 -22.309 -16.377  0.00  0.00    -0.343 N 
ATOM     12  N   UNL     1      27.868 -24.555 -17.017  0.00  0.00    -0.285 NA
ATOM     13  C   UNL     1      28.452 -23.604 -16.308  0.00  0.00    +0.117 C 
ATOM     14  H   UNL     1      27.164 -22.115 -16.948  0.00  0.00    +0.144 HD
ATOM     15  H   UNL     1      28.362 -21.587 -15.854  0.00  0.00    +0.144 HD
ATOM     16  H   UNL     1      27.091 -24.342 -17.581  0.00  0.00    +0.188 HD
ENDBRANCH   9  13
BRANCH   3  18
ATOM     17  O   UNL     1      33.813 -24.075 -18.195  0.00  0.00    -0.270 OA
ATOM     18  N   UNL     1      33.491 -22.487 -16.493  0.00  0.00    -0.280 N 
ATOM     19  C   UNL     1      33.743 -22.917 -17.799  0.00  0.00    +0.249 C 
ATOM     20  H   UNL     1      33.470 -21.513 -16.354  0.00  0.00    +0.155 HD
BRANCH  19  21
ATOM     21  C   UNL     1      33.973 -21.832 -18.788  0.00  0.00    +0.053 C 
ATOM     22  C   UNL     1      35.239 -21.312 -18.967  0.00  0.00    +0.016 C 
ATOM     23  C   UNL     1      32.885 -21.376 -19.507  0.00  0.00    +0.004 C 
ATOM     24  C   UNL     1      35.425 -20.294 -19.903  0.00  0.00    +0.130 C 
ATOM     25  C   UNL     1      36.407 -21.817 -18.181  0.00  0.00    +0.034 C 
ATOM     26  C   UNL     1      33.071 -20.358 -20.442  0.00  0.00    +0.003 C 
ATOM     27  C   UNL     1      34.341 -19.818 -20.640  0.00  0.00    +0.036 C 
BRANCH  24  28
ATOM     28  O   UNL     1      36.659 -19.754 -20.112  0.00  0.00    -0.506 OA
ATOM     29  H   UNL     1      36.795 -19.157 -20.821  0.00  0.00    +0.292 HD
ENDBRANCH  24  28
ENDBRANCH  19  21
ENDBRANCH   3  18
BRANCH   7  31
ATOM     30  O   UNL     1      36.520 -24.727 -12.989  0.00  0.00    -0.245 OA
ATOM     31  C   UNL     1      35.351 -24.682 -12.583  0.00  0.00    +0.341 C 
BRANCH  31  32
ATOM     32  O   UNL     1      34.981 -24.926 -11.288  0.00  0.00    -0.441 OA
ATOM     33  C   UNL     1      35.808 -24.366 -10.263  0.00  0.00    +0.256 C 
ENDBRANCH  31  32
ENDBRANCH   7  31
TORSDOF 6
ENDMDL
MODEL 2
REMARK VINA RESULT:     -11.8      1.026      1.520
REMARK  Name = 6852141
REMARK  6 active torsions:
REMARK  status: ('A' for Active; 'I' for Inactive)
REMARK    1  A    between atoms: C_3  and  N_18
REMARK    2  A    between atoms: C_7  and  C_31
REMARK    3  A    between atoms: C_9  and  C_13
REMARK    4  A    between atoms: C_19  and  C_21
REMARK    5  A    between atoms: C_24  and  O_28
REMARK    6  A    between atoms: C_31  and  O_32
REMARK                            x       y       z     vdW  Elec       q    Type
REMARK                         _______ _______ _______ _____ _____    ______ ____
ROOT
ATOM      1  C   UNL     1      32.601 -23.609 -15.033  0.00  0.00    +0.014 C 
ATOM      2  C   UNL     1      32.530 -24.458 -13.904  0.00  0.00    +0.001 C 
ATOM      3  C   UNL     1      33.858 -23.283 -15.569  0.00  0.00    +0.051 C 
ATOM      4  C   UNL     1      31.414 -23.110 -15.593  0.00  0.00    +0.004 C 
ATOM      5  C   UNL     1      33.717 -24.958 -13.344  0.00  0.00    +0.007 C 
ATOM      6  C   UNL     1      35.027 -23.788 -15.000  0.00  0.00    +0.021 C 
ATOM      7  C   UNL     1      34.957 -24.624 -13.889  0.00  0.00    +0.077 C 
ATOM      8  C   UNL     1      31.273 -24.784 -13.368  0.00  0.00    +0.000 C 
ATOM      9  C   UNL     1      30.175 -23.444 -15.048  0.00  0.00    +0.031 C 
ATOM     10  C   UNL     1      30.104 -24.280 -13.938  0.00  0.00    +0.003 C 
ENDROOT
BRANCH   9  13
ATOM     11  N   UNL     1      28.557 -23.287 -16.926  0.00  0.00    -0.343 N 
ATOM     12  N   UNL     1      28.202 -22.074 -14.960  0.00  0.00    -0.285 NA
ATOM     13  C   UNL     1      28.955 -22.920 -15.641  0.00  0.00    +0.117 C 
ATOM     14  H   UNL     1      27.728 -22.920 -17.308  0.00  0.00    +0.144 HD
ATOM     15  H   UNL     1      29.107 -23.914 -17.451  0.00  0.00    +0.144 HD
ATOM     16  H   UNL     1      27.376 -21.718 -15.360  0.00  0.00    +0.188 HD
ENDBRANCH   9  13
BRANCH   3  18
ATOM     17  O   UNL     1      33.885 -23.940 -18.493  0.00  0.00    -0.270 OA
ATOM     18  N   UNL     1      33.991 -22.446 -16.684  0.00  0.00    -0.280 N 
ATOM     19  C   UNL     1      33.997 -22.810 -18.034  0.00  0.00    +0.249 C 
ATOM     20  H   UNL     1      34.094 -21.485 -16.494  0.00  0.00    +0.155 HD
BRANCH  19  21
ATOM     21  C   UNL     1      34.187 -21.689 -18.991  0.00  0.00    +0.053 C 
ATOM     22  C   UNL     1      35.439 -21.141 -19.179  0.00  0.00    +0.016 C 
ATOM     23  C   UNL     1      33.076 -21.229 -19.670  0.00  0.00    +0.004 C 
ATOM     24  C   UNL     1      35.588 -20.090 -20.084  0.00  0.00    +0.130 C 
ATOM     25  C   UNL     1      36.633 -21.652 -18.436  0.00  0.00    +0.034 C 
ATOM     26  C   UNL     1      33.224 -20.178 -20.574  0.00  0.00    +0.003 C 
ATOM     27  C   UNL     1      34.480 -19.609 -20.781  0.00  0.00    +0.036 C 
BRANCH  24  28
ATOM     28  O   UNL     1      36.807 -19.521 -20.301  0.00  0.00    -0.506 OA
ATOM     29  H   UNL     1      37.313 -19.769 -21.050  0.00  0.00    +0.292 HD
ENDBRANCH  24  28
ENDBRANCH  19  21
ENDBRANCH   3  18
BRANCH   7  31
ATOM     30  O   UNL     1      36.385 -25.234 -12.078  0.00  0.00    -0.245 OA
ATOM     31  C   UNL     1      36.178 -25.149 -13.296  0.00  0.00    +0.341 C 
BRANCH  31  32
ATOM     32  O   UNL     1      37.074 -25.540 -14.254  0.00  0.00    -0.441 OA
ATOM     33  C   UNL     1      36.927 -26.866 -14.775  0.00  0.00    +0.256 C 
ENDBRANCH  31  32
ENDBRANCH   7  31
TORSDOF 6
ENDMDL
MODEL 3
REMARK VINA RESULT:     -11.6      2.434      4.984
REMARK  Name = 6852141
REMARK  6 active torsions:
REMARK  status: ('A' for Active; 'I' for Inactive)
REMARK    1  A    between atoms: C_3  and  N_18
REMARK    2  A    between atoms: C_7  and  C_31
REMARK    3  A    between atoms: C_9  and  C_13
REMARK    4  A    between atoms: C_19  and  C_21
REMARK    5  A    between atoms: C_24  and  O_28
REMARK    6  A    between atoms: C_31  and  O_32
REMARK                            x       y       z     vdW  Elec       q    Type
REMARK                         _______ _______ _______ _____ _____    ______ ____
ROOT
ATOM      1  C   UNL     1      33.392 -23.498 -15.019  0.00  0.00    +0.014 C 
ATOM      2  C   UNL     1      32.853 -24.295 -13.981  0.00  0.00    +0.001 C 
ATOM      3  C   UNL     1      32.539 -23.007 -16.021  0.00  0.00    +0.051 C 
ATOM      4  C   UNL     1      34.767 -23.217 -15.024  0.00  0.00    +0.004 C 
ATOM      5  C   UNL     1      31.477 -24.577 -13.974  0.00  0.00    +0.007 C 
ATOM      6  C   UNL     1      31.174 -23.297 -15.998  0.00  0.00    +0.021 C 
ATOM      7  C   UNL     1      30.644 -24.081 -14.978  0.00  0.00    +0.077 C 
ATOM      8  C   UNL     1      33.706 -24.787 -12.979  0.00  0.00    +0.000 C 
ATOM      9  C   UNL     1      35.600 -23.713 -14.021  0.00  0.00    +0.031 C 
ATOM     10  C   UNL     1      35.070 -24.496 -13.000  0.00  0.00    +0.003 C 
ENDROOT
BRANCH   9  13
ATOM     11  N   UNL     1      37.740 -23.381 -15.236  0.00  0.00    -0.343 N 
ATOM     12  N   UNL     1      37.659 -23.161 -12.911  0.00  0.00    -0.285 NA
ATOM     13  C   UNL     1      37.022 -23.410 -14.042  0.00  0.00    +0.117 C 
ATOM     14  H   UNL     1      38.702 -23.174 -15.227  0.00  0.00    +0.144 HD
ATOM     15  H   UNL     1      37.283 -23.567 -16.089  0.00  0.00    +0.144 HD
ATOM     16  H   UNL     1      38.621 -22.956 -12.922  0.00  0.00    +0.188 HD
ENDBRANCH   9  13
BRANCH   3  18
ATOM     17  O   UNL     1      33.852 -23.795 -18.598  0.00  0.00    -0.270 OA
ATOM     18  N   UNL     1      33.015 -22.216 -17.074  0.00  0.00    -0.280 N 
ATOM     19  C   UNL     1      33.622 -22.640 -18.258  0.00  0.00    +0.249 C 
ATOM     20  H   UNL     1      32.909 -21.243 -16.965  0.00  0.00    +0.155 HD
BRANCH  19  21
ATOM     21  C   UNL     1      34.050 -21.551 -19.175  0.00  0.00    +0.053 C 
ATOM     22  C   UNL     1      35.362 -21.125 -19.184  0.00  0.00    +0.016 C 
ATOM     23  C   UNL     1      33.093 -20.996 -20.003  0.00  0.00    +0.004 C 
ATOM     24  C   UNL     1      35.734 -20.101 -20.055  0.00  0.00    +0.130 C 
ATOM     25  C   UNL     1      36.386 -21.738 -18.281  0.00  0.00    +0.034 C 
ATOM     26  C   UNL     1      33.466 -19.972 -20.874  0.00  0.00    +0.003 C 
ATOM     27  C   UNL     1      34.786 -19.526 -20.899  0.00  0.00    +0.036 C 
BRANCH  24  28
ATOM     28  O   UNL     1      37.021 -19.652 -20.096  0.00  0.00    -0.506 OA
ATOM     29  H   UNL     1      37.196 -18.731 -20.066  0.00  0.00    +0.292 HD
ENDBRANCH  24  28
ENDBRANCH  19  21
ENDBRANCH   3  18
BRANCH   7  31
ATOM     30  O   UNL     1      28.686 -25.186 -14.182  0.00  0.00    -0.245 OA
ATOM     31  C   UNL     1      29.221 -24.382 -14.957  0.00  0.00    +0.341 C 
BRANCH  31  32
ATOM     32  O   UNL     1      28.541 -23.665 -15.904  0.00  0.00    -0.441 OA
ATOM     33  C   UNL     1      27.572 -22.724 -15.431  0.00  0.00    +0.256 C 
ENDBRANCH  31  32
ENDBRANCH   7  31
TORSDOF 6
ENDMDL
MODEL 4
REMARK VINA RESULT:     -11.5      2.498      5.292
REMARK  Name = 6852141
REMARK  6 active torsions:
REMARK  status: ('A' for Active; 'I' for Inactive)
REMARK    1  A    between atoms: C_3  and  N_18
REMARK    2  A    between atoms: C_7  and  C_31
REMARK    3  A    between atoms: C_9  and  C_13
REMARK    4  A    between atoms: C_19  and  C_21
REMARK    5  A    between atoms: C_24  and  O_28
REMARK    6  A    between atoms: C_31  and  O_32
REMARK                            x       y       z     vdW  Elec       q    Type
REMARK                         _______ _______ _______ _____ _____    ______ ____
ROOT
ATOM      1  C   UNL     1      32.131 -23.495 -15.214  0.00  0.00    +0.014 C 
ATOM      2  C   UNL     1      31.095 -24.107 -14.470  0.00  0.00    +0.001 C 
ATOM      3  C   UNL     1      31.812 -22.796 -16.390  0.00  0.00    +0.051 C 
ATOM      4  C   UNL     1      33.456 -23.600 -14.762  0.00  0.00    +0.004 C 
ATOM      5  C   UNL     1      29.770 -24.003 -14.922  0.00  0.00    +0.007 C 
ATOM      6  C   UNL     1      30.489 -22.701 -16.823  0.00  0.00    +0.021 C 
ATOM      7  C   UNL     1      29.470 -23.304 -16.091  0.00  0.00    +0.077 C 
ATOM      8  C   UNL     1      31.415 -24.808 -13.295  0.00  0.00    +0.000 C 
ATOM      9  C   UNL     1      33.756 -24.299 -13.592  0.00  0.00    +0.031 C 
ATOM     10  C   UNL     1      32.737 -24.901 -12.860  0.00  0.00    +0.003 C 
ENDROOT
BRANCH   9  13
ATOM     11  N   UNL     1      35.784 -23.311 -12.555  0.00  0.00    -0.343 N 
ATOM     12  N   UNL     1      35.794 -25.533 -13.276  0.00  0.00    -0.285 NA
ATOM     13  C   UNL     1      35.134 -24.397 -13.137  0.00  0.00    +0.117 C 
ATOM     14  H   UNL     1      36.717 -23.399 -12.254  0.00  0.00    +0.144 HD
ATOM     15  H   UNL     1      35.310 -22.454 -12.445  0.00  0.00    +0.144 HD
ATOM     16  H   UNL     1      36.727 -25.602 -12.969  0.00  0.00    +0.188 HD
ENDBRANCH   9  13
BRANCH   3  18
ATOM     17  O   UNL     1      33.611 -23.919 -18.507  0.00  0.00    -0.270 OA
ATOM     18  N   UNL     1      32.794 -22.171 -17.168  0.00  0.00    -0.280 N 
ATOM     19  C   UNL     1      33.608 -22.748 -18.146  0.00  0.00    +0.249 C 
ATOM     20  H   UNL     1      32.928 -21.210 -17.005  0.00  0.00    +0.155 HD
BRANCH  19  21
ATOM     21  C   UNL     1      34.584 -21.825 -18.783  0.00  0.00    +0.053 C 
ATOM     22  C   UNL     1      34.158 -20.894 -19.707  0.00  0.00    +0.016 C 
ATOM     23  C   UNL     1      35.910 -21.939 -18.414  0.00  0.00    +0.004 C 
ATOM     24  C   UNL     1      35.096 -20.040 -20.288  0.00  0.00    +0.130 C 
ATOM     25  C   UNL     1      32.717 -20.783 -20.095  0.00  0.00    +0.034 C 
ATOM     26  C   UNL     1      36.848 -21.085 -18.995  0.00  0.00    +0.003 C 
ATOM     27  C   UNL     1      36.440 -20.136 -19.931  0.00  0.00    +0.036 C 
BRANCH  24  28
ATOM     28  O   UNL     1      34.716 -19.105 -21.204  0.00  0.00    -0.506 OA
ATOM     29  H   UNL     1      34.190 -19.355 -21.938  0.00  0.00    +0.292 HD
ENDBRANCH  24  28
ENDBRANCH  19  21
ENDBRANCH   3  18
BRANCH   7  31
ATOM     30  O   UNL     1      27.470 -24.119 -17.103  0.00  0.00    -0.245 OA
ATOM     31  C   UNL     1      28.092 -23.204 -16.547  0.00  0.00    +0.341 C 
BRANCH  31  32
ATOM     32  O   UNL     1      27.563 -21.970 -16.283  0.00  0.00    -0.441 OA
ATOM     33  C   UNL     1      26.365 -21.617 -16.983  0.00  0.00    +0.256 C 
ENDBRANCH  31  32
ENDBRANCH   7  31
TORSDOF 6
ENDMDL
MODEL 5
REMARK VINA RESULT:     -10.5      2.571      7.264
REMARK  Name = 6852141
REMARK  6 active torsions:
REMARK  status: ('A' for Active; 'I' for Inactive)
REMARK    1  A    between atoms: C_3  and  N_18
REMARK    2  A    between atoms: C_7  and  C_31
REMARK    3  A    between atoms: C_9  and  C_13
REMARK    4  A    between atoms: C_19  and  C_21
REMARK    5  A    between atoms: C_24  and  O_28
REMARK    6  A    between atoms: C_31  and  O_32
REMARK                            x       y       z     vdW  Elec       q    Type
REMARK                         _______ _______ _______ _____ _____    ______ ____
ROOT
ATOM      1  C   UNL     1      35.342 -23.190 -15.725  0.00  0.00    +0.014 C 
ATOM      2  C   UNL     1      36.656 -22.743 -16.004  0.00  0.00    +0.001 C 
ATOM      3  C   UNL     1      34.302 -22.857 -16.608  0.00  0.00    +0.051 C 
ATOM      4  C   UNL     1      35.108 -23.955 -14.572  0.00  0.00    +0.004 C 
ATOM      5  C   UNL     1      36.891 -21.978 -17.158  0.00  0.00    +0.007 C 
ATOM      6  C   UNL     1      34.554 -22.097 -17.750  0.00  0.00    +0.021 C 
ATOM      7  C   UNL     1      35.846 -21.657 -18.024  0.00  0.00    +0.077 C 
ATOM      8  C   UNL     1      37.696 -23.075 -15.121  0.00  0.00    +0.000 C 
ATOM      9  C   UNL     1      36.153 -24.276 -13.706  0.00  0.00    +0.031 C 
ATOM     10  C   UNL     1      37.445 -23.837 -13.980  0.00  0.00    +0.003 C 
ENDROOT
BRANCH   9  13
ATOM     11  N   UNL     1      36.801 -26.031 -12.072  0.00  0.00    -0.343 N 
ATOM     12  N   UNL     1      34.775 -24.891 -11.835  0.00  0.00    -0.285 NA
ATOM     13  C   UNL     1      35.893 -25.071 -12.516  0.00  0.00    +0.117 C 
ATOM     14  H   UNL     1      36.605 -26.558 -11.265  0.00  0.00    +0.144 HD
ATOM     15  H   UNL     1      37.639 -26.182 -12.568  0.00  0.00    +0.144 HD
ATOM     16  H   UNL     1      34.597 -25.427 -11.029  0.00  0.00    +0.188 HD
ENDBRANCH   9  13
BRANCH   3  18
ATOM     17  O   UNL     1      32.382 -22.109 -14.432  0.00  0.00    -0.270 OA
ATOM     18  N   UNL     1      32.982 -23.270 -16.384  0.00  0.00    -0.280 N 
ATOM     19  C   UNL     1      32.129 -22.886 -15.345  0.00  0.00    +0.249 C 
ATOM     20  H   UNL     1      32.612 -23.908 -17.036  0.00  0.00    +0.155 HD
BRANCH  19  21
ATOM     21  C   UNL     1      30.787 -23.523 -15.361  0.00  0.00    +0.053 C 
ATOM     22  C   UNL     1      30.528 -24.618 -14.562  0.00  0.00    +0.016 C 
ATOM     23  C   UNL     1      29.829 -22.982 -16.195  0.00  0.00    +0.004 C 
ATOM     24  C   UNL     1      29.259 -25.196 -14.597  0.00  0.00    +0.130 C 
ATOM     25  C   UNL     1      31.578 -25.192 -13.663  0.00  0.00    +0.034 C 
ATOM     26  C   UNL     1      28.560 -23.560 -16.231  0.00  0.00    +0.003 C 
ATOM     27  C   UNL     1      28.276 -24.666 -15.432  0.00  0.00    +0.036 C 
BRANCH  24  28
ATOM     28  O   UNL     1      28.962 -26.277 -13.822  0.00  0.00    -0.506 OA
ATOM     29  H   UNL     1      28.339 -26.197 -13.126  0.00  0.00    +0.292 HD
ENDBRANCH  24  28
ENDBRANCH  19  21
ENDBRANCH   3  18
BRANCH   7  31
ATOM     30  O   UNL     1      37.060 -20.084 -19.344  0.00  0.00    -0.245 OA
ATOM     31  C   UNL     1      36.106 -20.863 -19.216  0.00  0.00    +0.341 C 
BRANCH  31  32
ATOM     32  O   UNL     1      35.163 -21.083 -20.183  0.00  0.00    -0.441 OA
ATOM     33  C   UNL     1      34.673 -19.934 -20.882  0.00  0.00    +0.256 C 
ENDBRANCH  31  32
ENDBRANCH   7  31
TORSDOF 6
ENDMDL
MODEL 6
REMARK VINA RESULT:     -10.4      1.162      1.813
REMARK  Name = 6852141
REMARK  6 active torsions:
REMARK  status: ('A' for Active; 'I' for Inactive)
REMARK    1  A    between atoms: C_3  and  N_18
REMARK    2  A    between atoms: C_7  and  C_31
REMARK    3  A    between atoms: C_9  and  C_13
REMARK    4  A    between atoms: C_19  and  C_21
REMARK    5  A    between atoms: C_24  and  O_28
REMARK    6  A    between atoms: C_31  and  O_32
REMARK                            x       y       z     vdW  Elec       q    Type
REMARK                         _______ _______ _______ _____ _____    ______ ____
ROOT
ATOM      1  C   UNL     1      32.688 -23.658 -14.583  0.00  0.00    +0.014 C 
ATOM      2  C   UNL     1      32.414 -24.370 -13.391  0.00  0.00    +0.001 C 
ATOM      3  C   UNL     1      34.011 -23.282 -14.869  0.00  0.00    +0.051 C 
ATOM      4  C   UNL     1      31.633 -23.343 -15.453  0.00  0.00    +0.004 C 
ATOM      5  C   UNL     1      33.470 -24.685 -12.520  0.00  0.00    +0.007 C 
ATOM      6  C   UNL     1      35.048 -23.604 -13.992  0.00  0.00    +0.021 C 
ATOM      7  C   UNL     1      34.777 -24.304 -12.820  0.00  0.00    +0.077 C 
ATOM      8  C   UNL     1      31.091 -24.745 -13.104  0.00  0.00    +0.000 C 
ATOM      9  C   UNL     1      30.325 -23.725 -15.153  0.00  0.00    +0.031 C 
ATOM     10  C   UNL     1      30.055 -24.425 -13.981  0.00  0.00    +0.003 C 
ENDROOT
BRANCH   9  13
ATOM     11  N   UNL     1      28.328 -24.355 -16.488  0.00  0.00    -0.343 N 
ATOM     12  N   UNL     1      29.116 -22.155 -16.514  0.00  0.00    -0.285 NA
ATOM     13  C   UNL     1      29.243 -23.392 -16.066  0.00  0.00    +0.117 C 
ATOM     14  H   UNL     1      27.603 -24.108 -17.106  0.00  0.00    +0.144 HD
ATOM     15  H   UNL     1      28.408 -25.283 -16.167  0.00  0.00    +0.144 HD
ATOM     16  H   UNL     1      28.385 -21.927 -17.132  0.00  0.00    +0.188 HD
ENDBRANCH   9  13
BRANCH   3  18
ATOM     17  O   UNL     1      33.900 -24.121 -17.744  0.00  0.00    -0.270 OA
ATOM     18  N   UNL     1      34.343 -22.575 -16.032  0.00  0.00    -0.280 N 
ATOM     19  C   UNL     1      34.271 -23.020 -17.355  0.00  0.00    +0.249 C 
ATOM     20  H   UNL     1      34.666 -21.655 -15.901  0.00  0.00    +0.155 HD
BRANCH  19  21
ATOM     21  C   UNL     1      34.724 -22.040 -18.376  0.00  0.00    +0.053 C 
ATOM     22  C   UNL     1      33.800 -21.326 -19.111  0.00  0.00    +0.016 C 
ATOM     23  C   UNL     1      36.084 -21.880 -18.553  0.00  0.00    +0.004 C 
ATOM     24  C   UNL     1      34.254 -20.413 -20.064  0.00  0.00    +0.130 C 
ATOM     25  C   UNL     1      32.330 -21.511 -18.907  0.00  0.00    +0.034 C 
ATOM     26  C   UNL     1      36.538 -20.967 -19.506  0.00  0.00    +0.003 C 
ATOM     27  C   UNL     1      35.623 -20.234 -20.260  0.00  0.00    +0.036 C 
BRANCH  24  28
ATOM     28  O   UNL     1      33.376 -19.686 -20.810  0.00  0.00    -0.506 OA
ATOM     29  H   UNL     1      32.741 -20.123 -21.343  0.00  0.00    +0.292 HD
ENDBRANCH  24  28
ENDBRANCH  19  21
ENDBRANCH   3  18
BRANCH   7  31
ATOM     30  O   UNL     1      36.459 -25.722 -11.898  0.00  0.00    -0.245 OA
ATOM     31  C   UNL     1      35.860 -24.638 -11.907  0.00  0.00    +0.341 C 
BRANCH  31  32
ATOM     32  O   UNL     1      36.139 -23.603 -11.057  0.00  0.00    -0.441 OA
ATOM     33  C   UNL     1      37.390 -22.932 -11.242  0.00  0.00    +0.256 C 
ENDBRANCH  31  32
ENDBRANCH   7  31
TORSDOF 6
ENDMDL
MODEL 7
REMARK VINA RESULT:     -10.2      2.205      6.718
REMARK  Name = 6852141
REMARK  6 active torsions:
REMARK  status: ('A' for Active; 'I' for Inactive)
REMARK    1  A    between atoms: C_3  and  N_18
REMARK    2  A    between atoms: C_7  and  C_31
REMARK    3  A    between atoms: C_9  and  C_13
REMARK    4  A    between atoms: C_19  and  C_21
REMARK    5  A    between atoms: C_24  and  O_28
REMARK    6  A    between atoms: C_31  and  O_32
REMARK                            x       y       z     vdW  Elec       q    Type
REMARK                         _______ _______ _______ _____ _____    ______ ____
ROOT
ATOM      1  C   UNL     1      33.226 -23.072 -15.921  0.00  0.00    +0.014 C 
ATOM      2  C   UNL     1      32.377 -22.640 -16.966  0.00  0.00    +0.001 C 
ATOM      3  C   UNL     1      34.618 -22.963 -16.077  0.00  0.00    +0.051 C 
ATOM      4  C   UNL     1      32.659 -23.601 -14.750  0.00  0.00    +0.004 C 
ATOM      5  C   UNL     1      32.943 -22.110 -18.138  0.00  0.00    +0.007 C 
ATOM      6  C   UNL     1      35.163 -22.434 -17.247  0.00  0.00    +0.021 C 
ATOM      7  C   UNL     1      34.328 -22.009 -18.276  0.00  0.00    +0.077 C 
ATOM      8  C   UNL     1      30.985 -22.749 -16.811  0.00  0.00    +0.000 C 
ATOM      9  C   UNL     1      31.275 -23.702 -14.612  0.00  0.00    +0.031 C 
ATOM     10  C   UNL     1      30.439 -23.276 -15.640  0.00  0.00    +0.003 C 
ENDROOT
BRANCH   9  13
ATOM     11  N   UNL     1      29.855 -25.356 -13.423  0.00  0.00    -0.343 N 
ATOM     12  N   UNL     1      30.986 -23.698 -12.226  0.00  0.00    -0.285 NA
ATOM     13  C   UNL     1      30.704 -24.251 -13.393  0.00  0.00    +0.117 C 
ATOM     14  H   UNL     1      29.480 -25.711 -12.586  0.00  0.00    +0.144 HD
ATOM     15  H   UNL     1      29.630 -25.780 -14.283  0.00  0.00    +0.144 HD
ATOM     16  H   UNL     1      30.601 -24.068 -11.399  0.00  0.00    +0.188 HD
ENDBRANCH   9  13
BRANCH   3  18
ATOM     17  O   UNL     1      35.587 -25.707 -15.357  0.00  0.00    -0.270 OA
ATOM     18  N   UNL     1      35.508 -23.376 -15.077  0.00  0.00    -0.280 N 
ATOM     19  C   UNL     1      35.925 -24.677 -14.785  0.00  0.00    +0.249 C 
ATOM     20  H   UNL     1      35.883 -22.663 -14.511  0.00  0.00    +0.155 HD
BRANCH  19  21
ATOM     21  C   UNL     1      36.861 -24.798 -13.636  0.00  0.00    +0.053 C 
ATOM     22  C   UNL     1      36.420 -24.550 -12.353  0.00  0.00    +0.016 C 
ATOM     23  C   UNL     1      38.165 -25.164 -13.906  0.00  0.00    +0.004 C 
ATOM     24  C   UNL     1      37.320 -24.672 -11.294  0.00  0.00    +0.130 C 
ATOM     25  C   UNL     1      35.003 -24.156 -12.078  0.00  0.00    +0.034 C 
ATOM     26  C   UNL     1      39.065 -25.285 -12.847  0.00  0.00    +0.003 C 
ATOM     27  C   UNL     1      38.642 -25.040 -11.542  0.00  0.00    +0.036 C 
BRANCH  24  28
ATOM     28  O   UNL     1      36.925 -24.437 -10.010  0.00  0.00    -0.506 OA
ATOM     29  H   UNL     1      37.295 -23.723  -9.530  0.00  0.00    +0.292 HD
ENDBRANCH  24  28
ENDBRANCH  19  21
ENDBRANCH   3  18
BRANCH   7  31
ATOM     30  O   UNL     1      36.047 -21.692 -19.899  0.00  0.00    -0.245 OA
ATOM     31  C   UNL     1      34.899 -21.459 -19.495  0.00  0.00    +0.341 C 
BRANCH  31  32
ATOM     32  O   UNL     1      34.009 -20.649 -20.147  0.00  0.00    -0.441 OA
ATOM     33  C   UNL     1      34.558 -19.667 -21.033  0.00  0.00    +0.256 C 
ENDBRANCH  31  32
ENDBRANCH   7  31
TORSDOF 6
ENDMDL
MODEL 8
REMARK VINA RESULT:      -9.5      2.458      6.521
REMARK  Name = 6852141
REMARK  6 active torsions:
REMARK  status: ('A' for Active; 'I' for Inactive)
REMARK    1  A    between atoms: C_3  and  N_18
REMARK    2  A    between atoms: C_7  and  C_31
REMARK    3  A    between atoms: C_9  and  C_13
REMARK    4  A    between atoms: C_19  and  C_21
REMARK    5  A    between atoms: C_24  and  O_28
REMARK    6  A    between atoms: C_31  and  O_32
REMARK                            x       y       z     vdW  Elec       q    Type
REMARK                         _______ _______ _______ _____ _____    ______ ____
ROOT
ATOM      1  C   UNL     1      32.988 -23.328 -15.948  0.00  0.00    +0.014 C 
ATOM      2  C   UNL     1      32.178 -22.669 -16.902  0.00  0.00    +0.001 C 
ATOM      3  C   UNL     1      34.380 -23.364 -16.136  0.00  0.00    +0.051 C 
ATOM      4  C   UNL     1      32.384 -23.933 -14.834  0.00  0.00    +0.004 C 
ATOM      5  C   UNL     1      32.782 -22.063 -18.016  0.00  0.00    +0.007 C 
ATOM      6  C   UNL     1      34.963 -22.757 -17.248  0.00  0.00    +0.021 C 
ATOM      7  C   UNL     1      34.166 -22.108 -18.187  0.00  0.00    +0.077 C 
ATOM      8  C   UNL     1      30.786 -22.633 -16.714  0.00  0.00    +0.000 C 
ATOM      9  C   UNL     1      31.000 -23.888 -14.663  0.00  0.00    +0.031 C 
ATOM     10  C   UNL     1      30.203 -23.239 -15.601  0.00  0.00    +0.003 C 
ENDROOT
BRANCH   9  13
ATOM     11  N   UNL     1      29.381 -25.471 -13.643  0.00  0.00    -0.343 N 
ATOM     12  N   UNL     1      30.788 -24.188 -12.288  0.00  0.00    -0.285 NA
ATOM     13  C   UNL     1      30.390 -24.519 -13.504  0.00  0.00    +0.117 C 
ATOM     14  H   UNL     1      28.982 -25.885 -12.845  0.00  0.00    +0.144 HD
ATOM     15  H   UNL     1      29.068 -25.728 -14.541  0.00  0.00    +0.144 HD
ATOM     16  H   UNL     1      30.377 -24.614 -11.502  0.00  0.00    +0.188 HD
ENDBRANCH   9  13
BRANCH   3  18
ATOM     17  O   UNL     1      36.564 -22.247 -14.413  0.00  0.00    -0.270 OA
ATOM     18  N   UNL     1      35.232 -24.003 -15.226  0.00  0.00    -0.280 N 
ATOM     19  C   UNL     1      36.239 -23.428 -14.446  0.00  0.00    +0.249 C 
ATOM     20  H   UNL     1      35.106 -24.974 -15.125  0.00  0.00    +0.155 HD
BRANCH  19  21
ATOM     21  C   UNL     1      36.998 -24.379 -13.592  0.00  0.00    +0.053 C 
ATOM     22  C   UNL     1      38.272 -24.770 -13.951  0.00  0.00    +0.016 C 
ATOM     23  C   UNL     1      36.383 -24.845 -12.446  0.00  0.00    +0.004 C 
ATOM     24  C   UNL     1      38.960 -25.664 -13.131  0.00  0.00    +0.130 C 
ATOM     25  C   UNL     1      38.923 -24.256 -15.196  0.00  0.00    +0.034 C 
ATOM     26  C   UNL     1      37.072 -25.739 -11.626  0.00  0.00    +0.003 C 
ATOM     27  C   UNL     1      38.360 -26.147 -11.969  0.00  0.00    +0.036 C 
BRANCH  24  28
ATOM     28  O   UNL     1      40.221 -26.074 -13.448  0.00  0.00    -0.506 OA
ATOM     29  H   UNL     1      40.377 -26.967 -13.686  0.00  0.00    +0.292 HD
ENDBRANCH  24  28
ENDBRANCH  19  21
ENDBRANCH   3  18
BRANCH   7  31
ATOM     30  O   UNL     1      35.936 -21.686 -19.729  0.00  0.00    -0.245 OA
ATOM     31  C   UNL     1      34.777 -21.477 -19.346  0.00  0.00    +0.341 C 
BRANCH  31  32
ATOM     32  O   UNL     1      33.911 -20.618 -19.966  0.00  0.00    -0.441 OA
ATOM     33  C   UNL     1      34.466 -19.733 -20.945  0.00  0.00    +0.256 C 
ENDBRANCH  31  32
ENDBRANCH   7  31
TORSDOF 6
ENDMDL
