MODEL 1
REMARK VINA RESULT:     -11.6      0.000      0.000
REMARK  Name = 46937054
REMARK  4 active torsions:
REMARK  status: ('A' for Active; 'I' for Inactive)
REMARK    1  A    between atoms: C_5  and  C_18
REMARK    2  A    between atoms: C_11  and  O_19
REMARK    3  A    between atoms: O_19  and  C_20
REMARK    4  A    between atoms: C_20  and  C_22
REMARK                            x       y       z     vdW  Elec       q    Type
REMARK                         _______ _______ _______ _____ _____    ______ ____
ROOT
ATOM      1 CL   UNL     1      30.149 -23.208 -15.864  0.00  0.00    -0.047 Cl
ATOM      2  O   UNL     1      35.755 -22.738 -16.970  0.00  0.00    -0.263 OA
ATOM      3  N   UNL     1      34.094 -23.276 -15.423  0.00  0.00    -0.240 N 
ATOM      4  N   UNL     1      32.224 -22.830 -17.444  0.00  0.00    -0.351 NA
ATOM      5  C   UNL     1      34.869 -23.516 -14.205  0.00  0.00    +0.161 C 
ATOM      6  C   UNL     1      33.777 -23.719 -13.194  0.00  0.00    +0.057 C 
ATOM      7  C   UNL     1      32.740 -23.351 -15.171  0.00  0.00    +0.091 C 
ATOM      8  C   UNL     1      32.569 -23.637 -13.771  0.00  0.00    -0.005 C 
ATOM      9  C   UNL     1      34.589 -22.907 -16.651  0.00  0.00    +0.320 C 
ATOM     10  C   UNL     1      31.855 -23.136 -16.154  0.00  0.00    +0.206 C 
ATOM     11  C   UNL     1      33.494 -22.718 -17.673  0.00  0.00    +0.335 C 
ENDROOT
BRANCH   5  18
ATOM     12  O   UNL     1      35.217 -25.699 -15.088  0.00  0.00    -0.273 OA
ATOM     13  N   UNL     1      36.784 -24.907 -13.587  0.00  0.00    -0.278 N 
ATOM     14  C   UNL     1      37.328 -23.891 -12.692  0.00  0.00    +0.094 C 
ATOM     15  C   UNL     1      37.627 -26.093 -13.605  0.00  0.00    +0.094 C 
ATOM     16  C   UNL     1      38.425 -24.612 -11.921  0.00  0.00    +0.023 C 
ATOM     17  C   UNL     1      38.911 -25.658 -12.916  0.00  0.00    +0.023 C 
ATOM     18  C   UNL     1      35.630 -24.809 -14.344  0.00  0.00    +0.244 C 
ENDBRANCH   5  18
BRANCH  11  19
ATOM     19  O   UNL     1      33.967 -22.418 -18.892  0.00  0.00    -0.444 OA
BRANCH  19  20
ATOM     20  C   UNL     1      33.490 -21.183 -19.411  0.00  0.00    +0.235 C 
BRANCH  20  22
ATOM     21  F   UNL     1      37.802 -18.345 -21.656  0.00  0.00    -0.204 F 
ATOM     22  C   UNL     1      34.639 -20.427 -20.010  0.00  0.00    +0.021 C 
ATOM     23  C   UNL     1      34.412 -19.509 -21.035  0.00  0.00    +0.002 C 
ATOM     24  C   UNL     1      35.935 -20.642 -19.541  0.00  0.00    +0.002 C 
ATOM     25  C   UNL     1      35.480 -18.806 -21.592  0.00  0.00    +0.029 C 
ATOM     26  C   UNL     1      37.004 -19.938 -20.098  0.00  0.00    +0.029 C 
ATOM     27  C   UNL     1      36.776 -19.020 -21.123  0.00  0.00    +0.140 C 
ENDBRANCH  20  22
ENDBRANCH  19  20
ENDBRANCH  11  19
TORSDOF 4
ENDMDL
MODEL 2
REMARK VINA RESULT:     -11.2      2.523      4.988
REMARK  Name = 46937054
REMARK  4 active torsions:
REMARK  status: ('A' for Active; 'I' for Inactive)
REMARK    1  A    between atoms: C_5  and  C_18
REMARK    2  A    between atoms: C_11  and  O_19
REMARK    3  A    between atoms: O_19  and  C_20
REMARK    4  A    between atoms: C_20  and  C_22
REMARK                            x       y       z     vdW  Elec       q    Type
REMARK                         _______ _______ _______ _____ _____    ______ ____
ROOT
ATOM      1 CL   UNL     1      37.212 -23.281 -13.846  0.00  0.00    -0.047 Cl
ATOM      2  O   UNL     1      32.758 -23.298 -17.455  0.00  0.00    -0.263 OA
ATOM      3  N   UNL     1      33.536 -23.680 -15.289  0.00  0.00    -0.240 N 
ATOM      4  N   UNL     1      36.030 -22.771 -16.145  0.00  0.00    -0.351 NA
ATOM      5  C   UNL     1      32.354 -24.234 -14.627  0.00  0.00    +0.161 C 
ATOM      6  C   UNL     1      32.913 -24.604 -13.283  0.00  0.00    +0.057 C 
ATOM      7  C   UNL     1      34.628 -23.698 -14.448  0.00  0.00    +0.091 C 
ATOM      8  C   UNL     1      34.210 -24.273 -13.197  0.00  0.00    -0.005 C 
ATOM      9  C   UNL     1      33.632 -23.289 -16.604  0.00  0.00    +0.320 C 
ATOM     10  C   UNL     1      35.819 -23.256 -14.875  0.00  0.00    +0.206 C 
ATOM     11  C   UNL     1      35.015 -22.791 -16.949  0.00  0.00    +0.335 C 
ENDROOT
BRANCH   5  18
ATOM     12  O   UNL     1      31.600 -22.157 -13.740  0.00  0.00    -0.273 OA
ATOM     13  N   UNL     1      30.118 -23.340 -15.060  0.00  0.00    -0.278 N 
ATOM     14  C   UNL     1      29.742 -24.479 -15.891  0.00  0.00    +0.094 C 
ATOM     15  C   UNL     1      29.028 -22.382 -14.962  0.00  0.00    +0.094 C 
ATOM     16  C   UNL     1      28.241 -24.325 -16.089  0.00  0.00    +0.023 C 
ATOM     17  C   UNL     1      28.043 -22.815 -16.036  0.00  0.00    +0.023 C 
ATOM     18  C   UNL     1      31.334 -23.142 -14.430  0.00  0.00    +0.244 C 
ENDBRANCH   5  18
BRANCH  11  19
ATOM     19  O   UNL     1      35.106 -22.349 -18.212  0.00  0.00    -0.444 OA
BRANCH  19  20
ATOM     20  C   UNL     1      36.298 -21.624 -18.488  0.00  0.00    +0.235 C 
BRANCH  20  22
ATOM     21  F   UNL     1      35.258 -17.848 -22.531  0.00  0.00    -0.204 F 
ATOM     22  C   UNL     1      36.021 -20.617 -19.566  0.00  0.00    +0.021 C 
ATOM     23  C   UNL     1      37.026 -19.744 -19.979  0.00  0.00    +0.002 C 
ATOM     24  C   UNL     1      34.758 -20.555 -20.153  0.00  0.00    +0.002 C 
ATOM     25  C   UNL     1      36.769 -18.807 -20.981  0.00  0.00    +0.029 C 
ATOM     26  C   UNL     1      34.500 -19.619 -21.156  0.00  0.00    +0.029 C 
ATOM     27  C   UNL     1      35.506 -18.745 -21.570  0.00  0.00    +0.140 C 
ENDBRANCH  20  22
ENDBRANCH  19  20
ENDBRANCH  11  19
TORSDOF 4
ENDMDL
MODEL 3
REMARK VINA RESULT:     -10.2     10.839     15.256
REMARK  Name = 46937054
REMARK  4 active torsions:
REMARK  status: ('A' for Active; 'I' for Inactive)
REMARK    1  A    between atoms: C_5  and  C_18
REMARK    2  A    between atoms: C_11  and  O_19
REMARK    3  A    between atoms: O_19  and  C_20
REMARK    4  A    between atoms: C_20  and  C_22
REMARK                            x       y       z     vdW  Elec       q    Type
REMARK                         _______ _______ _______ _____ _____    ______ ____
ROOT
ATOM      1 CL   UNL     1      31.564 -10.407 -18.114  0.00  0.00    -0.047 Cl
ATOM      2  O   UNL     1      32.459 -10.055 -23.766  0.00  0.00    -0.263 OA
ATOM      3  N   UNL     1      32.186  -8.925 -21.744  0.00  0.00    -0.240 N 
ATOM      4  N   UNL     1      32.070 -11.416 -20.496  0.00  0.00    -0.351 NA
ATOM      5  C   UNL     1      32.167  -7.524 -22.170  0.00  0.00    +0.161 C 
ATOM      6  C   UNL     1      31.849  -6.825 -20.879  0.00  0.00    +0.057 C 
ATOM      7  C   UNL     1      31.939  -9.033 -20.392  0.00  0.00    +0.091 C 
ATOM      8  C   UNL     1      31.740  -7.706 -19.873  0.00  0.00    -0.005 C 
ATOM      9  C   UNL     1      32.312 -10.027 -22.555  0.00  0.00    +0.320 C 
ATOM     10  C   UNL     1      31.888 -10.238 -19.807  0.00  0.00    +0.206 C 
ATOM     11  C   UNL     1      32.261 -11.318 -21.772  0.00  0.00    +0.335 C 
ENDROOT
BRANCH   5  18
ATOM     12  O   UNL     1      34.513  -7.276 -21.846  0.00  0.00    -0.273 OA
ATOM     13  N   UNL     1      33.645  -6.555 -23.862  0.00  0.00    -0.278 N 
ATOM     14  C   UNL     1      32.550  -6.340 -24.802  0.00  0.00    +0.094 C 
ATOM     15  C   UNL     1      34.910  -6.103 -24.421  0.00  0.00    +0.094 C 
ATOM     16  C   UNL     1      33.151  -5.460 -25.889  0.00  0.00    +0.023 C 
ATOM     17  C   UNL     1      34.616  -5.877 -25.895  0.00  0.00    +0.023 C 
ATOM     18  C   UNL     1      33.552  -7.114 -22.600  0.00  0.00    +0.244 C 
ENDBRANCH   5  18
BRANCH  11  19
ATOM     19  O   UNL     1      32.444 -12.399 -22.544  0.00  0.00    -0.444 OA
BRANCH  19  20
ATOM     20  C   UNL     1      33.798 -12.623 -22.917  0.00  0.00    +0.235 C 
BRANCH  20  22
ATOM     21  F   UNL     1      35.504 -17.542 -20.777  0.00  0.00    -0.204 F 
ATOM     22  C   UNL     1      34.253 -13.934 -22.347  0.00  0.00    +0.021 C 
ATOM     23  C   UNL     1      34.240 -14.137 -20.967  0.00  0.00    +0.002 C 
ATOM     24  C   UNL     1      34.689 -14.951 -23.196  0.00  0.00    +0.002 C 
ATOM     25  C   UNL     1      34.663 -15.355 -20.436  0.00  0.00    +0.029 C 
ATOM     26  C   UNL     1      35.112 -16.170 -22.666  0.00  0.00    +0.029 C 
ATOM     27  C   UNL     1      35.099 -16.372 -21.286  0.00  0.00    +0.140 C 
ENDBRANCH  20  22
ENDBRANCH  19  20
ENDBRANCH  11  19
TORSDOF 4
ENDMDL
MODEL 4
REMARK VINA RESULT:      -9.8      3.171      4.951
REMARK  Name = 46937054
REMARK  4 active torsions:
REMARK  status: ('A' for Active; 'I' for Inactive)
REMARK    1  A    between atoms: C_5  and  C_18
REMARK    2  A    between atoms: C_11  and  O_19
REMARK    3  A    between atoms: O_19  and  C_20
REMARK    4  A    between atoms: C_20  and  C_22
REMARK                            x       y       z     vdW  Elec       q    Type
REMARK                         _______ _______ _______ _____ _____    ______ ____
ROOT
ATOM      1 CL   UNL     1      37.529 -21.647 -15.808  0.00  0.00    -0.047 Cl
ATOM      2  O   UNL     1      33.286 -22.590 -19.547  0.00  0.00    -0.263 OA
ATOM      3  N   UNL     1      34.096 -22.874 -17.378  0.00  0.00    -0.240 N 
ATOM      4  N   UNL     1      36.299 -21.332 -18.117  0.00  0.00    -0.351 NA
ATOM      5  C   UNL     1      33.078 -23.737 -16.776  0.00  0.00    +0.161 C 
ATOM      6  C   UNL     1      33.686 -24.023 -15.434  0.00  0.00    +0.057 C 
ATOM      7  C   UNL     1      35.142 -22.663 -16.506  0.00  0.00    +0.091 C 
ATOM      8  C   UNL     1      34.858 -23.385 -15.294  0.00  0.00    -0.005 C 
ATOM      9  C   UNL     1      34.115 -22.406 -18.670  0.00  0.00    +0.320 C 
ATOM     10  C   UNL     1      36.193 -21.918 -16.876  0.00  0.00    +0.206 C 
ATOM     11  C   UNL     1      35.336 -21.564 -18.952  0.00  0.00    +0.335 C 
ENDROOT
BRANCH   5  18
ATOM     12  O   UNL     1      31.678 -21.835 -17.082  0.00  0.00    -0.273 OA
ATOM     13  N   UNL     1      30.861 -23.544 -15.758  0.00  0.00    -0.278 N 
ATOM     14  C   UNL     1      30.959 -24.852 -15.119  0.00  0.00    +0.094 C 
ATOM     15  C   UNL     1      29.590 -22.906 -15.451  0.00  0.00    +0.094 C 
ATOM     16  C   UNL     1      29.785 -24.890 -14.150  0.00  0.00    +0.023 C 
ATOM     17  C   UNL     1      28.747 -24.012 -14.838  0.00  0.00    +0.023 C 
ATOM     18  C   UNL     1      31.814 -22.944 -16.563  0.00  0.00    +0.244 C 
ENDBRANCH   5  18
BRANCH  11  19
ATOM     19  O   UNL     1      35.337 -21.050 -20.191  0.00  0.00    -0.444 OA
BRANCH  19  20
ATOM     20  C   UNL     1      36.126 -19.875 -20.331  0.00  0.00    +0.235 C 
BRANCH  20  22
ATOM     21  F   UNL     1      34.193 -16.872 -24.681  0.00  0.00    -0.204 F 
ATOM     22  C   UNL     1      35.611 -19.075 -21.491  0.00  0.00    +0.021 C 
ATOM     23  C   UNL     1      34.933 -19.710 -22.530  0.00  0.00    +0.002 C 
ATOM     24  C   UNL     1      35.810 -17.695 -21.529  0.00  0.00    +0.002 C 
ATOM     25  C   UNL     1      34.454 -18.966 -23.609  0.00  0.00    +0.029 C 
ATOM     26  C   UNL     1      35.331 -16.950 -22.607  0.00  0.00    +0.029 C 
ATOM     27  C   UNL     1      34.653 -17.586 -23.647  0.00  0.00    +0.140 C 
ENDBRANCH  20  22
ENDBRANCH  19  20
ENDBRANCH  11  19
TORSDOF 4
ENDMDL
MODEL 5
REMARK VINA RESULT:      -9.5     11.673     16.184
REMARK  Name = 46937054
REMARK  4 active torsions:
REMARK  status: ('A' for Active; 'I' for Inactive)
REMARK    1  A    between atoms: C_5  and  C_18
REMARK    2  A    between atoms: C_11  and  O_19
REMARK    3  A    between atoms: O_19  and  C_20
REMARK    4  A    between atoms: C_20  and  C_22
REMARK                            x       y       z     vdW  Elec       q    Type
REMARK                         _______ _______ _______ _____ _____    ______ ____
ROOT
ATOM      1 CL   UNL     1      31.570  -8.653 -18.674  0.00  0.00    -0.047 Cl
ATOM      2  O   UNL     1      32.512  -9.468 -24.270  0.00  0.00    -0.263 OA
ATOM      3  N   UNL     1      32.339  -7.953 -22.505  0.00  0.00    -0.240 N 
ATOM      4  N   UNL     1      31.987 -10.139 -20.810  0.00  0.00    -0.351 NA
ATOM      5  C   UNL     1      32.451  -6.664 -23.189  0.00  0.00    +0.161 C 
ATOM      6  C   UNL     1      32.195  -5.705 -22.061  0.00  0.00    +0.057 C 
ATOM      7  C   UNL     1      32.078  -7.779 -21.162  0.00  0.00    +0.091 C 
ATOM      8  C   UNL     1      32.001  -6.364 -20.909  0.00  0.00    -0.005 C 
ATOM      9  C   UNL     1      32.363  -9.197 -23.090  0.00  0.00    +0.320 C 
ATOM     10  C   UNL     1      31.913  -8.840 -20.361  0.00  0.00    +0.206 C 
ATOM     11  C   UNL     1      32.190 -10.304 -22.078  0.00  0.00    +0.335 C 
ENDROOT
BRANCH   5  18
ATOM     12  O   UNL     1      34.815  -6.694 -22.902  0.00  0.00    -0.273 OA
ATOM     13  N   UNL     1      34.011  -6.030 -24.964  0.00  0.00    -0.278 N 
ATOM     14  C   UNL     1      32.936  -5.751 -25.912  0.00  0.00    +0.094 C 
ATOM     15  C   UNL     1      35.314  -5.789 -25.566  0.00  0.00    +0.094 C 
ATOM     16  C   UNL     1      33.626  -5.045 -27.070  0.00  0.00    +0.023 C 
ATOM     17  C   UNL     1      35.026  -5.646 -27.052  0.00  0.00    +0.023 C 
ATOM     18  C   UNL     1      33.870  -6.470 -23.660  0.00  0.00    +0.244 C 
ENDBRANCH   5  18
BRANCH  11  19
ATOM     19  O   UNL     1      32.274 -11.525 -22.626  0.00  0.00    -0.444 OA
BRANCH  19  20
ATOM     20  C   UNL     1      31.944 -12.585 -21.737  0.00  0.00    +0.235 C 
BRANCH  20  22
ATOM     21  F   UNL     1      35.878 -16.594 -22.116  0.00  0.00    -0.204 F 
ATOM     22  C   UNL     1      32.993 -13.653 -21.838  0.00  0.00    +0.021 C 
ATOM     23  C   UNL     1      33.569 -14.177 -20.681  0.00  0.00    +0.002 C 
ATOM     24  C   UNL     1      33.392 -14.123 -23.089  0.00  0.00    +0.002 C 
ATOM     25  C   UNL     1      34.544 -15.170 -20.774  0.00  0.00    +0.029 C 
ATOM     26  C   UNL     1      34.367 -15.117 -23.183  0.00  0.00    +0.029 C 
ATOM     27  C   UNL     1      34.943 -15.641 -22.025  0.00  0.00    +0.140 C 
ENDBRANCH  20  22
ENDBRANCH  19  20
ENDBRANCH  11  19
TORSDOF 4
ENDMDL
MODEL 6
REMARK VINA RESULT:      -9.4      8.905     13.590
REMARK  Name = 46937054
REMARK  4 active torsions:
REMARK  status: ('A' for Active; 'I' for Inactive)
REMARK    1  A    between atoms: C_5  and  C_18
REMARK    2  A    between atoms: C_11  and  O_19
REMARK    3  A    between atoms: O_19  and  C_20
REMARK    4  A    between atoms: C_20  and  C_22
REMARK                            x       y       z     vdW  Elec       q    Type
REMARK                         _______ _______ _______ _____ _____    ______ ____
ROOT
ATOM      1 CL   UNL     1      32.313 -14.016 -19.191  0.00  0.00    -0.047 Cl
ATOM      2  O   UNL     1      33.048 -12.617 -24.703  0.00  0.00    -0.263 OA
ATOM      3  N   UNL     1      32.357 -11.946 -22.578  0.00  0.00    -0.240 N 
ATOM      4  N   UNL     1      33.177 -14.442 -21.644  0.00  0.00    -0.351 NA
ATOM      5  C   UNL     1      31.815 -10.610 -22.834  0.00  0.00    +0.161 C 
ATOM      6  C   UNL     1      31.249 -10.256 -21.489  0.00  0.00    +0.057 C 
ATOM      7  C   UNL     1      32.159 -12.315 -21.264  0.00  0.00    +0.091 C 
ATOM      8  C   UNL     1      31.472 -11.238 -20.603  0.00  0.00    -0.005 C 
ATOM      9  C   UNL     1      32.893 -12.806 -23.507  0.00  0.00    +0.320 C 
ATOM     10  C   UNL     1      32.561 -13.518 -20.831  0.00  0.00    +0.206 C 
ATOM     11  C   UNL     1      33.326 -14.113 -22.888  0.00  0.00    +0.335 C 
ENDROOT
BRANCH   5  18
ATOM     12  O   UNL     1      34.111  -9.981 -22.887  0.00  0.00    -0.273 OA
ATOM     13  N   UNL     1      32.578  -8.447 -23.685  0.00  0.00    -0.278 N 
ATOM     14  C   UNL     1      31.223  -8.010 -24.005  0.00  0.00    +0.094 C 
ATOM     15  C   UNL     1      33.552  -7.421 -24.026  0.00  0.00    +0.094 C 
ATOM     16  C   UNL     1      31.365  -6.526 -24.312  0.00  0.00    +0.023 C 
ATOM     17  C   UNL     1      32.777  -6.428 -24.877  0.00  0.00    +0.023 C 
ATOM     18  C   UNL     1      32.947  -9.661 -23.135  0.00  0.00    +0.244 C 
ENDBRANCH   5  18
BRANCH  11  19
ATOM     19  O   UNL     1      33.907 -14.938 -23.772  0.00  0.00    -0.444 OA
BRANCH  19  20
ATOM     20  C   UNL     1      35.205 -15.376 -23.389  0.00  0.00    +0.235 C 
BRANCH  20  22
ATOM     21  F   UNL     1      34.874 -20.662 -21.485  0.00  0.00    -0.204 F 
ATOM     22  C   UNL     1      35.117 -16.785 -22.882  0.00  0.00    +0.021 C 
ATOM     23  C   UNL     1      35.469 -17.075 -21.564  0.00  0.00    +0.002 C 
ATOM     24  C   UNL     1      34.683 -17.805 -23.728  0.00  0.00    +0.002 C 
ATOM     25  C   UNL     1      35.387 -18.385 -21.092  0.00  0.00    +0.029 C 
ATOM     26  C   UNL     1      34.601 -19.115 -23.256  0.00  0.00    +0.029 C 
ATOM     27  C   UNL     1      34.953 -19.405 -21.938  0.00  0.00    +0.140 C 
ENDBRANCH  20  22
ENDBRANCH  19  20
ENDBRANCH  11  19
TORSDOF 4
ENDMDL
MODEL 7
REMARK VINA RESULT:      -9.3     10.593     14.021
REMARK  Name = 46937054
REMARK  4 active torsions:
REMARK  status: ('A' for Active; 'I' for Inactive)
REMARK    1  A    between atoms: C_5  and  C_18
REMARK    2  A    between atoms: C_11  and  O_19
REMARK    3  A    between atoms: O_19  and  C_20
REMARK    4  A    between atoms: C_20  and  C_22
REMARK                            x       y       z     vdW  Elec       q    Type
REMARK                         _______ _______ _______ _____ _____    ______ ____
ROOT
ATOM      1 CL   UNL     1      30.417 -10.667 -19.878  0.00  0.00    -0.047 Cl
ATOM      2  O   UNL     1      34.259 -11.074 -24.114  0.00  0.00    -0.263 OA
ATOM      3  N   UNL     1      33.191 -12.116 -22.320  0.00  0.00    -0.240 N 
ATOM      4  N   UNL     1      31.651  -9.807 -22.042  0.00  0.00    -0.351 NA
ATOM      5  C   UNL     1      33.898 -13.395 -22.237  0.00  0.00    +0.161 C 
ATOM      6  C   UNL     1      33.296 -13.987 -20.995  0.00  0.00    +0.057 C 
ATOM      7  C   UNL     1      32.285 -11.984 -21.289  0.00  0.00    +0.091 C 
ATOM      8  C   UNL     1      32.364 -13.170 -20.479  0.00  0.00    -0.005 C 
ATOM      9  C   UNL     1      33.437 -11.099 -23.212  0.00  0.00    +0.320 C 
ATOM     10  C   UNL     1      31.552 -10.868 -21.171  0.00  0.00    +0.206 C 
ATOM     11  C   UNL     1      32.531  -9.912 -22.986  0.00  0.00    +0.335 C 
ENDROOT
BRANCH   5  18
ATOM     12  O   UNL     1      32.684 -13.858 -24.232  0.00  0.00    -0.273 OA
ATOM     13  N   UNL     1      34.125 -15.495 -23.471  0.00  0.00    -0.278 N 
ATOM     14  C   UNL     1      35.109 -16.027 -22.532  0.00  0.00    +0.094 C 
ATOM     15  C   UNL     1      33.852 -16.448 -24.536  0.00  0.00    +0.094 C 
ATOM     16  C   UNL     1      35.237 -17.496 -22.909  0.00  0.00    +0.023 C 
ATOM     17  C   UNL     1      34.950 -17.491 -24.405  0.00  0.00    +0.023 C 
ATOM     18  C   UNL     1      33.508 -14.259 -23.408  0.00  0.00    +0.244 C 
ENDBRANCH   5  18
BRANCH  11  19
ATOM     19  O   UNL     1      32.719  -8.938 -23.888  0.00  0.00    -0.444 OA
BRANCH  19  20
ATOM     20  C   UNL     1      33.551  -7.878 -23.432  0.00  0.00    +0.235 C 
BRANCH  20  22
ATOM     21  F   UNL     1      30.322  -3.815 -21.252  0.00  0.00    -0.204 F 
ATOM     22  C   UNL     1      32.690  -6.795 -22.851  0.00  0.00    +0.021 C 
ATOM     23  C   UNL     1      32.951  -6.309 -21.570  0.00  0.00    +0.002 C 
ATOM     24  C   UNL     1      31.629  -6.275 -23.592  0.00  0.00    +0.002 C 
ATOM     25  C   UNL     1      32.151  -5.303 -21.029  0.00  0.00    +0.029 C 
ATOM     26  C   UNL     1      30.829  -5.267 -23.052  0.00  0.00    +0.029 C 
ATOM     27  C   UNL     1      31.090  -4.781 -21.770  0.00  0.00    +0.140 C 
ENDBRANCH  20  22
ENDBRANCH  19  20
ENDBRANCH  11  19
TORSDOF 4
ENDMDL
MODEL 8
REMARK VINA RESULT:      -9.2     10.475     13.993
REMARK  Name = 46937054
REMARK  4 active torsions:
REMARK  status: ('A' for Active; 'I' for Inactive)
REMARK    1  A    between atoms: C_5  and  C_18
REMARK    2  A    between atoms: C_11  and  O_19
REMARK    3  A    between atoms: O_19  and  C_20
REMARK    4  A    between atoms: C_20  and  C_22
REMARK                            x       y       z     vdW  Elec       q    Type
REMARK                         _______ _______ _______ _____ _____    ______ ____
ROOT
ATOM      1 CL   UNL     1      32.430 -14.037 -18.959  0.00  0.00    -0.047 Cl
ATOM      2  O   UNL     1      31.861 -10.184 -23.166  0.00  0.00    -0.263 OA
ATOM      3  N   UNL     1      31.765 -10.626 -20.877  0.00  0.00    -0.240 N 
ATOM      4  N   UNL     1      32.628 -13.215 -21.455  0.00  0.00    -0.351 NA
ATOM      5  C   UNL     1      31.264  -9.361 -20.337  0.00  0.00    +0.161 C 
ATOM      6  C   UNL     1      31.075  -9.712 -18.888  0.00  0.00    +0.057 C 
ATOM      7  C   UNL     1      31.876 -11.578 -19.886  0.00  0.00    +0.091 C 
ATOM      8  C   UNL     1      31.447 -10.978 -18.650  0.00  0.00    -0.005 C 
ATOM      9  C   UNL     1      31.996 -10.918 -22.201  0.00  0.00    +0.320 C 
ATOM     10  C   UNL     1      32.294 -12.817 -20.180  0.00  0.00    +0.206 C 
ATOM     11  C   UNL     1      32.483 -12.335 -22.393  0.00  0.00    +0.335 C 
ENDROOT
BRANCH   5  18
ATOM     12  O   UNL     1      33.300  -8.333 -19.654  0.00  0.00    -0.273 OA
ATOM     13  N   UNL     1      32.173  -7.368 -21.425  0.00  0.00    -0.278 N 
ATOM     14  C   UNL     1      31.071  -7.294 -22.378  0.00  0.00    +0.094 C 
ATOM     15  C   UNL     1      33.125  -6.289 -21.642  0.00  0.00    +0.094 C 
ATOM     16  C   UNL     1      31.231  -5.932 -23.039  0.00  0.00    +0.023 C 
ATOM     17  C   UNL     1      32.737  -5.704 -22.991  0.00  0.00    +0.023 C 
ATOM     18  C   UNL     1      32.345  -8.315 -20.432  0.00  0.00    +0.244 C 
ENDBRANCH   5  18
BRANCH  11  19
ATOM     19  O   UNL     1      32.772 -12.614 -23.673  0.00  0.00    -0.444 OA
BRANCH  19  20
ATOM     20  C   UNL     1      34.125 -12.994 -23.893  0.00  0.00    +0.235 C 
BRANCH  20  22
ATOM     21  F   UNL     1      34.420 -18.603 -24.267  0.00  0.00    -0.204 F 
ATOM     22  C   UNL     1      34.203 -14.489 -23.993  0.00  0.00    +0.021 C 
ATOM     23  C   UNL     1      33.498 -15.159 -24.992  0.00  0.00    +0.002 C 
ATOM     24  C   UNL     1      34.981 -15.208 -23.086  0.00  0.00    +0.002 C 
ATOM     25  C   UNL     1      33.571 -16.549 -25.085  0.00  0.00    +0.029 C 
ATOM     26  C   UNL     1      35.055 -16.599 -23.179  0.00  0.00    +0.029 C 
ATOM     27  C   UNL     1      34.349 -17.269 -24.179  0.00  0.00    +0.140 C 
ENDBRANCH  20  22
ENDBRANCH  19  20
ENDBRANCH  11  19
TORSDOF 4
ENDMDL
MODEL 9
REMARK VINA RESULT:      -9.0      1.411      1.869
REMARK  Name = 46937054
REMARK  4 active torsions:
REMARK  status: ('A' for Active; 'I' for Inactive)
REMARK    1  A    between atoms: C_5  and  C_18
REMARK    2  A    between atoms: C_11  and  O_19
REMARK    3  A    between atoms: O_19  and  C_20
REMARK    4  A    between atoms: C_20  and  C_22
REMARK                            x       y       z     vdW  Elec       q    Type
REMARK                         _______ _______ _______ _____ _____    ______ ____
ROOT
ATOM      1 CL   UNL     1      31.715 -22.320 -17.705  0.00  0.00    -0.047 Cl
ATOM      2  O   UNL     1      37.325 -22.454 -16.532  0.00  0.00    -0.263 OA
ATOM      3  N   UNL     1      35.155 -22.935 -15.823  0.00  0.00    -0.240 N 
ATOM      4  N   UNL     1      34.265 -22.046 -18.312  0.00  0.00    -0.351 NA
ATOM      5  C   UNL     1      35.372 -23.397 -14.451  0.00  0.00    +0.161 C 
ATOM      6  C   UNL     1      33.959 -23.565 -13.967  0.00  0.00    +0.057 C 
ATOM      7  C   UNL     1      33.810 -22.863 -16.114  0.00  0.00    +0.091 C 
ATOM      8  C   UNL     1      33.083 -23.270 -14.940  0.00  0.00    -0.005 C 
ATOM      9  C   UNL     1      36.118 -22.506 -16.705  0.00  0.00    +0.320 C 
ATOM     10  C   UNL     1      33.398 -22.435 -17.315  0.00  0.00    +0.206 C 
ATOM     11  C   UNL     1      35.527 -22.074 -18.026  0.00  0.00    +0.335 C 
ENDROOT
BRANCH   5  18
ATOM     12  O   UNL     1      35.609 -25.633 -15.237  0.00  0.00    -0.273 OA
ATOM     13  N   UNL     1      37.085 -24.926 -13.607  0.00  0.00    -0.278 N 
ATOM     14  C   UNL     1      37.628 -23.930 -12.688  0.00  0.00    +0.094 C 
ATOM     15  C   UNL     1      37.817 -26.180 -13.509  0.00  0.00    +0.094 C 
ATOM     16  C   UNL     1      38.575 -24.716 -11.792  0.00  0.00    +0.023 C 
ATOM     17  C   UNL     1      39.061 -25.833 -12.706  0.00  0.00    +0.023 C 
ATOM     18  C   UNL     1      36.025 -24.756 -14.478  0.00  0.00    +0.244 C 
ENDBRANCH   5  18
BRANCH  11  19
ATOM     19  O   UNL     1      36.461 -21.711 -18.917  0.00  0.00    -0.444 OA
BRANCH  19  20
ATOM     20  C   UNL     1      36.720 -20.312 -18.949  0.00  0.00    +0.235 C 
BRANCH  20  22
ATOM     21  F   UNL     1      34.746 -18.186 -23.772  0.00  0.00    -0.204 F 
ATOM     22  C   UNL     1      36.194 -19.745 -20.234  0.00  0.00    +0.021 C 
ATOM     23  C   UNL     1      36.989 -18.890 -20.997  0.00  0.00    +0.002 C 
ATOM     24  C   UNL     1      34.910 -20.073 -20.667  0.00  0.00    +0.002 C 
ATOM     25  C   UNL     1      36.500 -18.363 -22.192  0.00  0.00    +0.029 C 
ATOM     26  C   UNL     1      34.420 -19.547 -21.863  0.00  0.00    +0.029 C 
ATOM     27  C   UNL     1      35.216 -18.691 -22.625  0.00  0.00    +0.140 C 
ENDBRANCH  20  22
ENDBRANCH  19  20
ENDBRANCH  11  19
TORSDOF 4
ENDMDL
