MODEL 1
REMARK VINA RESULT:     -13.3      0.000      0.000
REMARK  Name = 21081761
REMARK  5 active torsions:
REMARK  status: ('A' for Active; 'I' for Inactive)
REMARK    1  A    between atoms: N_2  and  C_6
REMARK    2  A    between atoms: C_3  and  C_25
REMARK    3  A    between atoms: C_7  and  O_12
REMARK    4  A    between atoms: O_12  and  C_16
REMARK    5  A    between atoms: N_24  and  C_31
REMARK                            x       y       z     vdW  Elec       q    Type
REMARK                         _______ _______ _______ _____ _____    ______ ____
ROOT
ATOM      1  O   UNL     1      35.095 -13.695 -21.409  0.00  0.00    -0.270 OA
ATOM      2  N   UNL     1      33.239 -13.782 -22.864  0.00  0.00    -0.280 N 
ATOM      3  C   UNL     1      34.361 -14.280 -22.196  0.00  0.00    +0.254 C 
ATOM      4  H   UNL     1      32.776 -14.413 -23.462  0.00  0.00    +0.155 HD
ENDROOT
BRANCH   2   6
ATOM      5  F   UNL     1      30.154 -10.693 -20.912  0.00  0.00    -0.201 F 
ATOM      6  C   UNL     1      32.694 -12.501 -22.786  0.00  0.00    +0.053 C 
ATOM      7  C   UNL     1      31.604  -9.937 -22.632  0.00  0.00    +0.173 C 
ATOM      8  C   UNL     1      31.676 -12.229 -21.871  0.00  0.00    +0.047 C 
ATOM      9  C   UNL     1      33.167 -11.490 -23.623  0.00  0.00    +0.018 C 
ATOM     10  C   UNL     1      31.131 -10.947 -21.794  0.00  0.00    +0.176 C 
ATOM     11  C   UNL     1      32.622 -10.208 -23.547  0.00  0.00    +0.041 C 
BRANCH   7  12
ATOM     12  O   UNL     1      31.063  -8.668 -22.557  0.00  0.00    -0.451 OA
BRANCH  12  16
ATOM     13  N   UNL     1      31.825  -4.254 -21.285  0.00  0.00    -0.297 N 
ATOM     14  N   UNL     1      33.000  -5.920 -20.002  0.00  0.00    -0.229 NA
ATOM     15  C   UNL     1      31.481  -6.381 -21.870  0.00  0.00    +0.067 C 
ATOM     16  C   UNL     1      31.682  -7.765 -21.738  0.00  0.00    +0.150 C 
ATOM     17  C   UNL     1      32.159  -5.549 -20.985  0.00  0.00    +0.135 C 
ATOM     18  C   UNL     1      30.718  -5.540 -22.724  0.00  0.00    +0.022 C 
ATOM     19  C   UNL     1      30.950  -4.238 -22.340  0.00  0.00    +0.063 C 
ATOM     20  C   UNL     1      32.544  -8.205 -20.734  0.00  0.00    +0.058 C 
ATOM     21  C   UNL     1      33.157  -7.262 -19.921  0.00  0.00    +0.103 C 
ATOM     22  H   UNL     1      32.161  -3.457 -20.814  0.00  0.00    +0.154 HD
ENDBRANCH  12  16
ENDBRANCH   7  12
ENDBRANCH   2   6
BRANCH   3  25
ATOM     23  O   UNL     1      35.047 -16.340 -20.318  0.00  0.00    -0.269 OA
ATOM     24  N   UNL     1      35.136 -18.046 -21.953  0.00  0.00    -0.233 N 
ATOM     25  C   UNL     1      34.633 -15.683 -22.528  0.00  0.00    +0.108 C 
ATOM     26  C   UNL     1      34.942 -16.719 -21.485  0.00  0.00    +0.261 C 
ATOM     27  C   UNL     1      35.108 -18.308 -23.323  0.00  0.00    +0.072 C 
ATOM     28  C   UNL     1      34.614 -16.013 -23.824  0.00  0.00    +0.010 C 
ATOM     29  C   UNL     1      34.868 -17.362 -24.237  0.00  0.00    +0.017 C 
BRANCH  24  31
ATOM     30  F   UNL     1      36.099 -22.162 -18.312  0.00  0.00    -0.204 F 
ATOM     31  C   UNL     1      35.386 -19.116 -21.007  0.00  0.00    +0.059 C 
ATOM     32  C   UNL     1      34.337 -19.930 -20.581  0.00  0.00    +0.018 C 
ATOM     33  C   UNL     1      36.677 -19.331 -20.522  0.00  0.00    +0.018 C 
ATOM     34  C   UNL     1      34.577 -20.960 -19.672  0.00  0.00    +0.031 C 
ATOM     35  C   UNL     1      36.918 -20.360 -19.612  0.00  0.00    +0.031 C 
ATOM     36  C   UNL     1      35.868 -21.175 -19.187  0.00  0.00    +0.140 C 
ENDBRANCH  24  31
ENDBRANCH   3  25
TORSDOF 5
ENDMDL
MODEL 2
REMARK VINA RESULT:     -12.7      3.828     12.264
REMARK  Name = 21081761
REMARK  5 active torsions:
REMARK  status: ('A' for Active; 'I' for Inactive)
REMARK    1  A    between atoms: N_2  and  C_6
REMARK    2  A    between atoms: C_3  and  C_25
REMARK    3  A    between atoms: C_7  and  O_12
REMARK    4  A    between atoms: O_12  and  C_16
REMARK    5  A    between atoms: N_24  and  C_31
REMARK                            x       y       z     vdW  Elec       q    Type
REMARK                         _______ _______ _______ _____ _____    ______ ____
ROOT
ATOM      1  O   UNL     1      36.382 -17.870 -20.698  0.00  0.00    -0.270 OA
ATOM      2  N   UNL     1      34.391 -19.066 -21.111  0.00  0.00    -0.280 N 
ATOM      3  C   UNL     1      35.323 -18.042 -21.289  0.00  0.00    +0.254 C 
ATOM      4  H   UNL     1      33.593 -19.030 -21.686  0.00  0.00    +0.155 HD
ENDROOT
BRANCH   2   6
ATOM      5  F   UNL     1      36.931 -22.008 -18.324  0.00  0.00    -0.201 F 
ATOM      6  C   UNL     1      34.452 -20.134 -20.215  0.00  0.00    +0.053 C 
ATOM      7  C   UNL     1      34.575 -22.272 -18.427  0.00  0.00    +0.173 C 
ATOM      8  C   UNL     1      35.683 -20.548 -19.705  0.00  0.00    +0.047 C 
ATOM      9  C   UNL     1      33.282 -20.789 -19.830  0.00  0.00    +0.018 C 
ATOM     10  C   UNL     1      35.745 -21.617 -18.811  0.00  0.00    +0.176 C 
ATOM     11  C   UNL     1      33.344 -21.858 -18.936  0.00  0.00    +0.041 C 
BRANCH   7  12
ATOM     12  O   UNL     1      34.635 -23.331 -17.542  0.00  0.00    -0.451 OA
BRANCH  12  16
ATOM     13  N   UNL     1      34.242 -23.457 -12.904  0.00  0.00    -0.297 N 
ATOM     14  N   UNL     1      32.185 -23.113 -14.109  0.00  0.00    -0.229 NA
ATOM     15  C   UNL     1      34.397 -23.392 -15.131  0.00  0.00    +0.067 C 
ATOM     16  C   UNL     1      33.857 -23.263 -16.421  0.00  0.00    +0.150 C 
ATOM     17  C   UNL     1      33.516 -23.307 -14.057  0.00  0.00    +0.135 C 
ATOM     18  C   UNL     1      35.692 -23.601 -14.586  0.00  0.00    +0.022 C 
ATOM     19  C   UNL     1      35.566 -23.636 -13.215  0.00  0.00    +0.063 C 
ATOM     20  C   UNL     1      32.482 -23.060 -16.533  0.00  0.00    +0.058 C 
ATOM     21  C   UNL     1      31.719 -22.997 -15.375  0.00  0.00    +0.103 C 
ATOM     22  H   UNL     1      33.871 -23.438 -11.992  0.00  0.00    +0.154 HD
ENDBRANCH  12  16
ENDBRANCH   7  12
ENDBRANCH   2   6
BRANCH   3  25
ATOM     23  O   UNL     1      34.195 -15.441 -20.831  0.00  0.00    -0.269 OA
ATOM     24  N   UNL     1      34.073 -14.896 -23.129  0.00  0.00    -0.233 N 
ATOM     25  C   UNL     1      34.918 -17.090 -22.329  0.00  0.00    +0.108 C 
ATOM     26  C   UNL     1      34.376 -15.724 -22.016  0.00  0.00    +0.261 C 
ATOM     27  C   UNL     1      34.214 -15.396 -24.424  0.00  0.00    +0.072 C 
ATOM     28  C   UNL     1      35.034 -17.496 -23.599  0.00  0.00    +0.010 C 
ATOM     29  C   UNL     1      34.662 -16.629 -24.678  0.00  0.00    +0.017 C 
BRANCH  24  31
ATOM     30  F   UNL     1      32.234  -9.694 -22.299  0.00  0.00    -0.204 F 
ATOM     31  C   UNL     1      33.595 -13.544 -22.913  0.00  0.00    +0.059 C 
ATOM     32  C   UNL     1      34.129 -12.489 -23.653  0.00  0.00    +0.018 C 
ATOM     33  C   UNL     1      32.601 -13.298 -21.965  0.00  0.00    +0.018 C 
ATOM     34  C   UNL     1      33.669 -11.189 -23.446  0.00  0.00    +0.031 C 
ATOM     35  C   UNL     1      32.140 -11.998 -21.758  0.00  0.00    +0.031 C 
ATOM     36  C   UNL     1      32.675 -10.943 -22.498  0.00  0.00    +0.140 C 
ENDBRANCH  24  31
ENDBRANCH   3  25
TORSDOF 5
ENDMDL
MODEL 3
REMARK VINA RESULT:     -12.6      5.816      9.308
REMARK  Name = 21081761
REMARK  5 active torsions:
REMARK  status: ('A' for Active; 'I' for Inactive)
REMARK    1  A    between atoms: N_2  and  C_6
REMARK    2  A    between atoms: C_3  and  C_25
REMARK    3  A    between atoms: C_7  and  O_12
REMARK    4  A    between atoms: O_12  and  C_16
REMARK    5  A    between atoms: N_24  and  C_31
REMARK                            x       y       z     vdW  Elec       q    Type
REMARK                         _______ _______ _______ _____ _____    ______ ____
ROOT
ATOM      1  O   UNL     1      32.685 -22.417 -19.472  0.00  0.00    -0.270 OA
ATOM      2  N   UNL     1      34.526 -21.145 -18.724  0.00  0.00    -0.280 N 
ATOM      3  C   UNL     1      33.502 -22.088 -18.620  0.00  0.00    +0.254 C 
ATOM      4  H   UNL     1      35.083 -21.020 -17.921  0.00  0.00    +0.155 HD
ENDROOT
BRANCH   2   6
ATOM      5  F   UNL     1      37.744 -18.641 -21.223  0.00  0.00    -0.201 F 
ATOM      6  C   UNL     1      34.857 -20.357 -19.827  0.00  0.00    +0.053 C 
ATOM      7  C   UNL     1      35.518 -18.780 -22.031  0.00  0.00    +0.173 C 
ATOM      8  C   UNL     1      36.160 -19.882 -19.980  0.00  0.00    +0.047 C 
ATOM      9  C   UNL     1      33.885 -20.044 -20.777  0.00  0.00    +0.018 C 
ATOM     10  C   UNL     1      36.490 -19.093 -21.082  0.00  0.00    +0.176 C 
ATOM     11  C   UNL     1      34.215 -19.255 -21.879  0.00  0.00    +0.041 C 
BRANCH   7  12
ATOM     12  O   UNL     1      35.844 -17.998 -23.122  0.00  0.00    -0.451 OA
BRANCH  12  16
ATOM     13  N   UNL     1      33.862 -14.102 -21.520  0.00  0.00    -0.297 N 
ATOM     14  N   UNL     1      33.514 -14.554 -23.860  0.00  0.00    -0.229 NA
ATOM     15  C   UNL     1      34.800 -15.963 -22.320  0.00  0.00    +0.067 C 
ATOM     16  C   UNL     1      35.092 -16.879 -23.344  0.00  0.00    +0.150 C 
ATOM     17  C   UNL     1      34.026 -14.856 -22.652  0.00  0.00    +0.135 C 
ATOM     18  C   UNL     1      35.103 -15.854 -20.936  0.00  0.00    +0.022 C 
ATOM     19  C   UNL     1      34.513 -14.699 -20.471  0.00  0.00    +0.063 C 
ATOM     20  C   UNL     1      34.587 -16.614 -24.617  0.00  0.00    +0.058 C 
ATOM     21  C   UNL     1      33.826 -15.469 -24.808  0.00  0.00    +0.103 C 
ATOM     22  H   UNL     1      33.356 -13.259 -21.467  0.00  0.00    +0.154 HD
ENDBRANCH  12  16
ENDBRANCH   7  12
ENDBRANCH   2   6
BRANCH   3  25
ATOM     23  O   UNL     1      35.781 -22.929 -17.090  0.00  0.00    -0.269 OA
ATOM     24  N   UNL     1      34.495 -23.663 -15.247  0.00  0.00    -0.233 N 
ATOM     25  C   UNL     1      33.458 -22.725 -17.299  0.00  0.00    +0.108 C 
ATOM     26  C   UNL     1      34.696 -23.098 -16.534  0.00  0.00    +0.261 C 
ATOM     27  C   UNL     1      33.199 -23.910 -14.793  0.00  0.00    +0.072 C 
ATOM     28  C   UNL     1      32.247 -22.986 -16.793  0.00  0.00    +0.010 C 
ATOM     29  C   UNL     1      32.112 -23.605 -15.507  0.00  0.00    +0.017 C 
BRANCH  24  31
ATOM     30  F   UNL     1      38.893 -24.966 -12.071  0.00  0.00    -0.204 F 
ATOM     31  C   UNL     1      35.639 -24.002 -14.422  0.00  0.00    +0.059 C 
ATOM     32  C   UNL     1      36.175 -23.053 -13.551  0.00  0.00    +0.018 C 
ATOM     33  C   UNL     1      36.201 -25.276 -14.498  0.00  0.00    +0.018 C 
ATOM     34  C   UNL     1      37.275 -23.379 -12.756  0.00  0.00    +0.031 C 
ATOM     35  C   UNL     1      37.300 -25.603 -13.704  0.00  0.00    +0.031 C 
ATOM     36  C   UNL     1      37.837 -24.654 -12.833  0.00  0.00    +0.140 C 
ENDBRANCH  24  31
ENDBRANCH   3  25
TORSDOF 5
ENDMDL
MODEL 4
REMARK VINA RESULT:     -12.5      3.156     11.342
REMARK  Name = 21081761
REMARK  5 active torsions:
REMARK  status: ('A' for Active; 'I' for Inactive)
REMARK    1  A    between atoms: N_2  and  C_6
REMARK    2  A    between atoms: C_3  and  C_25
REMARK    3  A    between atoms: C_7  and  O_12
REMARK    4  A    between atoms: O_12  and  C_16
REMARK    5  A    between atoms: N_24  and  C_31
REMARK                            x       y       z     vdW  Elec       q    Type
REMARK                         _______ _______ _______ _____ _____    ______ ____
ROOT
ATOM      1  O   UNL     1      31.566 -13.130 -22.448  0.00  0.00    -0.270 OA
ATOM      2  N   UNL     1      33.884 -13.017 -22.026  0.00  0.00    -0.280 N 
ATOM      3  C   UNL     1      32.587 -12.517 -22.163  0.00  0.00    +0.254 C 
ATOM      4  H   UNL     1      34.579 -12.360 -21.791  0.00  0.00    +0.155 HD
ENDROOT
BRANCH   2   6
ATOM      5  F   UNL     1      34.989 -16.720 -24.843  0.00  0.00    -0.201 F 
ATOM      6  C   UNL     1      34.316 -14.334 -22.181  0.00  0.00    +0.053 C 
ATOM      7  C   UNL     1      35.177 -16.969 -22.491  0.00  0.00    +0.173 C 
ATOM      8  C   UNL     1      34.440 -14.882 -23.458  0.00  0.00    +0.047 C 
ATOM      9  C   UNL     1      34.624 -15.104 -21.059  0.00  0.00    +0.018 C 
ATOM     10  C   UNL     1      34.870 -16.200 -23.614  0.00  0.00    +0.176 C 
ATOM     11  C   UNL     1      35.053 -16.422 -21.214  0.00  0.00    +0.041 C 
BRANCH   7  12
ATOM     12  O   UNL     1      35.603 -18.275 -22.644  0.00  0.00    -0.451 OA
BRANCH  12  16
ATOM     13  N   UNL     1      34.047 -21.060 -19.253  0.00  0.00    -0.297 N 
ATOM     14  N   UNL     1      36.386 -20.496 -19.139  0.00  0.00    -0.229 NA
ATOM     15  C   UNL     1      34.824 -19.726 -20.866  0.00  0.00    +0.067 C 
ATOM     16  C   UNL     1      35.839 -18.999 -21.510  0.00  0.00    +0.150 C 
ATOM     17  C   UNL     1      35.172 -20.429 -19.717  0.00  0.00    +0.135 C 
ATOM     18  C   UNL     1      33.440 -19.953 -21.085  0.00  0.00    +0.022 C 
ATOM     19  C   UNL     1      32.988 -20.777 -20.078  0.00  0.00    +0.063 C 
ATOM     20  C   UNL     1      37.118 -19.034 -20.954  0.00  0.00    +0.058 C 
ATOM     21  C   UNL     1      37.324 -19.778 -19.800  0.00  0.00    +0.103 C 
ATOM     22  H   UNL     1      34.004 -21.630 -18.451  0.00  0.00    +0.154 HD
ENDBRANCH  12  16
ENDBRANCH   7  12
ENDBRANCH   2   6
BRANCH   3  25
ATOM     23  O   UNL     1      33.874 -10.491 -23.738  0.00  0.00    -0.269 OA
ATOM     24  N   UNL     1      32.978  -8.698 -22.483  0.00  0.00    -0.233 N 
ATOM     25  C   UNL     1      32.514 -11.072 -21.922  0.00  0.00    +0.108 C 
ATOM     26  C   UNL     1      33.178 -10.064 -22.817  0.00  0.00    +0.261 C 
ATOM     27  C   UNL     1      32.262  -8.363 -21.334  0.00  0.00    +0.072 C 
ATOM     28  C   UNL     1      31.835 -10.673 -20.841  0.00  0.00    +0.010 C 
ATOM     29  C   UNL     1      31.712  -9.279 -20.531  0.00  0.00    +0.017 C 
BRANCH  24  31
ATOM     30  F   UNL     1      35.142  -4.706 -25.725  0.00  0.00    -0.204 F 
ATOM     31  C   UNL     1      33.540  -7.660 -23.326  0.00  0.00    +0.059 C 
ATOM     32  C   UNL     1      34.880  -7.296 -23.183  0.00  0.00    +0.018 C 
ATOM     33  C   UNL     1      32.742  -7.027 -24.279  0.00  0.00    +0.018 C 
ATOM     34  C   UNL     1      35.421  -6.298 -23.994  0.00  0.00    +0.031 C 
ATOM     35  C   UNL     1      33.283  -6.029 -25.090  0.00  0.00    +0.031 C 
ATOM     36  C   UNL     1      34.622  -5.665 -24.948  0.00  0.00    +0.140 C 
ENDBRANCH  24  31
ENDBRANCH   3  25
TORSDOF 5
ENDMDL
MODEL 5
REMARK VINA RESULT:     -12.4      1.687      2.381
REMARK  Name = 21081761
REMARK  5 active torsions:
REMARK  status: ('A' for Active; 'I' for Inactive)
REMARK    1  A    between atoms: N_2  and  C_6
REMARK    2  A    between atoms: C_3  and  C_25
REMARK    3  A    between atoms: C_7  and  O_12
REMARK    4  A    between atoms: O_12  and  C_16
REMARK    5  A    between atoms: N_24  and  C_31
REMARK                            x       y       z     vdW  Elec       q    Type
REMARK                         _______ _______ _______ _____ _____    ______ ____
ROOT
ATOM      1  O   UNL     1      35.203 -13.755 -21.406  0.00  0.00    -0.270 OA
ATOM      2  N   UNL     1      33.333 -13.735 -22.844  0.00  0.00    -0.280 N 
ATOM      3  C   UNL     1      34.430 -14.296 -22.187  0.00  0.00    +0.254 C 
ATOM      4  H   UNL     1      32.830 -14.338 -23.438  0.00  0.00    +0.155 HD
ENDROOT
BRANCH   2   6
ATOM      5  F   UNL     1      30.926 -10.328 -20.507  0.00  0.00    -0.201 F 
ATOM      6  C   UNL     1      32.862 -12.425 -22.761  0.00  0.00    +0.053 C 
ATOM      7  C   UNL     1      31.920  -9.804 -22.597  0.00  0.00    +0.173 C 
ATOM      8  C   UNL     1      32.114 -12.020 -21.655  0.00  0.00    +0.047 C 
ATOM      9  C   UNL     1      33.140 -11.518 -23.784  0.00  0.00    +0.018 C 
ATOM     10  C   UNL     1      31.643 -10.710 -21.573  0.00  0.00    +0.176 C 
ATOM     11  C   UNL     1      32.668 -10.208 -23.703  0.00  0.00    +0.041 C 
BRANCH   7  12
ATOM     12  O   UNL     1      31.452  -8.506 -22.516  0.00  0.00    -0.451 OA
BRANCH  12  16
ATOM     13  N   UNL     1      35.135  -6.113 -24.061  0.00  0.00    -0.297 N 
ATOM     14  N   UNL     1      33.057  -5.661 -25.192  0.00  0.00    -0.229 NA
ATOM     15  C   UNL     1      33.349  -7.245 -23.343  0.00  0.00    +0.067 C 
ATOM     16  C   UNL     1      31.987  -7.588 -23.375  0.00  0.00    +0.150 C 
ATOM     17  C   UNL     1      33.792  -6.299 -24.262  0.00  0.00    +0.135 C 
ATOM     18  C   UNL     1      34.478  -7.631 -22.572  0.00  0.00    +0.022 C 
ATOM     19  C   UNL     1      35.562  -6.918 -23.036  0.00  0.00    +0.063 C 
ATOM     20  C   UNL     1      31.180  -6.958 -24.321  0.00  0.00    +0.058 C 
ATOM     21  C   UNL     1      31.755  -6.029 -25.177  0.00  0.00    +0.103 C 
ATOM     22  H   UNL     1      35.707  -5.497 -24.574  0.00  0.00    +0.154 HD
ENDBRANCH  12  16
ENDBRANCH   7  12
ENDBRANCH   2   6
BRANCH   3  25
ATOM     23  O   UNL     1      35.081 -16.382 -20.325  0.00  0.00    -0.269 OA
ATOM     24  N   UNL     1      35.025 -18.096 -21.954  0.00  0.00    -0.233 N 
ATOM     25  C   UNL     1      34.620 -15.712 -22.521  0.00  0.00    +0.108 C 
ATOM     26  C   UNL     1      34.915 -16.759 -21.485  0.00  0.00    +0.261 C 
ATOM     27  C   UNL     1      34.933 -18.360 -23.321  0.00  0.00    +0.072 C 
ATOM     28  C   UNL     1      34.538 -16.045 -23.814  0.00  0.00    +0.010 C 
ATOM     29  C   UNL     1      34.708 -17.406 -24.229  0.00  0.00    +0.017 C 
BRANCH  24  31
ATOM     30  F   UNL     1      35.913 -22.242 -18.328  0.00  0.00    -0.204 F 
ATOM     31  C   UNL     1      35.255 -19.174 -21.011  0.00  0.00    +0.059 C 
ATOM     32  C   UNL     1      36.543 -19.419 -20.534  0.00  0.00    +0.018 C 
ATOM     33  C   UNL     1      34.189 -19.965 -20.582  0.00  0.00    +0.018 C 
ATOM     34  C   UNL     1      36.765 -20.455 -19.627  0.00  0.00    +0.031 C 
ATOM     35  C   UNL     1      34.411 -21.001 -19.675  0.00  0.00    +0.031 C 
ATOM     36  C   UNL     1      35.699 -21.246 -19.198  0.00  0.00    +0.140 C 
ENDBRANCH  24  31
ENDBRANCH   3  25
TORSDOF 5
ENDMDL
MODEL 6
REMARK VINA RESULT:     -12.3      0.700      1.660
REMARK  Name = 21081761
REMARK  5 active torsions:
REMARK  status: ('A' for Active; 'I' for Inactive)
REMARK    1  A    between atoms: N_2  and  C_6
REMARK    2  A    between atoms: C_3  and  C_25
REMARK    3  A    between atoms: C_7  and  O_12
REMARK    4  A    between atoms: O_12  and  C_16
REMARK    5  A    between atoms: N_24  and  C_31
REMARK                            x       y       z     vdW  Elec       q    Type
REMARK                         _______ _______ _______ _____ _____    ______ ____
ROOT
ATOM      1  O   UNL     1      34.927 -13.729 -21.336  0.00  0.00    -0.270 OA
ATOM      2  N   UNL     1      33.214 -13.856 -22.953  0.00  0.00    -0.280 N 
ATOM      3  C   UNL     1      34.287 -14.326 -22.193  0.00  0.00    +0.254 C 
ATOM      4  H   UNL     1      32.829 -14.493 -23.598  0.00  0.00    +0.155 HD
ENDROOT
BRANCH   2   6
ATOM      5  F   UNL     1      29.904 -10.879 -21.208  0.00  0.00    -0.201 F 
ATOM      6  C   UNL     1      32.622 -12.594 -22.911  0.00  0.00    +0.053 C 
ATOM      7  C   UNL     1      31.436 -10.070 -22.828  0.00  0.00    +0.173 C 
ATOM      8  C   UNL     1      31.537 -12.359 -22.065  0.00  0.00    +0.047 C 
ATOM      9  C   UNL     1      33.114 -11.565 -23.715  0.00  0.00    +0.018 C 
ATOM     10  C   UNL     1      30.944 -11.098 -22.024  0.00  0.00    +0.176 C 
ATOM     11  C   UNL     1      32.521 -10.304 -23.674  0.00  0.00    +0.041 C 
BRANCH   7  12
ATOM     12  O   UNL     1      30.849  -8.820 -22.789  0.00  0.00    -0.451 OA
BRANCH  12  16
ATOM     13  N   UNL     1      33.199  -7.124 -19.145  0.00  0.00    -0.297 N 
ATOM     14  N   UNL     1      33.040  -5.657 -21.048  0.00  0.00    -0.229 NA
ATOM     15  C   UNL     1      32.077  -7.908 -20.910  0.00  0.00    +0.067 C 
ATOM     16  C   UNL     1      31.560  -7.806 -22.211  0.00  0.00    +0.150 C 
ATOM     17  C   UNL     1      32.787  -6.818 -20.416  0.00  0.00    +0.135 C 
ATOM     18  C   UNL     1      32.072  -8.894 -19.887  0.00  0.00    +0.022 C 
ATOM     19  C   UNL     1      32.769  -8.384 -18.813  0.00  0.00    +0.063 C 
ATOM     20  C   UNL     1      31.793  -6.624 -22.913  0.00  0.00    +0.058 C 
ATOM     21  C   UNL     1      32.518  -5.613 -22.296  0.00  0.00    +0.103 C 
ATOM     22  H   UNL     1      33.723  -6.531 -18.559  0.00  0.00    +0.154 HD
ENDBRANCH  12  16
ENDBRANCH   7  12
ENDBRANCH   2   6
BRANCH   3  25
ATOM     23  O   UNL     1      35.033 -16.346 -20.294  0.00  0.00    -0.269 OA
ATOM     24  N   UNL     1      35.241 -18.049 -21.921  0.00  0.00    -0.233 N 
ATOM     25  C   UNL     1      34.636 -15.715 -22.514  0.00  0.00    +0.108 C 
ATOM     26  C   UNL     1      34.972 -16.733 -21.461  0.00  0.00    +0.261 C 
ATOM     27  C   UNL     1      35.256 -18.316 -23.290  0.00  0.00    +0.072 C 
ATOM     28  C   UNL     1      34.662 -16.049 -23.809  0.00  0.00    +0.010 C 
ATOM     29  C   UNL     1      34.990 -17.384 -24.211  0.00  0.00    +0.017 C 
BRANCH  24  31
ATOM     30  F   UNL     1      36.324 -22.105 -18.246  0.00  0.00    -0.204 F 
ATOM     31  C   UNL     1      35.523 -19.103 -20.965  0.00  0.00    +0.059 C 
ATOM     32  C   UNL     1      34.501 -19.955 -20.545  0.00  0.00    +0.018 C 
ATOM     33  C   UNL     1      36.816 -19.266 -20.467  0.00  0.00    +0.018 C 
ATOM     34  C   UNL     1      34.772 -20.969 -19.627  0.00  0.00    +0.031 C 
ATOM     35  C   UNL     1      37.087 -20.280 -19.549  0.00  0.00    +0.031 C 
ATOM     36  C   UNL     1      36.065 -21.132 -19.129  0.00  0.00    +0.140 C 
ENDBRANCH  24  31
ENDBRANCH   3  25
TORSDOF 5
ENDMDL
MODEL 7
REMARK VINA RESULT:     -12.0      3.617     12.014
REMARK  Name = 21081761
REMARK  5 active torsions:
REMARK  status: ('A' for Active; 'I' for Inactive)
REMARK    1  A    between atoms: N_2  and  C_6
REMARK    2  A    between atoms: C_3  and  C_25
REMARK    3  A    between atoms: C_7  and  O_12
REMARK    4  A    between atoms: O_12  and  C_16
REMARK    5  A    between atoms: N_24  and  C_31
REMARK                            x       y       z     vdW  Elec       q    Type
REMARK                         _______ _______ _______ _____ _____    ______ ____
ROOT
ATOM      1  O   UNL     1      36.032 -17.269 -20.606  0.00  0.00    -0.270 OA
ATOM      2  N   UNL     1      34.375 -18.735 -21.426  0.00  0.00    -0.280 N 
ATOM      3  C   UNL     1      35.134 -17.563 -21.385  0.00  0.00    +0.254 C 
ATOM      4  H   UNL     1      33.693 -18.784 -22.133  0.00  0.00    +0.155 HD
ENDROOT
BRANCH   2   6
ATOM      5  F   UNL     1      32.341 -21.832 -18.402  0.00  0.00    -0.201 F 
ATOM      6  C   UNL     1      34.466 -19.844 -20.585  0.00  0.00    +0.053 C 
ATOM      7  C   UNL     1      34.649 -22.061 -18.901  0.00  0.00    +0.173 C 
ATOM      8  C   UNL     1      33.338 -20.295 -19.899  0.00  0.00    +0.047 C 
ATOM      9  C   UNL     1      35.686 -20.504 -20.429  0.00  0.00    +0.018 C 
ATOM     10  C   UNL     1      33.429 -21.404 -19.057  0.00  0.00    +0.176 C 
ATOM     11  C   UNL     1      35.778 -21.611 -19.587  0.00  0.00    +0.041 C 
BRANCH   7  12
ATOM     12  O   UNL     1      34.740 -23.159 -18.066  0.00  0.00    -0.451 OA
BRANCH  12  16
ATOM     13  N   UNL     1      33.728 -23.142 -13.522  0.00  0.00    -0.297 N 
ATOM     14  N   UNL     1      35.968 -22.461 -14.087  0.00  0.00    -0.229 NA
ATOM     15  C   UNL     1      34.245 -23.139 -15.694  0.00  0.00    +0.067 C 
ATOM     16  C   UNL     1      35.122 -22.938 -16.773  0.00  0.00    +0.150 C 
ATOM     17  C   UNL     1      34.734 -22.885 -14.417  0.00  0.00    +0.135 C 
ATOM     18  C   UNL     1      32.898 -23.562 -15.543  0.00  0.00    +0.022 C 
ATOM     19  C   UNL     1      32.607 -23.554 -14.196  0.00  0.00    +0.063 C 
ATOM     20  C   UNL     1      36.414 -22.500 -16.488  0.00  0.00    +0.058 C 
ATOM     21  C   UNL     1      36.769 -22.284 -15.163  0.00  0.00    +0.103 C 
ATOM     22  H   UNL     1      33.798 -23.046 -12.544  0.00  0.00    +0.154 HD
ENDBRANCH  12  16
ENDBRANCH   7  12
ENDBRANCH   2   6
BRANCH   3  25
ATOM     23  O   UNL     1      34.024 -14.950 -20.957  0.00  0.00    -0.269 OA
ATOM     24  N   UNL     1      33.942 -14.415 -23.259  0.00  0.00    -0.233 N 
ATOM     25  C   UNL     1      34.755 -16.613 -22.436  0.00  0.00    +0.108 C 
ATOM     26  C   UNL     1      34.221 -15.241 -22.137  0.00  0.00    +0.261 C 
ATOM     27  C   UNL     1      34.099 -14.922 -24.549  0.00  0.00    +0.072 C 
ATOM     28  C   UNL     1      34.886 -17.026 -23.702  0.00  0.00    +0.010 C 
ATOM     29  C   UNL     1      34.540 -16.161 -24.791  0.00  0.00    +0.017 C 
BRANCH  24  31
ATOM     30  F   UNL     1      32.140  -9.192 -22.481  0.00  0.00    -0.204 F 
ATOM     31  C   UNL     1      33.474 -13.057 -23.056  0.00  0.00    +0.059 C 
ATOM     32  C   UNL     1      34.120 -11.995 -23.690  0.00  0.00    +0.018 C 
ATOM     33  C   UNL     1      32.377 -12.814 -22.228  0.00  0.00    +0.018 C 
ATOM     34  C   UNL     1      33.669 -10.690 -23.496  0.00  0.00    +0.031 C 
ATOM     35  C   UNL     1      31.926 -11.508 -22.035  0.00  0.00    +0.031 C 
ATOM     36  C   UNL     1      32.572 -10.446 -22.668  0.00  0.00    +0.140 C 
ENDBRANCH  24  31
ENDBRANCH   3  25
TORSDOF 5
ENDMDL
MODEL 8
REMARK VINA RESULT:     -11.8      5.658      9.234
REMARK  Name = 21081761
REMARK  5 active torsions:
REMARK  status: ('A' for Active; 'I' for Inactive)
REMARK    1  A    between atoms: N_2  and  C_6
REMARK    2  A    between atoms: C_3  and  C_25
REMARK    3  A    between atoms: C_7  and  O_12
REMARK    4  A    between atoms: O_12  and  C_16
REMARK    5  A    between atoms: N_24  and  C_31
REMARK                            x       y       z     vdW  Elec       q    Type
REMARK                         _______ _______ _______ _____ _____    ______ ____
ROOT
ATOM      1  O   UNL     1      35.704 -22.870 -19.508  0.00  0.00    -0.270 OA
ATOM      2  N   UNL     1      34.910 -20.725 -18.927  0.00  0.00    -0.280 N 
ATOM      3  C   UNL     1      35.224 -22.070 -18.715  0.00  0.00    +0.254 C 
ATOM      4  H   UNL     1      34.527 -20.244 -18.159  0.00  0.00    +0.155 HD
ENDROOT
BRANCH   2   6
ATOM      5  F   UNL     1      37.658 -18.098 -21.828  0.00  0.00    -0.201 F 
ATOM      6  C   UNL     1      35.073 -19.982 -20.096  0.00  0.00    +0.053 C 
ATOM      7  C   UNL     1      35.398 -18.493 -22.433  0.00  0.00    +0.173 C 
ATOM      8  C   UNL     1      36.307 -19.399 -20.387  0.00  0.00    +0.047 C 
ATOM      9  C   UNL     1      34.002 -19.821 -20.975  0.00  0.00    +0.018 C 
ATOM     10  C   UNL     1      36.470 -18.654 -21.555  0.00  0.00    +0.176 C 
ATOM     11  C   UNL     1      34.164 -19.075 -22.143  0.00  0.00    +0.041 C 
BRANCH   7  12
ATOM     12  O   UNL     1      35.558 -17.754 -23.590  0.00  0.00    -0.451 OA
BRANCH  12  16
ATOM     13  N   UNL     1      33.784 -13.857 -21.762  0.00  0.00    -0.297 N 
ATOM     14  N   UNL     1      33.211 -14.275 -24.064  0.00  0.00    -0.229 NA
ATOM     15  C   UNL     1      34.619 -15.719 -22.668  0.00  0.00    +0.067 C 
ATOM     16  C   UNL     1      34.802 -16.624 -23.727  0.00  0.00    +0.150 C 
ATOM     17  C   UNL     1      33.831 -14.599 -22.913  0.00  0.00    +0.135 C 
ATOM     18  C   UNL     1      35.052 -15.630 -21.318  0.00  0.00    +0.022 C 
ATOM     19  C   UNL     1      34.523 -14.475 -20.786  0.00  0.00    +0.063 C 
ATOM     20  C   UNL     1      34.183 -16.337 -24.942  0.00  0.00    +0.058 C 
ATOM     21  C   UNL     1      33.421 -15.181 -25.047  0.00  0.00    +0.103 C 
ATOM     22  H   UNL     1      33.295 -13.009 -21.651  0.00  0.00    +0.154 HD
ENDBRANCH  12  16
ENDBRANCH   7  12
ENDBRANCH   2   6
BRANCH   3  25
ATOM     23  O   UNL     1      32.632 -22.848 -17.756  0.00  0.00    -0.269 OA
ATOM     24  N   UNL     1      33.403 -23.392 -15.588  0.00  0.00    -0.233 N 
ATOM     25  C   UNL     1      34.913 -22.509 -17.350  0.00  0.00    +0.108 C 
ATOM     26  C   UNL     1      33.539 -22.947 -16.930  0.00  0.00    +0.261 C 
ATOM     27  C   UNL     1      34.497 -23.334 -14.724  0.00  0.00    +0.072 C 
ATOM     28  C   UNL     1      35.917 -22.490 -16.465  0.00  0.00    +0.010 C 
ATOM     29  C   UNL     1      35.702 -22.905 -15.110  0.00  0.00    +0.017 C 
BRANCH  24  31
ATOM     30  F   UNL     1      28.473 -25.274 -13.777  0.00  0.00    -0.204 F 
ATOM     31  C   UNL     1      32.121 -23.881 -15.117  0.00  0.00    +0.059 C 
ATOM     32  C   UNL     1      30.943 -23.451 -15.728  0.00  0.00    +0.018 C 
ATOM     33  C   UNL     1      32.067 -24.783 -14.053  0.00  0.00    +0.018 C 
ATOM     34  C   UNL     1      29.711 -23.922 -15.275  0.00  0.00    +0.031 C 
ATOM     35  C   UNL     1      30.834 -25.254 -13.601  0.00  0.00    +0.031 C 
ATOM     36  C   UNL     1      29.656 -24.824 -14.212  0.00  0.00    +0.140 C 
ENDBRANCH  24  31
ENDBRANCH   3  25
TORSDOF 5
ENDMDL
MODEL 9
REMARK VINA RESULT:     -11.7      5.108     13.273
REMARK  Name = 21081761
REMARK  5 active torsions:
REMARK  status: ('A' for Active; 'I' for Inactive)
REMARK    1  A    between atoms: N_2  and  C_6
REMARK    2  A    between atoms: C_3  and  C_25
REMARK    3  A    between atoms: C_7  and  O_12
REMARK    4  A    between atoms: O_12  and  C_16
REMARK    5  A    between atoms: N_24  and  C_31
REMARK                            x       y       z     vdW  Elec       q    Type
REMARK                         _______ _______ _______ _____ _____    ______ ____
ROOT
ATOM      1  O   UNL     1      36.674 -19.576 -19.948  0.00  0.00    -0.270 OA
ATOM      2  N   UNL     1      34.575 -20.650 -20.021  0.00  0.00    -0.280 N 
ATOM      3  C   UNL     1      35.578 -19.780 -20.455  0.00  0.00    +0.254 C 
ATOM      4  H   UNL     1      33.756 -20.674 -20.568  0.00  0.00    +0.155 HD
ENDROOT
BRANCH   2   6
ATOM      5  F   UNL     1      32.289 -23.497 -16.933  0.00  0.00    -0.201 F 
ATOM      6  C   UNL     1      34.591 -21.489 -18.907  0.00  0.00    +0.053 C 
ATOM      7  C   UNL     1      34.624 -23.166 -16.678  0.00  0.00    +0.173 C 
ATOM      8  C   UNL     1      33.410 -22.087 -18.466  0.00  0.00    +0.047 C 
ATOM      9  C   UNL     1      35.789 -21.731 -18.234  0.00  0.00    +0.018 C 
ATOM     10  C   UNL     1      33.426 -22.925 -17.351  0.00  0.00    +0.176 C 
ATOM     11  C   UNL     1      35.805 -22.568 -17.118  0.00  0.00    +0.041 C 
BRANCH   7  12
ATOM     12  O   UNL     1      34.640 -23.995 -15.572  0.00  0.00    -0.451 OA
BRANCH  12  16
ATOM     13  N   UNL     1      38.213 -26.246 -13.611  0.00  0.00    -0.297 N 
ATOM     14  N   UNL     1      38.088 -23.888 -13.136  0.00  0.00    -0.229 NA
ATOM     15  C   UNL     1      36.510 -25.138 -14.537  0.00  0.00    +0.067 C 
ATOM     16  C   UNL     1      35.759 -23.978 -14.787  0.00  0.00    +0.150 C 
ATOM     17  C   UNL     1      37.632 -25.011 -13.723  0.00  0.00    +0.135 C 
ATOM     18  C   UNL     1      36.431 -26.504 -14.918  0.00  0.00    +0.022 C 
ATOM     19  C   UNL     1      37.491 -27.162 -14.333  0.00  0.00    +0.063 C 
ATOM     20  C   UNL     1      36.187 -22.786 -14.203  0.00  0.00    +0.058 C 
ATOM     21  C   UNL     1      37.327 -22.804 -13.410  0.00  0.00    +0.103 C 
ATOM     22  H   UNL     1      39.025 -26.448 -13.092  0.00  0.00    +0.154 HD
ENDBRANCH  12  16
ENDBRANCH   7  12
ENDBRANCH   2   6
BRANCH   3  25
ATOM     23  O   UNL     1      34.946 -16.984 -20.613  0.00  0.00    -0.269 OA
ATOM     24  N   UNL     1      34.625 -17.008 -22.956  0.00  0.00    -0.233 N 
ATOM     25  C   UNL     1      35.203 -19.056 -21.674  0.00  0.00    +0.108 C 
ATOM     26  C   UNL     1      34.930 -17.578 -21.691  0.00  0.00    +0.261 C 
ATOM     27  C   UNL     1      34.522 -17.829 -24.079  0.00  0.00    +0.072 C 
ATOM     28  C   UNL     1      35.093 -19.776 -22.796  0.00  0.00    +0.010 C 
ATOM     29  C   UNL     1      34.733 -19.148 -24.033  0.00  0.00    +0.017 C 
BRANCH  24  31
ATOM     30  F   UNL     1      33.761 -11.513 -23.385  0.00  0.00    -0.204 F 
ATOM     31  C   UNL     1      34.400 -15.580 -23.067  0.00  0.00    +0.059 C 
ATOM     32  C   UNL     1      34.720 -14.738 -22.002  0.00  0.00    +0.018 C 
ATOM     33  C   UNL     1      33.865 -15.048 -24.241  0.00  0.00    +0.018 C 
ATOM     34  C   UNL     1      34.505 -13.364 -22.110  0.00  0.00    +0.031 C 
ATOM     35  C   UNL     1      33.649 -13.674 -24.349  0.00  0.00    +0.031 C 
ATOM     36  C   UNL     1      33.969 -12.832 -23.283  0.00  0.00    +0.140 C 
ENDBRANCH  24  31
ENDBRANCH   3  25
TORSDOF 5
ENDMDL
