MODEL 1
REMARK VINA RESULT:     -11.6      0.000      0.000
REMARK  Name = 17754438
REMARK  6 active torsions:
REMARK  status: ('A' for Active; 'I' for Inactive)
REMARK    1  A    between atoms: N_1  and  C_19
REMARK    2  A    between atoms: C_7  and  C_12
REMARK    3  A    between atoms: N_10  and  C_15
REMARK    4  A    between atoms: C_15  and  C_16
REMARK    5  A    between atoms: C_16  and  O_17
REMARK    6  A    between atoms: C_19  and  C_21
REMARK                            x       y       z     vdW  Elec       q    Type
REMARK                         _______ _______ _______ _____ _____    ______ ____
ROOT
ATOM      1  N   UNL     1      33.083 -23.182 -17.204  0.00  0.00    -0.163 N 
ATOM      2  N   UNL     1      34.859 -24.315 -15.965  0.00  0.00    -0.378 NA
ATOM      3  N   UNL     1      31.939 -22.541 -16.892  0.00  0.00    -0.033 NA
ATOM      4  N   UNL     1      33.163 -23.509 -13.759  0.00  0.00    -0.208 NA
ATOM      5  N   UNL     1      31.803 -22.571 -15.566  0.00  0.00    -0.086 NA
ATOM      6  C   UNL     1      33.708 -23.637 -16.086  0.00  0.00    +0.267 C 
ATOM      7  C   UNL     1      35.132 -24.580 -14.667  0.00  0.00    +0.140 C 
ATOM      8  C   UNL     1      32.878 -23.238 -15.056  0.00  0.00    +0.098 C 
ATOM      9  C   UNL     1      34.320 -24.194 -13.610  0.00  0.00    +0.195 C 
ENDROOT
BRANCH   7  12
ATOM     10  N   UNL     1      38.395 -25.760 -13.817  0.00  0.00    -0.208 N 
ATOM     11  N   UNL     1      37.933 -26.940 -14.265  0.00  0.00    -0.176 NA
ATOM     12  C   UNL     1      36.345 -25.305 -14.420  0.00  0.00    +0.064 C 
ATOM     13  C   UNL     1      37.483 -24.748 -13.889  0.00  0.00    +0.088 C 
ATOM     14  C   UNL     1      36.680 -26.656 -14.632  0.00  0.00    +0.121 C 
BRANCH  10  15
ATOM     15  C   UNL     1      39.746 -25.661 -13.319  0.00  0.00    +0.148 C 
BRANCH  15  16
ATOM     16  C   UNL     1      40.766 -26.263 -14.276  0.00  0.00    +0.161 C 
BRANCH  16  17
ATOM     17  O   UNL     1      40.384 -25.990 -15.618  0.00  0.00    -0.380 OA
ATOM     18  H   UNL     1      40.262 -25.035 -15.732  0.00  0.00    +0.211 HD
ENDBRANCH  16  17
ENDBRANCH  15  16
ENDBRANCH  10  15
ENDBRANCH   7  12
BRANCH   1  19
ATOM     19  C   UNL     1      33.510 -23.315 -18.601  0.00  0.00    +0.145 C 
BRANCH  19  21
ATOM     20  N   UNL     1      37.006 -19.136 -20.131  0.00  0.00    -0.244 NA
ATOM     21  C   UNL     1      34.423 -22.209 -19.010  0.00  0.00    -0.000 C 
ATOM     22  C   UNL     1      34.044 -21.323 -20.014  0.00  0.00    -0.001 C 
ATOM     23  C   UNL     1      34.903 -20.280 -20.403  0.00  0.00    +0.017 C 
ATOM     24  C   UNL     1      35.660 -22.060 -18.393  0.00  0.00    -0.001 C 
ATOM     25  C   UNL     1      36.159 -20.123 -19.781  0.00  0.00    +0.081 C 
ATOM     26  C   UNL     1      36.513 -21.024 -18.781  0.00  0.00    +0.019 C 
ATOM     27  C   UNL     1      34.546 -19.374 -21.410  0.00  0.00    +0.003 C 
ATOM     28  C   UNL     1      35.416 -18.355 -21.772  0.00  0.00    +0.021 C 
ATOM     29  C   UNL     1      36.623 -18.281 -21.107  0.00  0.00    +0.099 C 
ENDBRANCH  19  21
ENDBRANCH   1  19
TORSDOF 6
ENDMDL
MODEL 2
REMARK VINA RESULT:     -11.4      1.001      1.566
REMARK  Name = 17754438
REMARK  6 active torsions:
REMARK  status: ('A' for Active; 'I' for Inactive)
REMARK    1  A    between atoms: N_1  and  C_19
REMARK    2  A    between atoms: C_7  and  C_12
REMARK    3  A    between atoms: N_10  and  C_15
REMARK    4  A    between atoms: C_15  and  C_16
REMARK    5  A    between atoms: C_16  and  O_17
REMARK    6  A    between atoms: C_19  and  C_21
REMARK                            x       y       z     vdW  Elec       q    Type
REMARK                         _______ _______ _______ _____ _____    ______ ____
ROOT
ATOM      1  N   UNL     1      33.225 -23.333 -17.093  0.00  0.00    -0.163 N 
ATOM      2  N   UNL     1      34.790 -24.119 -15.389  0.00  0.00    -0.378 NA
ATOM      3  N   UNL     1      31.975 -22.829 -17.105  0.00  0.00    -0.033 NA
ATOM      4  N   UNL     1      32.557 -23.379 -13.698  0.00  0.00    -0.208 NA
ATOM      5  N   UNL     1      31.546 -22.774 -15.844  0.00  0.00    -0.086 NA
ATOM      6  C   UNL     1      33.627 -23.612 -15.825  0.00  0.00    +0.267 C 
ATOM      7  C   UNL     1      34.789 -24.243 -14.041  0.00  0.00    +0.140 C 
ATOM      8  C   UNL     1      32.545 -23.249 -15.046  0.00  0.00    +0.098 C 
ATOM      9  C   UNL     1      33.720 -23.889 -13.231  0.00  0.00    +0.195 C 
ENDROOT
BRANCH   7  12
ATOM     10  N   UNL     1      38.038 -25.506 -13.262  0.00  0.00    -0.208 N 
ATOM     11  N   UNL     1      37.538 -25.635 -12.021  0.00  0.00    -0.176 NA
ATOM     12  C   UNL     1      35.988 -24.778 -13.464  0.00  0.00    +0.064 C 
ATOM     13  C   UNL     1      37.150 -24.997 -14.164  0.00  0.00    +0.088 C 
ATOM     14  C   UNL     1      36.286 -25.189 -12.151  0.00  0.00    +0.121 C 
BRANCH  10  15
ATOM     15  C   UNL     1      39.403 -25.892 -13.528  0.00  0.00    +0.148 C 
BRANCH  15  16
ATOM     16  C   UNL     1      40.019 -25.106 -14.678  0.00  0.00    +0.161 C 
BRANCH  16  17
ATOM     17  O   UNL     1      40.469 -26.003 -15.685  0.00  0.00    -0.380 OA
ATOM     18  H   UNL     1      41.438 -26.008 -15.704  0.00  0.00    +0.211 HD
ENDBRANCH  16  17
ENDBRANCH  15  16
ENDBRANCH  10  15
ENDBRANCH   7  12
BRANCH   1  19
ATOM     19  C   UNL     1      33.970 -23.516 -18.344  0.00  0.00    +0.145 C 
BRANCH  19  21
ATOM     20  N   UNL     1      34.777 -18.599 -21.027  0.00  0.00    -0.244 NA
ATOM     21  C   UNL     1      34.193 -22.222 -19.051  0.00  0.00    -0.000 C 
ATOM     22  C   UNL     1      35.486 -21.752 -19.260  0.00  0.00    -0.001 C 
ATOM     23  C   UNL     1      35.700 -20.533 -19.925  0.00  0.00    +0.017 C 
ATOM     24  C   UNL     1      33.110 -21.477 -19.503  0.00  0.00    -0.001 C 
ATOM     25  C   UNL     1      34.607 -19.772 -20.387  0.00  0.00    +0.081 C 
ATOM     26  C   UNL     1      33.324 -20.265 -20.164  0.00  0.00    +0.019 C 
ATOM     27  C   UNL     1      36.992 -20.037 -20.149  0.00  0.00    +0.003 C 
ATOM     28  C   UNL     1      37.171 -18.829 -20.809  0.00  0.00    +0.021 C 
ATOM     29  C   UNL     1      36.040 -18.156 -21.224  0.00  0.00    +0.099 C 
ENDBRANCH  19  21
ENDBRANCH   1  19
TORSDOF 6
ENDMDL
MODEL 3
REMARK VINA RESULT:     -11.2      6.515     12.314
REMARK  Name = 17754438
REMARK  6 active torsions:
REMARK  status: ('A' for Active; 'I' for Inactive)
REMARK    1  A    between atoms: N_1  and  C_19
REMARK    2  A    between atoms: C_7  and  C_12
REMARK    3  A    between atoms: N_10  and  C_15
REMARK    4  A    between atoms: C_15  and  C_16
REMARK    5  A    between atoms: C_16  and  O_17
REMARK    6  A    between atoms: C_19  and  C_21
REMARK                            x       y       z     vdW  Elec       q    Type
REMARK                         _______ _______ _______ _____ _____    ______ ____
ROOT
ATOM      1  N   UNL     1      35.162 -17.100 -22.956  0.00  0.00    -0.163 N 
ATOM      2  N   UNL     1      34.390 -14.785 -23.087  0.00  0.00    -0.378 NA
ATOM      3  N   UNL     1      35.050 -18.205 -23.720  0.00  0.00    -0.033 NA
ATOM      4  N   UNL     1      33.260 -15.816 -25.547  0.00  0.00    -0.208 NA
ATOM      5  N   UNL     1      34.326 -17.887 -24.793  0.00  0.00    -0.086 NA
ATOM      6  C   UNL     1      34.514 -16.048 -23.522  0.00  0.00    +0.267 C 
ATOM      7  C   UNL     1      33.660 -14.044 -23.952  0.00  0.00    +0.140 C 
ATOM      8  C   UNL     1      33.989 -16.570 -24.689  0.00  0.00    +0.098 C 
ATOM      9  C   UNL     1      33.119 -14.537 -25.131  0.00  0.00    +0.195 C 
ENDROOT
BRANCH   7  12
ATOM     10  N   UNL     1      32.630 -10.883 -22.645  0.00  0.00    -0.208 N 
ATOM     11  N   UNL     1      33.647 -10.403 -23.381  0.00  0.00    -0.176 NA
ATOM     12  C   UNL     1      33.462 -12.671 -23.583  0.00  0.00    +0.064 C 
ATOM     13  C   UNL     1      32.477 -12.235 -22.731  0.00  0.00    +0.088 C 
ATOM     14  C   UNL     1      34.152 -11.501 -23.952  0.00  0.00    +0.121 C 
BRANCH  10  15
ATOM     15  C   UNL     1      31.825  -9.978 -21.860  0.00  0.00    +0.148 C 
BRANCH  15  16
ATOM     16  C   UNL     1      32.015  -8.523 -22.270  0.00  0.00    +0.161 C 
BRANCH  16  17
ATOM     17  O   UNL     1      33.135  -7.976 -21.587  0.00  0.00    -0.380 OA
ATOM     18  H   UNL     1      32.858  -7.659 -20.713  0.00  0.00    +0.211 HD
ENDBRANCH  16  17
ENDBRANCH  15  16
ENDBRANCH  10  15
ENDBRANCH   7  12
BRANCH   1  19
ATOM     19  C   UNL     1      35.911 -17.134 -21.696  0.00  0.00    +0.145 C 
BRANCH  19  21
ATOM     20  N   UNL     1      35.453 -22.132 -19.080  0.00  0.00    -0.244 NA
ATOM     21  C   UNL     1      35.780 -18.451 -21.008  0.00  0.00    -0.000 C 
ATOM     22  C   UNL     1      34.520 -18.975 -20.732  0.00  0.00    -0.001 C 
ATOM     23  C   UNL     1      34.393 -20.215 -20.084  0.00  0.00    +0.017 C 
ATOM     24  C   UNL     1      36.915 -19.161 -20.636  0.00  0.00    -0.001 C 
ATOM     25  C   UNL     1      35.540 -20.941 -19.704  0.00  0.00    +0.081 C 
ATOM     26  C   UNL     1      36.788 -20.394 -19.991  0.00  0.00    +0.019 C 
ATOM     27  C   UNL     1      33.137 -20.765 -19.795  0.00  0.00    +0.003 C 
ATOM     28  C   UNL     1      33.044 -21.992 -19.152  0.00  0.00    +0.021 C 
ATOM     29  C   UNL     1      34.222 -22.629 -18.820  0.00  0.00    +0.099 C 
ENDBRANCH  19  21
ENDBRANCH   1  19
TORSDOF 6
ENDMDL
MODEL 4
REMARK VINA RESULT:     -11.2      2.663      4.043
REMARK  Name = 17754438
REMARK  6 active torsions:
REMARK  status: ('A' for Active; 'I' for Inactive)
REMARK    1  A    between atoms: N_1  and  C_19
REMARK    2  A    between atoms: C_7  and  C_12
REMARK    3  A    between atoms: N_10  and  C_15
REMARK    4  A    between atoms: C_15  and  C_16
REMARK    5  A    between atoms: C_16  and  O_17
REMARK    6  A    between atoms: C_19  and  C_21
REMARK                            x       y       z     vdW  Elec       q    Type
REMARK                         _______ _______ _______ _____ _____    ______ ____
ROOT
ATOM      1  N   UNL     1      34.747 -20.846 -19.672  0.00  0.00    -0.163 N 
ATOM      2  N   UNL     1      35.671 -21.865 -17.652  0.00  0.00    -0.378 NA
ATOM      3  N   UNL     1      33.553 -20.840 -20.297  0.00  0.00    -0.033 NA
ATOM      4  N   UNL     1      32.961 -22.882 -17.517  0.00  0.00    -0.208 NA
ATOM      5  N   UNL     1      32.716 -21.597 -19.586  0.00  0.00    -0.086 NA
ATOM      6  C   UNL     1      34.705 -21.606 -18.546  0.00  0.00    +0.267 C 
ATOM      7  C   UNL     1      35.215 -22.673 -16.667  0.00  0.00    +0.140 C 
ATOM      8  C   UNL     1      33.405 -22.074 -18.510  0.00  0.00    +0.098 C 
ATOM      9  C   UNL     1      33.918 -23.160 -16.602  0.00  0.00    +0.195 C 
ENDROOT
BRANCH   7  12
ATOM     10  N   UNL     1      37.035 -23.835 -13.822  0.00  0.00    -0.208 N 
ATOM     11  N   UNL     1      38.085 -23.256 -14.430  0.00  0.00    -0.176 NA
ATOM     12  C   UNL     1      36.170 -23.017 -15.653  0.00  0.00    +0.064 C 
ATOM     13  C   UNL     1      35.865 -23.721 -14.513  0.00  0.00    +0.088 C 
ATOM     14  C   UNL     1      37.549 -22.757 -15.548  0.00  0.00    +0.121 C 
BRANCH  10  15
ATOM     15  C   UNL     1      37.220 -24.501 -12.554  0.00  0.00    +0.148 C 
BRANCH  15  16
ATOM     16  C   UNL     1      37.230 -23.531 -11.381  0.00  0.00    +0.161 C 
BRANCH  16  17
ATOM     17  O   UNL     1      38.538 -23.001 -11.208  0.00  0.00    -0.380 OA
ATOM     18  H   UNL     1      38.678 -22.275 -11.834  0.00  0.00    +0.211 HD
ENDBRANCH  16  17
ENDBRANCH  15  16
ENDBRANCH  10  15
ENDBRANCH   7  12
BRANCH   1  19
ATOM     19  C   UNL     1      35.882 -20.095 -20.220  0.00  0.00    +0.145 C 
BRANCH  19  21
ATOM     20  N   UNL     1      34.340 -16.900 -24.628  0.00  0.00    -0.244 NA
ATOM     21  C   UNL     1      35.478 -19.245 -21.376  0.00  0.00    -0.000 C 
ATOM     22  C   UNL     1      35.441 -17.859 -21.247  0.00  0.00    -0.001 C 
ATOM     23  C   UNL     1      35.060 -17.054 -22.335  0.00  0.00    +0.017 C 
ATOM     24  C   UNL     1      35.134 -19.831 -22.589  0.00  0.00    -0.001 C 
ATOM     25  C   UNL     1      34.710 -17.642 -23.568  0.00  0.00    +0.081 C 
ATOM     26  C   UNL     1      34.755 -19.030 -23.669  0.00  0.00    +0.019 C 
ATOM     27  C   UNL     1      35.015 -15.657 -22.232  0.00  0.00    +0.003 C 
ATOM     28  C   UNL     1      34.634 -14.890 -23.324  0.00  0.00    +0.021 C 
ATOM     29  C   UNL     1      34.309 -15.555 -24.488  0.00  0.00    +0.099 C 
ENDBRANCH  19  21
ENDBRANCH   1  19
TORSDOF 6
ENDMDL
MODEL 5
REMARK VINA RESULT:     -10.9      4.074      6.604
REMARK  Name = 17754438
REMARK  6 active torsions:
REMARK  status: ('A' for Active; 'I' for Inactive)
REMARK    1  A    between atoms: N_1  and  C_19
REMARK    2  A    between atoms: C_7  and  C_12
REMARK    3  A    between atoms: N_10  and  C_15
REMARK    4  A    between atoms: C_15  and  C_16
REMARK    5  A    between atoms: C_16  and  O_17
REMARK    6  A    between atoms: C_19  and  C_21
REMARK                            x       y       z     vdW  Elec       q    Type
REMARK                         _______ _______ _______ _____ _____    ______ ____
ROOT
ATOM      1  N   UNL     1      34.256 -23.282 -16.966  0.00  0.00    -0.163 N 
ATOM      2  N   UNL     1      31.899 -23.364 -16.326  0.00  0.00    -0.378 NA
ATOM      3  N   UNL     1      35.433 -23.148 -16.322  0.00  0.00    -0.033 NA
ATOM      4  N   UNL     1      33.104 -23.036 -13.712  0.00  0.00    -0.208 NA
ATOM      5  N   UNL     1      35.174 -23.037 -15.019  0.00  0.00    -0.086 NA
ATOM      6  C   UNL     1      33.216 -23.260 -16.092  0.00  0.00    +0.267 C 
ATOM      7  C   UNL     1      31.195 -23.294 -15.173  0.00  0.00    +0.140 C 
ATOM      8  C   UNL     1      33.821 -23.104 -14.859  0.00  0.00    +0.098 C 
ATOM      9  C   UNL     1      31.772 -23.137 -13.920  0.00  0.00    +0.195 C 
ENDROOT
BRANCH   7  12
ATOM     10  N   UNL     1      27.680 -22.842 -15.622  0.00  0.00    -0.208 N 
ATOM     11  N   UNL     1      27.622 -24.167 -15.401  0.00  0.00    -0.176 NA
ATOM     12  C   UNL     1      29.770 -23.394 -15.306  0.00  0.00    +0.064 C 
ATOM     13  C   UNL     1      28.944 -22.330 -15.576  0.00  0.00    +0.088 C 
ATOM     14  C   UNL     1      28.902 -24.498 -15.209  0.00  0.00    +0.121 C 
BRANCH  10  15
ATOM     15  C   UNL     1      26.466 -22.105 -15.880  0.00  0.00    +0.148 C 
BRANCH  15  16
ATOM     16  C   UNL     1      26.317 -21.720 -17.346  0.00  0.00    +0.161 C 
BRANCH  16  17
ATOM     17  O   UNL     1      25.999 -20.338 -17.448  0.00  0.00    -0.380 OA
ATOM     18  H   UNL     1      26.371 -19.981 -18.269  0.00  0.00    +0.211 HD
ENDBRANCH  16  17
ENDBRANCH  15  16
ENDBRANCH  10  15
ENDBRANCH   7  12
BRANCH   1  19
ATOM     19  C   UNL     1      34.214 -23.427 -18.425  0.00  0.00    +0.145 C 
BRANCH  19  21
ATOM     20  N   UNL     1      34.692 -18.436 -21.049  0.00  0.00    -0.244 NA
ATOM     21  C   UNL     1      34.350 -22.113 -19.118  0.00  0.00    -0.000 C 
ATOM     22  C   UNL     1      35.611 -21.617 -19.436  0.00  0.00    -0.001 C 
ATOM     23  C   UNL     1      35.743 -20.379 -20.089  0.00  0.00    +0.017 C 
ATOM     24  C   UNL     1      33.219 -21.376 -19.446  0.00  0.00    -0.001 C 
ATOM     25  C   UNL     1      34.600 -19.626 -20.425  0.00  0.00    +0.081 C 
ATOM     26  C   UNL     1      33.352 -20.146 -20.094  0.00  0.00    +0.019 C 
ATOM     27  C   UNL     1      37.001 -19.857 -20.421  0.00  0.00    +0.003 C 
ATOM     28  C   UNL     1      37.099 -18.631 -21.065  0.00  0.00    +0.021 C 
ATOM     29  C   UNL     1      35.924 -17.967 -21.353  0.00  0.00    +0.099 C 
ENDBRANCH  19  21
ENDBRANCH   1  19
TORSDOF 6
ENDMDL
MODEL 6
REMARK VINA RESULT:     -10.6      6.005     10.105
REMARK  Name = 17754438
REMARK  6 active torsions:
REMARK  status: ('A' for Active; 'I' for Inactive)
REMARK    1  A    between atoms: N_1  and  C_19
REMARK    2  A    between atoms: C_7  and  C_12
REMARK    3  A    between atoms: N_10  and  C_15
REMARK    4  A    between atoms: C_15  and  C_16
REMARK    5  A    between atoms: C_16  and  O_17
REMARK    6  A    between atoms: C_19  and  C_21
REMARK                            x       y       z     vdW  Elec       q    Type
REMARK                         _______ _______ _______ _____ _____    ______ ____
ROOT
ATOM      1  N   UNL     1      34.448 -15.183 -23.712  0.00  0.00    -0.163 N 
ATOM      2  N   UNL     1      35.053 -17.125 -22.357  0.00  0.00    -0.378 NA
ATOM      3  N   UNL     1      33.873 -14.980 -24.915  0.00  0.00    -0.033 NA
ATOM      4  N   UNL     1      33.915 -18.470 -24.657  0.00  0.00    -0.208 NA
ATOM      5  N   UNL     1      33.593 -16.172 -25.440  0.00  0.00    -0.086 NA
ATOM      6  C   UNL     1      34.548 -16.511 -23.438  0.00  0.00    +0.267 C 
ATOM      7  C   UNL     1      34.963 -18.470 -22.478  0.00  0.00    +0.140 C 
ATOM      8  C   UNL     1      33.999 -17.122 -24.549  0.00  0.00    +0.098 C 
ATOM      9  C   UNL     1      34.417 -19.114 -23.580  0.00  0.00    +0.195 C 
ENDROOT
BRANCH   7  12
ATOM     10  N   UNL     1      35.618 -20.707 -19.772  0.00  0.00    -0.208 N 
ATOM     11  N   UNL     1      36.789 -20.053 -19.697  0.00  0.00    -0.176 NA
ATOM     12  C   UNL     1      35.475 -19.230 -21.375  0.00  0.00    +0.064 C 
ATOM     13  C   UNL     1      34.795 -20.253 -20.760  0.00  0.00    +0.088 C 
ATOM     14  C   UNL     1      36.696 -19.151 -20.678  0.00  0.00    +0.121 C 
BRANCH  10  15
ATOM     15  C   UNL     1      35.339 -21.784 -18.853  0.00  0.00    +0.148 C 
BRANCH  15  16
ATOM     16  C   UNL     1      33.924 -22.327 -19.000  0.00  0.00    +0.161 C 
BRANCH  16  17
ATOM     17  O   UNL     1      33.841 -23.617 -18.409  0.00  0.00    -0.380 OA
ATOM     18  H   UNL     1      33.685 -24.280 -19.100  0.00  0.00    +0.211 HD
ENDBRANCH  16  17
ENDBRANCH  15  16
ENDBRANCH  10  15
ENDBRANCH   7  12
BRANCH   1  19
ATOM     19  C   UNL     1      34.872 -14.049 -22.884  0.00  0.00    +0.145 C 
BRANCH  19  21
ATOM     20  N   UNL     1      30.759 -10.204 -22.320  0.00  0.00    -0.244 NA
ATOM     21  C   UNL     1      33.793 -13.030 -22.743  0.00  0.00    -0.000 C 
ATOM     22  C   UNL     1      33.894 -11.807 -23.399  0.00  0.00    -0.001 C 
ATOM     23  C   UNL     1      32.879 -10.844 -23.268  0.00  0.00    +0.017 C 
ATOM     24  C   UNL     1      32.681 -13.295 -21.953  0.00  0.00    -0.001 C 
ATOM     25  C   UNL     1      31.748 -11.106 -22.468  0.00  0.00    +0.081 C 
ATOM     26  C   UNL     1      31.673 -12.337 -21.823  0.00  0.00    +0.019 C 
ATOM     27  C   UNL     1      32.956  -9.605 -23.918  0.00  0.00    +0.003 C 
ATOM     28  C   UNL     1      31.938  -8.674 -23.768  0.00  0.00    +0.021 C 
ATOM     29  C   UNL     1      30.871  -9.020 -22.965  0.00  0.00    +0.099 C 
ENDBRANCH  19  21
ENDBRANCH   1  19
TORSDOF 6
ENDMDL
MODEL 7
REMARK VINA RESULT:     -10.3      2.448      3.481
REMARK  Name = 17754438
REMARK  6 active torsions:
REMARK  status: ('A' for Active; 'I' for Inactive)
REMARK    1  A    between atoms: N_1  and  C_19
REMARK    2  A    between atoms: C_7  and  C_12
REMARK    3  A    between atoms: N_10  and  C_15
REMARK    4  A    between atoms: C_15  and  C_16
REMARK    5  A    between atoms: C_16  and  O_17
REMARK    6  A    between atoms: C_19  and  C_21
REMARK                            x       y       z     vdW  Elec       q    Type
REMARK                         _______ _______ _______ _____ _____    ______ ____
ROOT
ATOM      1  N   UNL     1      34.843 -21.591 -19.179  0.00  0.00    -0.163 N 
ATOM      2  N   UNL     1      35.674 -22.502 -17.070  0.00  0.00    -0.378 NA
ATOM      3  N   UNL     1      33.637 -21.440 -19.763  0.00  0.00    -0.033 NA
ATOM      4  N   UNL     1      32.837 -22.966 -16.717  0.00  0.00    -0.208 NA
ATOM      5  N   UNL     1      32.717 -21.930 -18.932  0.00  0.00    -0.086 NA
ATOM      6  C   UNL     1      34.724 -22.180 -17.960  0.00  0.00    +0.267 C 
ATOM      7  C   UNL     1      35.134 -23.078 -15.971  0.00  0.00    +0.140 C 
ATOM      8  C   UNL     1      33.365 -22.388 -17.822  0.00  0.00    +0.098 C 
ATOM      9  C   UNL     1      33.775 -23.301 -15.802  0.00  0.00    +0.195 C 
ENDROOT
BRANCH   7  12
ATOM     10  N   UNL     1      36.868 -24.247 -13.075  0.00  0.00    -0.208 N 
ATOM     11  N   UNL     1      37.965 -23.853 -13.743  0.00  0.00    -0.176 NA
ATOM     12  C   UNL     1      36.064 -23.464 -14.949  0.00  0.00    +0.064 C 
ATOM     13  C   UNL     1      35.703 -24.036 -13.753  0.00  0.00    +0.088 C 
ATOM     14  C   UNL     1      37.468 -23.375 -14.888  0.00  0.00    +0.121 C 
BRANCH  10  15
ATOM     15  C   UNL     1      37.000 -24.834 -11.763  0.00  0.00    +0.148 C 
BRANCH  15  16
ATOM     16  C   UNL     1      36.413 -23.954 -10.668  0.00  0.00    +0.161 C 
BRANCH  16  17
ATOM     17  O   UNL     1      37.288 -22.864 -10.408  0.00  0.00    -0.380 OA
ATOM     18  H   UNL     1      36.767 -22.068 -10.221  0.00  0.00    +0.211 HD
ENDBRANCH  16  17
ENDBRANCH  15  16
ENDBRANCH  10  15
ENDBRANCH   7  12
BRANCH   1  19
ATOM     19  C   UNL     1      36.063 -21.142 -19.857  0.00  0.00    +0.145 C 
BRANCH  19  21
ATOM     20  N   UNL     1      35.118 -16.666 -23.189  0.00  0.00    -0.244 NA
ATOM     21  C   UNL     1      35.808 -19.968 -20.741  0.00  0.00    -0.000 C 
ATOM     22  C   UNL     1      35.086 -20.124 -21.921  0.00  0.00    -0.001 C 
ATOM     23  C   UNL     1      34.844 -19.020 -22.757  0.00  0.00    +0.017 C 
ATOM     24  C   UNL     1      36.291 -18.713 -20.393  0.00  0.00    -0.001 C 
ATOM     25  C   UNL     1      35.331 -17.743 -22.409  0.00  0.00    +0.081 C 
ATOM     26  C   UNL     1      36.050 -17.616 -21.224  0.00  0.00    +0.019 C 
ATOM     27  C   UNL     1      34.120 -19.149 -23.950  0.00  0.00    +0.003 C 
ATOM     28  C   UNL     1      33.899 -18.040 -24.754  0.00  0.00    +0.021 C 
ATOM     29  C   UNL     1      34.414 -16.832 -24.331  0.00  0.00    +0.099 C 
ENDBRANCH  19  21
ENDBRANCH   1  19
TORSDOF 6
ENDMDL
MODEL 8
REMARK VINA RESULT:     -10.0      4.476      9.586
REMARK  Name = 17754438
REMARK  6 active torsions:
REMARK  status: ('A' for Active; 'I' for Inactive)
REMARK    1  A    between atoms: N_1  and  C_19
REMARK    2  A    between atoms: C_7  and  C_12
REMARK    3  A    between atoms: N_10  and  C_15
REMARK    4  A    between atoms: C_15  and  C_16
REMARK    5  A    between atoms: C_16  and  O_17
REMARK    6  A    between atoms: C_19  and  C_21
REMARK                            x       y       z     vdW  Elec       q    Type
REMARK                         _______ _______ _______ _____ _____    ______ ____
ROOT
ATOM      1  N   UNL     1      35.073 -21.483 -19.009  0.00  0.00    -0.163 N 
ATOM      2  N   UNL     1      34.834 -20.036 -20.964  0.00  0.00    -0.378 NA
ATOM      3  N   UNL     1      35.998 -21.667 -18.045  0.00  0.00    -0.033 NA
ATOM      4  N   UNL     1      37.416 -19.139 -20.005  0.00  0.00    -0.208 NA
ATOM      5  N   UNL     1      37.003 -20.823 -18.277  0.00  0.00    -0.086 NA
ATOM      6  C   UNL     1      35.463 -20.515 -19.880  0.00  0.00    +0.267 C 
ATOM      7  C   UNL     1      35.567 -19.069 -21.562  0.00  0.00    +0.140 C 
ATOM      8  C   UNL     1      36.692 -20.109 -19.397  0.00  0.00    +0.098 C 
ATOM      9  C   UNL     1      36.804 -18.639 -21.103  0.00  0.00    +0.195 C 
ENDROOT
BRANCH   7  12
ATOM     10  N   UNL     1      34.356 -17.001 -24.211  0.00  0.00    -0.208 N 
ATOM     11  N   UNL     1      33.917 -18.161 -24.729  0.00  0.00    -0.176 NA
ATOM     12  C   UNL     1      34.987 -18.485 -22.737  0.00  0.00    +0.064 C 
ATOM     13  C   UNL     1      35.004 -17.140 -23.019  0.00  0.00    +0.088 C 
ATOM     14  C   UNL     1      34.305 -19.064 -23.823  0.00  0.00    +0.121 C 
BRANCH  10  15
ATOM     15  C   UNL     1      34.124 -15.766 -24.921  0.00  0.00    +0.148 C 
BRANCH  15  16
ATOM     16  C   UNL     1      33.784 -14.612 -23.988  0.00  0.00    +0.161 C 
BRANCH  16  17
ATOM     17  O   UNL     1      32.523 -14.062 -24.346  0.00  0.00    -0.380 OA
ATOM     18  H   UNL     1      32.651 -13.183 -24.734  0.00  0.00    +0.211 HD
ENDBRANCH  16  17
ENDBRANCH  15  16
ENDBRANCH  10  15
ENDBRANCH   7  12
BRANCH   1  19
ATOM     19  C   UNL     1      33.839 -22.275 -19.022  0.00  0.00    +0.145 C 
BRANCH  19  21
ATOM     20  N   UNL     1      32.303 -23.820 -13.799  0.00  0.00    -0.244 NA
ATOM     21  C   UNL     1      33.424 -22.680 -17.649  0.00  0.00    -0.000 C 
ATOM     22  C   UNL     1      32.100 -22.532 -17.244  0.00  0.00    -0.001 C 
ATOM     23  C   UNL     1      31.706 -22.913 -15.950  0.00  0.00    +0.017 C 
ATOM     24  C   UNL     1      34.357 -23.206 -16.763  0.00  0.00    -0.001 C 
ATOM     25  C   UNL     1      32.647 -23.447 -15.047  0.00  0.00    +0.081 C 
ATOM     26  C   UNL     1      33.965 -23.583 -15.477  0.00  0.00    +0.019 C 
ATOM     27  C   UNL     1      30.380 -22.775 -15.518  0.00  0.00    +0.003 C 
ATOM     28  C   UNL     1      30.021 -23.159 -14.233  0.00  0.00    +0.021 C 
ATOM     29  C   UNL     1      31.012 -23.671 -13.421  0.00  0.00    +0.099 C 
ENDBRANCH  19  21
ENDBRANCH   1  19
TORSDOF 6
ENDMDL
MODEL 9
REMARK VINA RESULT:      -9.9      3.215      8.808
REMARK  Name = 17754438
REMARK  6 active torsions:
REMARK  status: ('A' for Active; 'I' for Inactive)
REMARK    1  A    between atoms: N_1  and  C_19
REMARK    2  A    between atoms: C_7  and  C_12
REMARK    3  A    between atoms: N_10  and  C_15
REMARK    4  A    between atoms: C_15  and  C_16
REMARK    5  A    between atoms: C_16  and  O_17
REMARK    6  A    between atoms: C_19  and  C_21
REMARK                            x       y       z     vdW  Elec       q    Type
REMARK                         _______ _______ _______ _____ _____    ______ ____
ROOT
ATOM      1  N   UNL     1      35.630 -22.510 -16.964  0.00  0.00    -0.163 N 
ATOM      2  N   UNL     1      35.607 -21.009 -18.892  0.00  0.00    -0.378 NA
ATOM      3  N   UNL     1      34.773 -23.391 -16.409  0.00  0.00    -0.033 NA
ATOM      4  N   UNL     1      32.966 -22.172 -19.147  0.00  0.00    -0.208 NA
ATOM      5  N   UNL     1      33.659 -23.391 -17.140  0.00  0.00    -0.086 NA
ATOM      6  C   UNL     1      35.086 -21.927 -18.064  0.00  0.00    +0.267 C 
ATOM      7  C   UNL     1      34.732 -20.690 -19.873  0.00  0.00    +0.140 C 
ATOM      8  C   UNL     1      33.832 -22.501 -18.158  0.00  0.00    +0.098 C 
ATOM      9  C   UNL     1      33.467 -21.247 -19.996  0.00  0.00    +0.195 C 
ENDROOT
BRANCH   7  12
ATOM     10  N   UNL     1      35.263 -18.411 -22.573  0.00  0.00    -0.208 N 
ATOM     11  N   UNL     1      36.401 -18.119 -21.919  0.00  0.00    -0.176 NA
ATOM     12  C   UNL     1      35.187 -19.712 -20.819  0.00  0.00    +0.064 C 
ATOM     13  C   UNL     1      34.500 -19.359 -21.956  0.00  0.00    +0.088 C 
ATOM     14  C   UNL     1      36.349 -18.917 -20.849  0.00  0.00    +0.121 C 
BRANCH  10  15
ATOM     15  C   UNL     1      34.952 -17.732 -23.808  0.00  0.00    +0.148 C 
BRANCH  15  16
ATOM     16  C   UNL     1      34.603 -16.265 -23.596  0.00  0.00    +0.161 C 
BRANCH  16  17
ATOM     17  O   UNL     1      35.719 -15.583 -23.040  0.00  0.00    -0.380 OA
ATOM     18  H   UNL     1      36.187 -15.103 -23.740  0.00  0.00    +0.211 HD
ENDBRANCH  16  17
ENDBRANCH  15  16
ENDBRANCH  10  15
ENDBRANCH   7  12
BRANCH   1  19
ATOM     19  C   UNL     1      36.956 -22.286 -16.379  0.00  0.00    +0.145 C 
BRANCH  19  21
ATOM     20  N   UNL     1      37.741 -25.311 -11.660  0.00  0.00    -0.244 NA
ATOM     21  C   UNL     1      37.154 -23.080 -15.132  0.00  0.00    -0.000 C 
ATOM     22  C   UNL     1      36.278 -22.930 -14.060  0.00  0.00    -0.001 C 
ATOM     23  C   UNL     1      36.462 -23.676 -12.883  0.00  0.00    +0.017 C 
ATOM     24  C   UNL     1      38.216 -23.971 -15.031  0.00  0.00    -0.001 C 
ATOM     25  C   UNL     1      37.537 -24.582 -12.774  0.00  0.00    +0.081 C 
ATOM     26  C   UNL     1      38.398 -24.711 -13.861  0.00  0.00    +0.019 C 
ATOM     27  C   UNL     1      35.594 -23.545 -11.790  0.00  0.00    +0.003 C 
ATOM     28  C   UNL     1      35.803 -24.295 -10.641  0.00  0.00    +0.021 C 
ATOM     29  C   UNL     1      36.881 -25.156 -10.628  0.00  0.00    +0.099 C 
ENDBRANCH  19  21
ENDBRANCH   1  19
TORSDOF 6
ENDMDL
