MODEL 1
REMARK VINA RESULT:     -11.7      0.000      0.000
REMARK  Name = 9865515
REMARK  6 active torsions:
REMARK  status: ('A' for Active; 'I' for Inactive)
REMARK    1  A    between atoms: C_1  and  C_20
REMARK    2  A    between atoms: C_2  and  C_9
REMARK    3  A    between atoms: N_8  and  C_11
REMARK    4  A    between atoms: C_12  and  N_17
REMARK    5  A    between atoms: C_20  and  N_21
REMARK    6  A    between atoms: C_25  and  C_30
REMARK                            x       y       z     vdW  Elec       q    Type
REMARK                         _______ _______ _______ _____ _____    ______ ____
ROOT
ATOM      1  C   UNL     1      34.535 -22.146 -19.136  0.00  0.00    -0.002 C 
ATOM      2  C   UNL     1      35.180 -19.718 -20.347  0.00  0.00    +0.054 C 
ATOM      3  C   UNL     1      33.524 -21.329 -19.643  0.00  0.00    -0.002 C 
ATOM      4  C   UNL     1      35.868 -21.749 -19.236  0.00  0.00    -0.002 C 
ATOM      5  C   UNL     1      33.846 -20.114 -20.247  0.00  0.00    +0.004 C 
ATOM      6  C   UNL     1      36.191 -20.535 -19.841  0.00  0.00    +0.004 C 
ENDROOT
BRANCH   2   9
ATOM      7  O   UNL     1      36.610 -18.333 -21.552  0.00  0.00    -0.270 OA
ATOM      8  N   UNL     1      34.538 -17.449 -20.894  0.00  0.00    -0.279 N 
ATOM      9  C   UNL     1      35.516 -18.449 -20.976  0.00  0.00    +0.250 C 
ATOM     10  H   UNL     1      33.721 -17.688 -20.403  0.00  0.00    +0.155 HD
BRANCH   8  11
ATOM     11  C   UNL     1      34.575 -16.136 -21.428  0.00  0.00    +0.064 C 
ATOM     12  C   UNL     1      34.679 -15.940 -22.795  0.00  0.00    +0.055 C 
ATOM     13  C   UNL     1      34.505 -15.067 -20.549  0.00  0.00    +0.016 C 
ATOM     14  C   UNL     1      34.713 -14.639 -23.298  0.00  0.00    +0.015 C 
ATOM     15  C   UNL     1      34.540 -13.767 -21.051  0.00  0.00    +0.001 C 
ATOM     16  C   UNL     1      34.644 -13.552 -22.426  0.00  0.00    +0.001 C 
BRANCH  12  17
ATOM     17  N   UNL     1      34.749 -17.025 -23.697  0.00  0.00    -0.356 N 
ATOM     18  H   UNL     1      34.202 -17.022 -24.515  0.00  0.00    +0.142 HD
ATOM     19  H   UNL     1      35.346 -17.785 -23.507  0.00  0.00    +0.142 HD
ENDBRANCH  12  17
ENDBRANCH   8  11
ENDBRANCH   2   9
BRANCH   1  20
ATOM     20  C   UNL     1      34.190 -23.446 -18.491  0.00  0.00    +0.124 C 
BRANCH  20  21
ATOM     21  N   UNL     1      33.232 -23.255 -17.423  0.00  0.00    -0.264 N 
ATOM     22  N   UNL     1      34.736 -24.013 -15.789  0.00  0.00    -0.338 NA
ATOM     23  N   UNL     1      32.511 -23.309 -15.191  0.00  0.00    -0.170 NA
ATOM     24  C   UNL     1      33.502 -23.535 -16.094  0.00  0.00    +0.145 C 
ATOM     25  C   UNL     1      34.964 -24.274 -14.485  0.00  0.00    +0.147 C 
ATOM     26  C   UNL     1      34.028 -24.081 -13.489  0.00  0.00    +0.055 C 
ATOM     27  C   UNL     1      32.807 -23.591 -13.905  0.00  0.00    +0.114 C 
ATOM     28  H   UNL     1      32.341 -22.908 -17.655  0.00  0.00    +0.160 HD
BRANCH  25  30
ATOM     29  N   UNL     1      38.457 -24.418 -13.194  0.00  0.00    -0.242 NA
ATOM     30  C   UNL     1      36.281 -24.782 -14.182  0.00  0.00    +0.050 C 
ATOM     31  C   UNL     1      36.659 -26.067 -14.558  0.00  0.00    +0.006 C 
ATOM     32  C   UNL     1      37.210 -24.005 -13.508  0.00  0.00    +0.101 C 
ATOM     33  C   UNL     1      37.935 -26.528 -14.253  0.00  0.00    +0.021 C 
ATOM     34  C   UNL     1      38.789 -25.672 -13.575  0.00  0.00    +0.099 C 
ENDBRANCH  25  30
ENDBRANCH  20  21
ENDBRANCH   1  20
TORSDOF 6
ENDMDL
MODEL 2
REMARK VINA RESULT:     -11.4      5.201      9.616
REMARK  Name = 9865515
REMARK  6 active torsions:
REMARK  status: ('A' for Active; 'I' for Inactive)
REMARK    1  A    between atoms: C_1  and  C_20
REMARK    2  A    between atoms: C_2  and  C_9
REMARK    3  A    between atoms: N_8  and  C_11
REMARK    4  A    between atoms: C_12  and  N_17
REMARK    5  A    between atoms: C_20  and  N_21
REMARK    6  A    between atoms: C_25  and  C_30
REMARK                            x       y       z     vdW  Elec       q    Type
REMARK                         _______ _______ _______ _____ _____    ______ ____
ROOT
ATOM      1  C   UNL     1      33.988 -13.449 -22.682  0.00  0.00    -0.002 C 
ATOM      2  C   UNL     1      32.411 -11.150 -22.599  0.00  0.00    +0.054 C 
ATOM      3  C   UNL     1      34.117 -12.478 -23.676  0.00  0.00    -0.002 C 
ATOM      4  C   UNL     1      33.070 -13.270 -21.648  0.00  0.00    -0.002 C 
ATOM      5  C   UNL     1      33.328 -11.329 -23.635  0.00  0.00    +0.004 C 
ATOM      6  C   UNL     1      32.281 -12.121 -21.606  0.00  0.00    +0.004 C 
ENDROOT
BRANCH   2   9
ATOM      7  O   UNL     1      30.358 -10.070 -22.417  0.00  0.00    -0.270 OA
ATOM      8  N   UNL     1      32.272  -8.734 -22.659  0.00  0.00    -0.279 N 
ATOM      9  C   UNL     1      31.586  -9.952 -22.558  0.00  0.00    +0.250 C 
ATOM     10  H   UNL     1      33.247  -8.800 -22.768  0.00  0.00    +0.155 HD
BRANCH   8  11
ATOM     11  C   UNL     1      31.742  -7.420 -22.624  0.00  0.00    +0.064 C 
ATOM     12  C   UNL     1      31.584  -6.761 -21.416  0.00  0.00    +0.055 C 
ATOM     13  C   UNL     1      31.391  -6.821 -23.824  0.00  0.00    +0.016 C 
ATOM     14  C   UNL     1      31.060  -5.468 -21.407  0.00  0.00    +0.015 C 
ATOM     15  C   UNL     1      30.868  -5.529 -23.815  0.00  0.00    +0.001 C 
ATOM     16  C   UNL     1      30.702  -4.852 -22.606  0.00  0.00    +0.001 C 
BRANCH  12  17
ATOM     17  N   UNL     1      31.941  -7.365 -20.191  0.00  0.00    -0.356 N 
ATOM     18  H   UNL     1      32.005  -6.820 -19.373  0.00  0.00    +0.142 HD
ATOM     19  H   UNL     1      32.126  -8.332 -20.153  0.00  0.00    +0.142 HD
ENDBRANCH  12  17
ENDBRANCH   8  11
ENDBRANCH   2   9
BRANCH   1  20
ATOM     20  C   UNL     1      34.832 -14.678 -22.725  0.00  0.00    +0.124 C 
BRANCH  20  21
ATOM     21  N   UNL     1      34.398 -15.568 -23.781  0.00  0.00    -0.264 N 
ATOM     22  N   UNL     1      35.012 -17.483 -22.571  0.00  0.00    -0.338 NA
ATOM     23  N   UNL     1      34.042 -17.666 -24.769  0.00  0.00    -0.170 NA
ATOM     24  C   UNL     1      34.487 -16.947 -23.704  0.00  0.00    +0.145 C 
ATOM     25  C   UNL     1      35.084 -18.829 -22.531  0.00  0.00    +0.147 C 
ATOM     26  C   UNL     1      34.661 -19.650 -23.556  0.00  0.00    +0.055 C 
ATOM     27  C   UNL     1      34.143 -19.007 -24.661  0.00  0.00    +0.114 C 
ATOM     28  H   UNL     1      34.019 -15.170 -24.597  0.00  0.00    +0.160 HD
BRANCH  25  30
ATOM     29  N   UNL     1      37.419 -19.371 -19.677  0.00  0.00    -0.242 NA
ATOM     30  C   UNL     1      35.645 -19.378 -21.319  0.00  0.00    +0.050 C 
ATOM     31  C   UNL     1      35.002 -20.402 -20.631  0.00  0.00    +0.006 C 
ATOM     32  C   UNL     1      36.840 -18.901 -20.804  0.00  0.00    +0.101 C 
ATOM     33  C   UNL     1      35.567 -20.912 -19.467  0.00  0.00    +0.021 C 
ATOM     34  C   UNL     1      36.766 -20.366 -19.036  0.00  0.00    +0.099 C 
ENDBRANCH  25  30
ENDBRANCH  20  21
ENDBRANCH   1  20
TORSDOF 6
ENDMDL
MODEL 3
REMARK VINA RESULT:     -11.4      1.196      1.731
REMARK  Name = 9865515
REMARK  6 active torsions:
REMARK  status: ('A' for Active; 'I' for Inactive)
REMARK    1  A    between atoms: C_1  and  C_20
REMARK    2  A    between atoms: C_2  and  C_9
REMARK    3  A    between atoms: N_8  and  C_11
REMARK    4  A    between atoms: C_12  and  N_17
REMARK    5  A    between atoms: C_20  and  N_21
REMARK    6  A    between atoms: C_25  and  C_30
REMARK                            x       y       z     vdW  Elec       q    Type
REMARK                         _______ _______ _______ _____ _____    ______ ____
ROOT
ATOM      1  C   UNL     1      35.657 -20.921 -19.343  0.00  0.00    -0.002 C 
ATOM      2  C   UNL     1      35.386 -18.892 -21.238  0.00  0.00    +0.054 C 
ATOM      3  C   UNL     1      34.409 -20.654 -19.906  0.00  0.00    -0.002 C 
ATOM      4  C   UNL     1      36.770 -20.173 -19.728  0.00  0.00    -0.002 C 
ATOM      5  C   UNL     1      34.273 -19.639 -20.852  0.00  0.00    +0.004 C 
ATOM      6  C   UNL     1      36.634 -19.158 -20.675  0.00  0.00    +0.004 C 
ENDROOT
BRANCH   2   9
ATOM      7  O   UNL     1      35.579 -18.051 -23.399  0.00  0.00    -0.270 OA
ATOM      8  N   UNL     1      34.700 -16.628 -21.753  0.00  0.00    -0.279 N 
ATOM      9  C   UNL     1      35.243 -17.831 -22.224  0.00  0.00    +0.250 C 
ATOM     10  H   UNL     1      34.482 -16.603 -20.794  0.00  0.00    +0.155 HD
BRANCH   8  11
ATOM     11  C   UNL     1      34.424 -15.442 -22.479  0.00  0.00    +0.064 C 
ATOM     12  C   UNL     1      34.448 -14.212 -21.843  0.00  0.00    +0.055 C 
ATOM     13  C   UNL     1      34.132 -15.551 -23.829  0.00  0.00    +0.016 C 
ATOM     14  C   UNL     1      34.172 -13.059 -22.578  0.00  0.00    +0.015 C 
ATOM     15  C   UNL     1      33.857 -14.399 -24.564  0.00  0.00    +0.001 C 
ATOM     16  C   UNL     1      33.877 -13.152 -23.938  0.00  0.00    +0.001 C 
BRANCH  12  17
ATOM     17  N   UNL     1      34.746 -14.094 -20.468  0.00  0.00    -0.356 N 
ATOM     18  H   UNL     1      34.834 -14.902 -19.912  0.00  0.00    +0.142 HD
ATOM     19  H   UNL     1      34.866 -13.204 -20.065  0.00  0.00    +0.142 HD
ENDBRANCH  12  17
ENDBRANCH   8  11
ENDBRANCH   2   9
BRANCH   1  20
ATOM     20  C   UNL     1      35.804 -22.007 -18.331  0.00  0.00    +0.124 C 
BRANCH  20  21
ATOM     21  N   UNL     1      34.548 -22.260 -17.659  0.00  0.00    -0.264 N 
ATOM     22  N   UNL     1      35.584 -23.486 -15.947  0.00  0.00    -0.338 NA
ATOM     23  N   UNL     1      33.199 -23.150 -15.958  0.00  0.00    -0.170 NA
ATOM     24  C   UNL     1      34.441 -22.987 -16.486  0.00  0.00    +0.145 C 
ATOM     25  C   UNL     1      35.443 -24.189 -14.805  0.00  0.00    +0.147 C 
ATOM     26  C   UNL     1      34.230 -24.413 -14.187  0.00  0.00    +0.055 C 
ATOM     27  C   UNL     1      33.130 -23.864 -14.814  0.00  0.00    +0.114 C 
ATOM     28  H   UNL     1      33.725 -21.894 -18.057  0.00  0.00    +0.160 HD
BRANCH  25  30
ATOM     29  N   UNL     1      38.632 -24.354 -12.883  0.00  0.00    -0.242 NA
ATOM     30  C   UNL     1      36.670 -24.710 -14.249  0.00  0.00    +0.050 C 
ATOM     31  C   UNL     1      37.082 -26.012 -14.515  0.00  0.00    +0.006 C 
ATOM     32  C   UNL     1      37.474 -23.929 -13.434  0.00  0.00    +0.101 C 
ATOM     33  C   UNL     1      38.268 -26.485 -13.966  0.00  0.00    +0.021 C 
ATOM     34  C   UNL     1      39.001 -25.625 -13.164  0.00  0.00    +0.099 C 
ENDBRANCH  25  30
ENDBRANCH  20  21
ENDBRANCH   1  20
TORSDOF 6
ENDMDL
MODEL 4
REMARK VINA RESULT:     -11.3      1.272      1.802
REMARK  Name = 9865515
REMARK  6 active torsions:
REMARK  status: ('A' for Active; 'I' for Inactive)
REMARK    1  A    between atoms: C_1  and  C_20
REMARK    2  A    between atoms: C_2  and  C_9
REMARK    3  A    between atoms: N_8  and  C_11
REMARK    4  A    between atoms: C_12  and  N_17
REMARK    5  A    between atoms: C_20  and  N_21
REMARK    6  A    between atoms: C_25  and  C_30
REMARK                            x       y       z     vdW  Elec       q    Type
REMARK                         _______ _______ _______ _____ _____    ______ ____
ROOT
ATOM      1  C   UNL     1      34.351 -22.397 -18.512  0.00  0.00    -0.002 C 
ATOM      2  C   UNL     1      35.161 -20.159 -19.966  0.00  0.00    +0.054 C 
ATOM      3  C   UNL     1      33.409 -21.638 -19.206  0.00  0.00    -0.002 C 
ATOM      4  C   UNL     1      35.698 -22.037 -18.545  0.00  0.00    -0.002 C 
ATOM      5  C   UNL     1      33.814 -20.518 -19.932  0.00  0.00    +0.004 C 
ATOM      6  C   UNL     1      36.103 -20.918 -19.272  0.00  0.00    +0.004 C 
ENDROOT
BRANCH   2   9
ATOM      7  O   UNL     1      36.754 -18.591 -20.613  0.00  0.00    -0.270 OA
ATOM      8  N   UNL     1      34.610 -18.413 -21.550  0.00  0.00    -0.279 N 
ATOM      9  C   UNL     1      35.583 -18.990 -20.722  0.00  0.00    +0.250 C 
ATOM     10  H   UNL     1      33.723 -18.840 -21.530  0.00  0.00    +0.155 HD
BRANCH   8  11
ATOM     11  C   UNL     1      34.736 -17.295 -22.411  0.00  0.00    +0.064 C 
ATOM     12  C   UNL     1      34.872 -16.020 -21.887  0.00  0.00    +0.055 C 
ATOM     13  C   UNL     1      34.717 -17.514 -23.779  0.00  0.00    +0.016 C 
ATOM     14  C   UNL     1      34.994 -14.934 -22.755  0.00  0.00    +0.015 C 
ATOM     15  C   UNL     1      34.840 -16.429 -24.646  0.00  0.00    +0.001 C 
ATOM     16  C   UNL     1      34.978 -15.139 -24.134  0.00  0.00    +0.001 C 
BRANCH  12  17
ATOM     17  N   UNL     1      34.893 -15.790 -20.494  0.00  0.00    -0.356 N 
ATOM     18  H   UNL     1      34.118 -16.043 -19.941  0.00  0.00    +0.142 HD
ATOM     19  H   UNL     1      35.683 -15.378 -20.074  0.00  0.00    +0.142 HD
ENDBRANCH  12  17
ENDBRANCH   8  11
ENDBRANCH   2   9
BRANCH   1  20
ATOM     20  C   UNL     1      33.919 -23.596 -17.736  0.00  0.00    +0.124 C 
BRANCH  20  21
ATOM     21  N   UNL     1      32.819 -23.271 -16.853  0.00  0.00    -0.264 N 
ATOM     22  N   UNL     1      33.991 -23.986 -14.949  0.00  0.00    -0.338 NA
ATOM     23  N   UNL     1      31.752 -23.114 -14.769  0.00  0.00    -0.170 NA
ATOM     24  C   UNL     1      32.856 -23.463 -15.482  0.00  0.00    +0.145 C 
ATOM     25  C   UNL     1      33.992 -24.159 -13.612  0.00  0.00    +0.147 C 
ATOM     26  C   UNL     1      32.926 -23.839 -12.796  0.00  0.00    +0.055 C 
ATOM     27  C   UNL     1      31.821 -23.314 -13.436  0.00  0.00    +0.114 C 
ATOM     28  H   UNL     1      32.001 -22.893 -17.249  0.00  0.00    +0.160 HD
BRANCH  25  30
ATOM     29  N   UNL     1      36.519 -25.299 -11.121  0.00  0.00    -0.242 NA
ATOM     30  C   UNL     1      35.208 -24.715 -13.066  0.00  0.00    +0.050 C 
ATOM     31  C   UNL     1      36.217 -25.190 -13.897  0.00  0.00    +0.006 C 
ATOM     32  C   UNL     1      35.406 -24.792 -11.697  0.00  0.00    +0.101 C 
ATOM     33  C   UNL     1      37.376 -25.719 -13.342  0.00  0.00    +0.021 C 
ATOM     34  C   UNL     1      37.478 -25.751 -11.960  0.00  0.00    +0.099 C 
ENDBRANCH  25  30
ENDBRANCH  20  21
ENDBRANCH   1  20
TORSDOF 6
ENDMDL
MODEL 5
REMARK VINA RESULT:     -11.2      4.487     13.110
REMARK  Name = 9865515
REMARK  6 active torsions:
REMARK  status: ('A' for Active; 'I' for Inactive)
REMARK    1  A    between atoms: C_1  and  C_20
REMARK    2  A    between atoms: C_2  and  C_9
REMARK    3  A    between atoms: N_8  and  C_11
REMARK    4  A    between atoms: C_12  and  N_17
REMARK    5  A    between atoms: C_20  and  N_21
REMARK    6  A    between atoms: C_25  and  C_30
REMARK                            x       y       z     vdW  Elec       q    Type
REMARK                         _______ _______ _______ _____ _____    ______ ____
ROOT
ATOM      1  C   UNL     1      34.423 -14.243 -22.848  0.00  0.00    -0.002 C 
ATOM      2  C   UNL     1      35.130 -16.824 -22.060  0.00  0.00    +0.054 C 
ATOM      3  C   UNL     1      34.621 -15.236 -23.808  0.00  0.00    -0.002 C 
ATOM      4  C   UNL     1      34.579 -14.541 -21.494  0.00  0.00    -0.002 C 
ATOM      5  C   UNL     1      34.976 -16.526 -23.414  0.00  0.00    +0.004 C 
ATOM      6  C   UNL     1      34.932 -15.831 -21.101  0.00  0.00    +0.004 C 
ENDROOT
BRANCH   2   9
ATOM      7  O   UNL     1      36.496 -18.704 -22.168  0.00  0.00    -0.270 OA
ATOM      8  N   UNL     1      34.699 -18.750 -20.659  0.00  0.00    -0.279 N 
ATOM      9  C   UNL     1      35.502 -18.169 -21.650  0.00  0.00    +0.250 C 
ATOM     10  H   UNL     1      33.944 -18.203 -20.345  0.00  0.00    +0.155 HD
BRANCH   8  11
ATOM     11  C   UNL     1      34.832 -20.024 -20.052  0.00  0.00    +0.064 C 
ATOM     12  C   UNL     1      33.713 -20.803 -19.809  0.00  0.00    +0.055 C 
ATOM     13  C   UNL     1      36.102 -20.460 -19.711  0.00  0.00    +0.016 C 
ATOM     14  C   UNL     1      33.868 -22.053 -19.210  0.00  0.00    +0.015 C 
ATOM     15  C   UNL     1      36.257 -21.709 -19.112  0.00  0.00    +0.001 C 
ATOM     16  C   UNL     1      35.140 -22.506 -18.861  0.00  0.00    +0.001 C 
BRANCH  12  17
ATOM     17  N   UNL     1      32.415 -20.364 -20.155  0.00  0.00    -0.356 N 
ATOM     18  H   UNL     1      31.748 -20.196 -19.451  0.00  0.00    +0.142 HD
ATOM     19  H   UNL     1      32.178 -20.227 -21.101  0.00  0.00    +0.142 HD
ENDBRANCH  12  17
ENDBRANCH   8  11
ENDBRANCH   2   9
BRANCH   1  20
ATOM     20  C   UNL     1      34.043 -12.863 -23.268  0.00  0.00    +0.124 C 
BRANCH  20  21
ATOM     21  N   UNL     1      32.736 -12.508 -22.757  0.00  0.00    -0.264 N 
ATOM     22  N   UNL     1      33.078 -10.221 -23.158  0.00  0.00    -0.338 NA
ATOM     23  N   UNL     1      31.015 -11.015 -22.198  0.00  0.00    -0.170 NA
ATOM     24  C   UNL     1      32.263 -11.208 -22.703  0.00  0.00    +0.145 C 
ATOM     25  C   UNL     1      32.585  -8.968 -23.091  0.00  0.00    +0.147 C 
ATOM     26  C   UNL     1      31.333  -8.662 -22.597  0.00  0.00    +0.055 C 
ATOM     27  C   UNL     1      30.584  -9.736 -22.160  0.00  0.00    +0.114 C 
ATOM     28  H   UNL     1      32.154 -13.231 -22.429  0.00  0.00    +0.160 HD
BRANCH  25  30
ATOM     29  N   UNL     1      33.856  -6.110 -25.116  0.00  0.00    -0.242 NA
ATOM     30  C   UNL     1      33.466  -7.934 -23.579  0.00  0.00    +0.050 C 
ATOM     31  C   UNL     1      34.730  -7.749 -23.028  0.00  0.00    +0.006 C 
ATOM     32  C   UNL     1      33.081  -7.095 -24.612  0.00  0.00    +0.101 C 
ATOM     33  C   UNL     1      35.557  -6.746 -23.520  0.00  0.00    +0.021 C 
ATOM     34  C   UNL     1      35.078  -5.960 -24.556  0.00  0.00    +0.099 C 
ENDBRANCH  25  30
ENDBRANCH  20  21
ENDBRANCH   1  20
TORSDOF 6
ENDMDL
MODEL 6
REMARK VINA RESULT:     -11.0      4.573     13.203
REMARK  Name = 9865515
REMARK  6 active torsions:
REMARK  status: ('A' for Active; 'I' for Inactive)
REMARK    1  A    between atoms: C_1  and  C_20
REMARK    2  A    between atoms: C_2  and  C_9
REMARK    3  A    between atoms: N_8  and  C_11
REMARK    4  A    between atoms: C_12  and  N_17
REMARK    5  A    between atoms: C_20  and  N_21
REMARK    6  A    between atoms: C_25  and  C_30
REMARK                            x       y       z     vdW  Elec       q    Type
REMARK                         _______ _______ _______ _____ _____    ______ ____
ROOT
ATOM      1  C   UNL     1      34.218 -14.148 -23.228  0.00  0.00    -0.002 C 
ATOM      2  C   UNL     1      34.934 -16.732 -22.461  0.00  0.00    +0.054 C 
ATOM      3  C   UNL     1      34.259 -15.171 -24.176  0.00  0.00    -0.002 C 
ATOM      4  C   UNL     1      34.534 -14.417 -21.897  0.00  0.00    -0.002 C 
ATOM      5  C   UNL     1      34.618 -16.463 -23.792  0.00  0.00    +0.004 C 
ATOM      6  C   UNL     1      34.893 -15.709 -21.513  0.00  0.00    +0.004 C 
ENDROOT
BRANCH   2   9
ATOM      7  O   UNL     1      36.120 -18.711 -22.760  0.00  0.00    -0.270 OA
ATOM      8  N   UNL     1      34.730 -18.550 -20.876  0.00  0.00    -0.279 N 
ATOM      9  C   UNL     1      35.311 -18.079 -22.061  0.00  0.00    +0.250 C 
ATOM     10  H   UNL     1      34.105 -17.934 -20.432  0.00  0.00    +0.155 HD
BRANCH   8  11
ATOM     11  C   UNL     1      34.926 -19.799 -20.235  0.00  0.00    +0.064 C 
ATOM     12  C   UNL     1      36.197 -20.199 -19.856  0.00  0.00    +0.055 C 
ATOM     13  C   UNL     1      33.819 -20.599 -20.003  0.00  0.00    +0.016 C 
ATOM     14  C   UNL     1      36.365 -21.433 -19.226  0.00  0.00    +0.015 C 
ATOM     15  C   UNL     1      33.987 -21.833 -19.374  0.00  0.00    +0.001 C 
ATOM     16  C   UNL     1      35.260 -22.250 -18.986  0.00  0.00    +0.001 C 
BRANCH  12  17
ATOM     17  N   UNL     1      37.329 -19.387 -20.088  0.00  0.00    -0.356 N 
ATOM     18  H   UNL     1      38.065 -19.718 -20.652  0.00  0.00    +0.142 HD
ATOM     19  H   UNL     1      37.382 -18.489 -19.687  0.00  0.00    +0.142 HD
ENDBRANCH  12  17
ENDBRANCH   8  11
ENDBRANCH   2   9
BRANCH   1  20
ATOM     20  C   UNL     1      33.832 -12.766 -23.637  0.00  0.00    +0.124 C 
BRANCH  20  21
ATOM     21  N   UNL     1      32.590 -12.368 -23.011  0.00  0.00    -0.264 N 
ATOM     22  N   UNL     1      33.033 -10.085 -23.324  0.00  0.00    -0.338 NA
ATOM     23  N   UNL     1      31.004 -10.815 -22.250  0.00  0.00    -0.170 NA
ATOM     24  C   UNL     1      32.198 -11.050 -22.857  0.00  0.00    +0.145 C 
ATOM     25  C   UNL     1      32.620  -8.813 -23.158  0.00  0.00    +0.147 C 
ATOM     26  C   UNL     1      31.428  -8.466 -22.556  0.00  0.00    +0.055 C 
ATOM     27  C   UNL     1      30.652  -9.519 -22.117  0.00  0.00    +0.114 C 
ATOM     28  H   UNL     1      31.991 -13.075 -22.676  0.00  0.00    +0.160 HD
BRANCH  25  30
ATOM     29  N   UNL     1      33.971  -6.048 -25.261  0.00  0.00    -0.242 NA
ATOM     30  C   UNL     1      33.522  -7.803 -23.661  0.00  0.00    +0.050 C 
ATOM     31  C   UNL     1      34.768  -7.599 -23.077  0.00  0.00    +0.006 C 
ATOM     32  C   UNL     1      33.174  -7.008 -24.741  0.00  0.00    +0.101 C 
ATOM     33  C   UNL     1      35.615  -6.621 -23.584  0.00  0.00    +0.021 C 
ATOM     34  C   UNL     1      35.174  -5.878 -24.668  0.00  0.00    +0.099 C 
ENDBRANCH  25  30
ENDBRANCH  20  21
ENDBRANCH   1  20
TORSDOF 6
ENDMDL
MODEL 7
REMARK VINA RESULT:     -11.0      2.253     10.989
REMARK  Name = 9865515
REMARK  6 active torsions:
REMARK  status: ('A' for Active; 'I' for Inactive)
REMARK    1  A    between atoms: C_1  and  C_20
REMARK    2  A    between atoms: C_2  and  C_9
REMARK    3  A    between atoms: N_8  and  C_11
REMARK    4  A    between atoms: C_12  and  N_17
REMARK    5  A    between atoms: C_20  and  N_21
REMARK    6  A    between atoms: C_25  and  C_30
REMARK                            x       y       z     vdW  Elec       q    Type
REMARK                         _______ _______ _______ _____ _____    ______ ____
ROOT
ATOM      1  C   UNL     1      35.951 -18.644 -20.952  0.00  0.00    -0.002 C 
ATOM      2  C   UNL     1      35.448 -20.900 -19.391  0.00  0.00    +0.054 C 
ATOM      3  C   UNL     1      34.658 -19.163 -20.872  0.00  0.00    -0.002 C 
ATOM      4  C   UNL     1      36.991 -19.253 -20.252  0.00  0.00    -0.002 C 
ATOM      5  C   UNL     1      34.407 -20.291 -20.092  0.00  0.00    +0.004 C 
ATOM      6  C   UNL     1      36.740 -20.381 -19.471  0.00  0.00    +0.004 C 
ENDROOT
BRANCH   2   9
ATOM      7  O   UNL     1      34.768 -23.109 -19.131  0.00  0.00    -0.270 OA
ATOM      8  N   UNL     1      35.462 -21.952 -17.211  0.00  0.00    -0.279 N 
ATOM      9  C   UNL     1      35.186 -22.079 -18.580  0.00  0.00    +0.250 C 
ATOM     10  H   UNL     1      35.789 -21.071 -16.920  0.00  0.00    +0.155 HD
BRANCH   8  11
ATOM     11  C   UNL     1      35.329 -22.928 -16.192  0.00  0.00    +0.064 C 
ATOM     12  C   UNL     1      36.449 -23.399 -15.526  0.00  0.00    +0.055 C 
ATOM     13  C   UNL     1      34.060 -23.392 -15.887  0.00  0.00    +0.016 C 
ATOM     14  C   UNL     1      36.294 -24.360 -14.526  0.00  0.00    +0.015 C 
ATOM     15  C   UNL     1      33.906 -24.353 -14.888  0.00  0.00    +0.001 C 
ATOM     16  C   UNL     1      35.023 -24.837 -14.208  0.00  0.00    +0.001 C 
BRANCH  12  17
ATOM     17  N   UNL     1      37.745 -22.929 -15.831  0.00  0.00    -0.356 N 
ATOM     18  H   UNL     1      37.859 -22.113 -16.370  0.00  0.00    +0.142 HD
ATOM     19  H   UNL     1      38.536 -23.418 -15.505  0.00  0.00    +0.142 HD
ENDBRANCH  12  17
ENDBRANCH   8  11
ENDBRANCH   2   9
BRANCH   1  20
ATOM     20  C   UNL     1      36.220 -17.435 -21.785  0.00  0.00    +0.124 C 
BRANCH  20  21
ATOM     21  N   UNL     1      35.675 -17.594 -23.117  0.00  0.00    -0.264 N 
ATOM     22  N   UNL     1      34.423 -15.615 -22.959  0.00  0.00    -0.338 NA
ATOM     23  N   UNL     1      34.356 -16.966 -24.953  0.00  0.00    -0.170 NA
ATOM     24  C   UNL     1      34.791 -16.698 -23.693  0.00  0.00    +0.145 C 
ATOM     25  C   UNL     1      33.561 -14.763 -23.552  0.00  0.00    +0.147 C 
ATOM     26  C   UNL     1      33.059 -14.942 -24.825  0.00  0.00    +0.055 C 
ATOM     27  C   UNL     1      33.496 -16.073 -25.485  0.00  0.00    +0.114 C 
ATOM     28  H   UNL     1      35.948 -18.381 -23.640  0.00  0.00    +0.160 HD
BRANCH  25  30
ATOM     29  N   UNL     1      32.759 -11.244 -22.626  0.00  0.00    -0.242 NA
ATOM     30  C   UNL     1      33.183 -13.620 -22.756  0.00  0.00    +0.050 C 
ATOM     31  C   UNL     1      32.885 -13.754 -21.403  0.00  0.00    +0.006 C 
ATOM     32  C   UNL     1      33.105 -12.354 -23.314  0.00  0.00    +0.101 C 
ATOM     33  C   UNL     1      32.525 -12.635 -20.662  0.00  0.00    +0.021 C 
ATOM     34  C   UNL     1      32.477 -11.413 -21.314  0.00  0.00    +0.099 C 
ENDBRANCH  25  30
ENDBRANCH  20  21
ENDBRANCH   1  20
TORSDOF 6
ENDMDL
MODEL 8
REMARK VINA RESULT:     -11.0      2.646     10.613
REMARK  Name = 9865515
REMARK  6 active torsions:
REMARK  status: ('A' for Active; 'I' for Inactive)
REMARK    1  A    between atoms: C_1  and  C_20
REMARK    2  A    between atoms: C_2  and  C_9
REMARK    3  A    between atoms: N_8  and  C_11
REMARK    4  A    between atoms: C_12  and  N_17
REMARK    5  A    between atoms: C_20  and  N_21
REMARK    6  A    between atoms: C_25  and  C_30
REMARK                            x       y       z     vdW  Elec       q    Type
REMARK                         _______ _______ _______ _____ _____    ______ ____
ROOT
ATOM      1  C   UNL     1      35.667 -19.286 -20.642  0.00  0.00    -0.002 C 
ATOM      2  C   UNL     1      34.466 -21.371 -19.232  0.00  0.00    +0.054 C 
ATOM      3  C   UNL     1      34.283 -19.454 -20.691  0.00  0.00    -0.002 C 
ATOM      4  C   UNL     1      36.450 -20.159 -19.888  0.00  0.00    -0.002 C 
ATOM      5  C   UNL     1      33.683 -20.497 -19.987  0.00  0.00    +0.004 C 
ATOM      6  C   UNL     1      35.849 -21.202 -19.183  0.00  0.00    +0.004 C 
ENDROOT
BRANCH   2   9
ATOM      7  O   UNL     1      33.843 -23.599 -18.993  0.00  0.00    -0.270 OA
ATOM      8  N   UNL     1      33.293 -22.124 -17.253  0.00  0.00    -0.279 N 
ATOM      9  C   UNL     1      33.839 -22.460 -18.499  0.00  0.00    +0.250 C 
ATOM     10  H   UNL     1      33.366 -21.177 -16.995  0.00  0.00    +0.155 HD
BRANCH   8  11
ATOM     11  C   UNL     1      32.649 -22.971 -16.316  0.00  0.00    +0.064 C 
ATOM     12  C   UNL     1      33.390 -23.648 -15.361  0.00  0.00    +0.055 C 
ATOM     13  C   UNL     1      31.272 -23.099 -16.385  0.00  0.00    +0.016 C 
ATOM     14  C   UNL     1      32.734 -24.476 -14.450  0.00  0.00    +0.015 C 
ATOM     15  C   UNL     1      30.616 -23.927 -15.474  0.00  0.00    +0.001 C 
ATOM     16  C   UNL     1      31.348 -24.616 -14.506  0.00  0.00    +0.001 C 
BRANCH  12  17
ATOM     17  N   UNL     1      34.794 -23.521 -15.285  0.00  0.00    -0.356 N 
ATOM     18  H   UNL     1      35.204 -23.022 -14.542  0.00  0.00    +0.142 HD
ATOM     19  H   UNL     1      35.365 -23.931 -15.976  0.00  0.00    +0.142 HD
ENDBRANCH  12  17
ENDBRANCH   8  11
ENDBRANCH   2   9
BRANCH   1  20
ATOM     20  C   UNL     1      36.310 -18.169 -21.394  0.00  0.00    +0.124 C 
BRANCH  20  21
ATOM     21  N   UNL     1      35.879 -18.161 -22.776  0.00  0.00    -0.264 N 
ATOM     22  N   UNL     1      34.651 -16.181 -22.497  0.00  0.00    -0.338 NA
ATOM     23  N   UNL     1      34.734 -17.295 -24.631  0.00  0.00    -0.170 NA
ATOM     24  C   UNL     1      35.063 -17.182 -23.317  0.00  0.00    +0.145 C 
ATOM     25  C   UNL     1      33.858 -15.245 -23.057  0.00  0.00    +0.147 C 
ATOM     26  C   UNL     1      33.464 -15.265 -24.380  0.00  0.00    +0.055 C 
ATOM     27  C   UNL     1      33.937 -16.324 -25.127  0.00  0.00    +0.114 C 
ATOM     28  H   UNL     1      36.183 -18.891 -23.362  0.00  0.00    +0.160 HD
BRANCH  25  30
ATOM     29  N   UNL     1      32.607 -11.935 -21.888  0.00  0.00    -0.242 NA
ATOM     30  C   UNL     1      33.432 -14.190 -22.169  0.00  0.00    +0.050 C 
ATOM     31  C   UNL     1      33.425 -14.371 -20.789  0.00  0.00    +0.006 C 
ATOM     32  C   UNL     1      33.016 -12.963 -22.663  0.00  0.00    +0.101 C 
ATOM     33  C   UNL     1      33.009 -13.337 -19.959  0.00  0.00    +0.021 C 
ATOM     34  C   UNL     1      32.614 -12.148 -20.553  0.00  0.00    +0.099 C 
ENDBRANCH  25  30
ENDBRANCH  20  21
ENDBRANCH   1  20
TORSDOF 6
ENDMDL
MODEL 9
REMARK VINA RESULT:     -10.9      4.673      8.589
REMARK  Name = 9865515
REMARK  6 active torsions:
REMARK  status: ('A' for Active; 'I' for Inactive)
REMARK    1  A    between atoms: C_1  and  C_20
REMARK    2  A    between atoms: C_2  and  C_9
REMARK    3  A    between atoms: N_8  and  C_11
REMARK    4  A    between atoms: C_12  and  N_17
REMARK    5  A    between atoms: C_20  and  N_21
REMARK    6  A    between atoms: C_25  and  C_30
REMARK                            x       y       z     vdW  Elec       q    Type
REMARK                         _______ _______ _______ _____ _____    ______ ____
ROOT
ATOM      1  C   UNL     1      33.817 -14.225 -20.720  0.00  0.00    -0.002 C 
ATOM      2  C   UNL     1      32.337 -11.900 -21.149  0.00  0.00    +0.054 C 
ATOM      3  C   UNL     1      34.002 -13.486 -21.888  0.00  0.00    -0.002 C 
ATOM      4  C   UNL     1      32.892 -13.801 -19.766  0.00  0.00    -0.002 C 
ATOM      5  C   UNL     1      33.262 -12.324 -22.103  0.00  0.00    +0.004 C 
ATOM      6  C   UNL     1      32.152 -12.639 -19.980  0.00  0.00    +0.004 C 
ENDROOT
BRANCH   2   9
ATOM      7  O   UNL     1      30.329 -10.729 -21.244  0.00  0.00    -0.270 OA
ATOM      8  N   UNL     1      32.302  -9.544 -21.703  0.00  0.00    -0.279 N 
ATOM      9  C   UNL     1      31.563 -10.689 -21.374  0.00  0.00    +0.250 C 
ATOM     10  H   UNL     1      33.276  -9.667 -21.771  0.00  0.00    +0.155 HD
BRANCH   8  11
ATOM     11  C   UNL     1      31.828  -8.231 -21.952  0.00  0.00    +0.064 C 
ATOM     12  C   UNL     1      31.539  -7.826 -23.244  0.00  0.00    +0.055 C 
ATOM     13  C   UNL     1      31.667  -7.376 -20.874  0.00  0.00    +0.016 C 
ATOM     14  C   UNL     1      31.074  -6.528 -23.465  0.00  0.00    +0.015 C 
ATOM     15  C   UNL     1      31.203  -6.080 -21.094  0.00  0.00    +0.001 C 
ATOM     16  C   UNL     1      30.907  -5.655 -22.390  0.00  0.00    +0.001 C 
BRANCH  12  17
ATOM     17  N   UNL     1      31.700  -8.693 -24.347  0.00  0.00    -0.356 N 
ATOM     18  H   UNL     1      31.718  -8.329 -25.261  0.00  0.00    +0.142 HD
ATOM     19  H   UNL     1      31.795  -9.663 -24.201  0.00  0.00    +0.142 HD
ENDBRANCH  12  17
ENDBRANCH   8  11
ENDBRANCH   2   9
BRANCH   1  20
ATOM     20  C   UNL     1      34.610 -15.468 -20.488  0.00  0.00    +0.124 C 
BRANCH  20  21
ATOM     21  N   UNL     1      35.065 -16.031 -21.741  0.00  0.00    -0.264 N 
ATOM     22  N   UNL     1      34.714 -18.232 -21.006  0.00  0.00    -0.338 NA
ATOM     23  N   UNL     1      35.564 -17.786 -23.216  0.00  0.00    -0.170 NA
ATOM     24  C   UNL     1      35.116 -17.391 -21.995  0.00  0.00    +0.145 C 
ATOM     25  C   UNL     1      34.776 -19.549 -21.288  0.00  0.00    +0.147 C 
ATOM     26  C   UNL     1      35.216 -20.056 -22.494  0.00  0.00    +0.055 C 
ATOM     27  C   UNL     1      35.601 -19.118 -23.431  0.00  0.00    +0.114 C 
ATOM     28  H   UNL     1      35.354 -15.413 -22.451  0.00  0.00    +0.160 HD
BRANCH  25  30
ATOM     29  N   UNL     1      32.546 -21.278 -18.854  0.00  0.00    -0.242 NA
ATOM     30  C   UNL     1      34.345 -20.426 -20.225  0.00  0.00    +0.050 C 
ATOM     31  C   UNL     1      35.251 -21.240 -19.554  0.00  0.00    +0.006 C 
ATOM     32  C   UNL     1      33.015 -20.483 -19.840  0.00  0.00    +0.101 C 
ATOM     33  C   UNL     1      34.806 -22.073 -18.533  0.00  0.00    +0.021 C 
ATOM     34  C   UNL     1      33.455 -22.055 -18.224  0.00  0.00    +0.099 C 
ENDBRANCH  25  30
ENDBRANCH  20  21
ENDBRANCH   1  20
TORSDOF 6
ENDMDL
