MODEL 1
REMARK VINA RESULT:     -11.0      0.000      0.000
REMARK  Name = 132881
REMARK  11 active torsions:
REMARK  status: ('A' for Active; 'I' for Inactive)
REMARK    1  A    between atoms: C_1  and  O_22
REMARK    2  A    between atoms: C_4  and  C_7
REMARK    3  A    between atoms: C_10  and  C_15
REMARK    4  A    between atoms: N_14  and  C_15
REMARK    5  A    between atoms: N_14  and  C_19
REMARK    6  A    between atoms: C_19  and  O_20
REMARK    7  A    between atoms: O_22  and  C_23
REMARK    8  A    between atoms: C_23  and  C_27
REMARK    9  A    between atoms: C_26  and  C_31
REMARK   10  A    between atoms: C_31  and  C_33
REMARK   11  A    between atoms: C_33  and  O_34
REMARK                            x       y       z     vdW  Elec       q    Type
REMARK                         _______ _______ _______ _____ _____    ______ ____
ROOT
ATOM      1  C   UNL     1      34.601 -22.467 -18.085  0.00  0.00    +0.139 C 
ATOM      2  C   UNL     1      35.834 -21.958 -18.493  0.00  0.00    +0.037 C 
ATOM      3  C   UNL     1      33.423 -21.981 -18.652  0.00  0.00    +0.037 C 
ATOM      4  C   UNL     1      34.710 -20.477 -20.038  0.00  0.00    +0.000 C 
ATOM      5  C   UNL     1      35.889 -20.963 -19.469  0.00  0.00    +0.003 C 
ATOM      6  C   UNL     1      33.478 -20.987 -19.629  0.00  0.00    +0.003 C 
ENDROOT
BRANCH   4   7
ATOM      7  C   UNL     1      34.768 -19.447 -21.050  0.00  0.00    +0.000 C 
ATOM      8  C   UNL     1      35.181 -18.157 -20.713  0.00  0.00    +0.000 C 
ATOM      9  C   UNL     1      34.413 -19.743 -22.366  0.00  0.00    +0.000 C 
ATOM     10  C   UNL     1      34.883 -17.461 -23.007  0.00  0.00    +0.031 C 
ATOM     11  C   UNL     1      35.238 -17.164 -21.691  0.00  0.00    +0.003 C 
ATOM     12  C   UNL     1      34.470 -18.750 -23.344  0.00  0.00    +0.003 C 
BRANCH  10  14
ATOM     13  N   UNL     1      35.987 -15.494 -23.991  0.00  0.00    -0.385 N 
ATOM     14  C   UNL     1      34.942 -16.427 -24.027  0.00  0.00    +0.129 C 
ATOM     15  H   UNL     1      36.041 -14.788 -24.675  0.00  0.00    +0.157 HD
ATOM     16  H   UNL     1      36.669 -15.545 -23.281  0.00  0.00    +0.157 HD
BRANCH  14  17
ATOM     17  N   UNL     1      33.987 -16.406 -24.945  0.00  0.00    -0.126 NA
BRANCH  17  19
ATOM     18  O   UNL     1      33.074 -14.881 -26.442  0.00  0.00    -0.224 OA
ATOM     19  C   UNL     1      33.356 -15.239 -25.303  0.00  0.00    +0.427 C 
BRANCH  19  20
ATOM     20  O   UNL     1      33.047 -14.532 -24.174  0.00  0.00    -0.429 OA
ATOM     21  C   UNL     1      33.292 -13.123 -24.233  0.00  0.00    +0.257 C 
ENDBRANCH  19  20
ENDBRANCH  17  19
ENDBRANCH  14  17
ENDBRANCH  10  14
ENDBRANCH   4   7
BRANCH   1  22
ATOM     22  O   UNL     1      34.548 -23.445 -17.123  0.00  0.00    -0.474 OA
BRANCH  22  23
ATOM     23  C   UNL     1      33.977 -23.090 -15.876  0.00  0.00    +0.225 C 
BRANCH  23  27
ATOM     24  O   UNL     1      34.699 -24.748 -11.876  0.00  0.00    -0.275 OA
ATOM     25  N   UNL     1      34.628 -23.079 -13.516  0.00  0.00    -0.302 N 
ATOM     26  C   UNL     1      35.732 -25.067 -14.068  0.00  0.00    +0.089 C 
ATOM     27  C   UNL     1      35.098 -22.888 -14.866  0.00  0.00    +0.116 C 
ATOM     28  C   UNL     1      36.202 -23.933 -14.986  0.00  0.00    +0.033 C 
ATOM     29  C   UNL     1      34.976 -24.319 -12.986  0.00  0.00    +0.223 C 
ATOM     30  H   UNL     1      34.113 -22.403 -13.020  0.00  0.00    +0.149 HD
BRANCH  26  31
ATOM     31  C   UNL     1      36.871 -25.905 -13.520  0.00  0.00    +0.119 C 
BRANCH  31  33
ATOM     32  O   UNL     1      36.851 -27.306 -15.507  0.00  0.00    -0.250 OA
ATOM     33  C   UNL     1      37.466 -26.816 -14.569  0.00  0.00    +0.318 C 
BRANCH  33  34
ATOM     34  O   UNL     1      38.792 -26.997 -14.298  0.00  0.00    -0.444 OA
ATOM     35  C   UNL     1      39.561 -25.799 -14.151  0.00  0.00    +0.256 C 
ENDBRANCH  33  34
ENDBRANCH  31  33
ENDBRANCH  26  31
ENDBRANCH  23  27
ENDBRANCH  22  23
ENDBRANCH   1  22
TORSDOF 11
ENDMDL
MODEL 2
REMARK VINA RESULT:     -10.8      0.866      1.623
REMARK  Name = 132881
REMARK  11 active torsions:
REMARK  status: ('A' for Active; 'I' for Inactive)
REMARK    1  A    between atoms: C_1  and  O_22
REMARK    2  A    between atoms: C_4  and  C_7
REMARK    3  A    between atoms: C_10  and  C_15
REMARK    4  A    between atoms: N_14  and  C_15
REMARK    5  A    between atoms: N_14  and  C_19
REMARK    6  A    between atoms: C_19  and  O_20
REMARK    7  A    between atoms: O_22  and  C_23
REMARK    8  A    between atoms: C_23  and  C_27
REMARK    9  A    between atoms: C_26  and  C_31
REMARK   10  A    between atoms: C_31  and  C_33
REMARK   11  A    between atoms: C_33  and  O_34
REMARK                            x       y       z     vdW  Elec       q    Type
REMARK                         _______ _______ _______ _____ _____    ______ ____
ROOT
ATOM      1  C   UNL     1      34.531 -22.455 -18.274  0.00  0.00    +0.139 C 
ATOM      2  C   UNL     1      33.374 -21.906 -18.825  0.00  0.00    +0.037 C 
ATOM      3  C   UNL     1      35.780 -21.941 -18.619  0.00  0.00    +0.037 C 
ATOM      4  C   UNL     1      34.717 -20.327 -20.067  0.00  0.00    +0.000 C 
ATOM      5  C   UNL     1      33.466 -20.842 -19.722  0.00  0.00    +0.003 C 
ATOM      6  C   UNL     1      35.874 -20.877 -19.515  0.00  0.00    +0.003 C 
ENDROOT
BRANCH   4   7
ATOM      7  C   UNL     1      34.811 -19.223 -20.996  0.00  0.00    +0.000 C 
ATOM      8  C   UNL     1      34.513 -19.417 -22.346  0.00  0.00    +0.000 C 
ATOM      9  C   UNL     1      35.200 -17.963 -20.543  0.00  0.00    +0.000 C 
ATOM     10  C   UNL     1      34.991 -17.090 -22.787  0.00  0.00    +0.031 C 
ATOM     11  C   UNL     1      34.603 -18.351 -23.241  0.00  0.00    +0.003 C 
ATOM     12  C   UNL     1      35.290 -16.897 -21.438  0.00  0.00    +0.003 C 
BRANCH  10  14
ATOM     13  N   UNL     1      35.259 -16.247 -25.083  0.00  0.00    -0.385 N 
ATOM     14  C   UNL     1      35.085 -15.979 -23.719  0.00  0.00    +0.129 C 
ATOM     15  H   UNL     1      35.324 -15.505 -25.727  0.00  0.00    +0.157 HD
ATOM     16  H   UNL     1      35.315 -17.178 -25.398  0.00  0.00    +0.157 HD
BRANCH  14  17
ATOM     17  N   UNL     1      35.016 -14.749 -23.228  0.00  0.00    -0.126 NA
BRANCH  17  19
ATOM     18  O   UNL     1      33.162 -13.986 -24.401  0.00  0.00    -0.224 OA
ATOM     19  C   UNL     1      33.920 -13.950 -23.436  0.00  0.00    +0.427 C 
BRANCH  19  20
ATOM     20  O   UNL     1      33.767 -13.109 -22.368  0.00  0.00    -0.429 OA
ATOM     21  C   UNL     1      33.422 -13.734 -21.127  0.00  0.00    +0.257 C 
ENDBRANCH  19  20
ENDBRANCH  17  19
ENDBRANCH  14  17
ENDBRANCH  10  14
ENDBRANCH   4   7
BRANCH   1  22
ATOM     22  O   UNL     1      34.439 -23.504 -17.392  0.00  0.00    -0.474 OA
BRANCH  22  23
ATOM     23  C   UNL     1      33.801 -23.248 -16.153  0.00  0.00    +0.225 C 
BRANCH  23  27
ATOM     24  O   UNL     1      34.499 -24.693 -12.067  0.00  0.00    -0.275 OA
ATOM     25  N   UNL     1      34.362 -23.098 -13.775  0.00  0.00    -0.302 N 
ATOM     26  C   UNL     1      35.633 -25.014 -14.208  0.00  0.00    +0.089 C 
ATOM     27  C   UNL     1      34.866 -22.922 -15.115  0.00  0.00    +0.116 C 
ATOM     28  C   UNL     1      36.049 -23.883 -15.155  0.00  0.00    +0.033 C 
ATOM     29  C   UNL     1      34.784 -24.287 -13.183  0.00  0.00    +0.223 C 
ATOM     30  H   UNL     1      33.780 -22.445 -13.324  0.00  0.00    +0.149 HD
BRANCH  26  31
ATOM     31  C   UNL     1      36.812 -25.741 -13.588  0.00  0.00    +0.119 C 
BRANCH  31  33
ATOM     32  O   UNL     1      36.849 -27.261 -15.485  0.00  0.00    -0.250 OA
ATOM     33  C   UNL     1      37.424 -26.747 -14.535  0.00  0.00    +0.318 C 
BRANCH  33  34
ATOM     34  O   UNL     1      38.715 -26.983 -14.157  0.00  0.00    -0.444 OA
ATOM     35  C   UNL     1      39.412 -25.859 -13.610  0.00  0.00    +0.256 C 
ENDBRANCH  33  34
ENDBRANCH  31  33
ENDBRANCH  26  31
ENDBRANCH  23  27
ENDBRANCH  22  23
ENDBRANCH   1  22
TORSDOF 11
ENDMDL
MODEL 3
REMARK VINA RESULT:     -10.7      1.766     12.211
REMARK  Name = 132881
REMARK  11 active torsions:
REMARK  status: ('A' for Active; 'I' for Inactive)
REMARK    1  A    between atoms: C_1  and  O_22
REMARK    2  A    between atoms: C_4  and  C_7
REMARK    3  A    between atoms: C_10  and  C_15
REMARK    4  A    between atoms: N_14  and  C_15
REMARK    5  A    between atoms: N_14  and  C_19
REMARK    6  A    between atoms: C_19  and  O_20
REMARK    7  A    between atoms: O_22  and  C_23
REMARK    8  A    between atoms: C_23  and  C_27
REMARK    9  A    between atoms: C_26  and  C_31
REMARK   10  A    between atoms: C_31  and  C_33
REMARK   11  A    between atoms: C_33  and  O_34
REMARK                            x       y       z     vdW  Elec       q    Type
REMARK                         _______ _______ _______ _____ _____    ______ ____
ROOT
ATOM      1  C   UNL     1      35.253 -19.508 -21.123  0.00  0.00    +0.139 C 
ATOM      2  C   UNL     1      34.060 -20.048 -20.644  0.00  0.00    +0.037 C 
ATOM      3  C   UNL     1      36.458 -19.804 -20.486  0.00  0.00    +0.037 C 
ATOM      4  C   UNL     1      35.276 -21.180 -18.890  0.00  0.00    +0.000 C 
ATOM      5  C   UNL     1      34.070 -20.884 -19.528  0.00  0.00    +0.003 C 
ATOM      6  C   UNL     1      36.469 -20.640 -19.369  0.00  0.00    +0.003 C 
ENDROOT
BRANCH   4   7
ATOM      7  C   UNL     1      35.286 -22.048 -17.734  0.00  0.00    +0.000 C 
ATOM      8  C   UNL     1      34.173 -22.837 -17.442  0.00  0.00    +0.000 C 
ATOM      9  C   UNL     1      36.410 -22.097 -16.910  0.00  0.00    +0.000 C 
ATOM     10  C   UNL     1      35.310 -23.724 -15.503  0.00  0.00    +0.031 C 
ATOM     11  C   UNL     1      34.184 -23.675 -16.326  0.00  0.00    +0.003 C 
ATOM     12  C   UNL     1      36.422 -22.935 -15.795  0.00  0.00    +0.003 C 
BRANCH  10  14
ATOM     13  N   UNL     1      34.134 -24.796 -13.625  0.00  0.00    -0.385 N 
ATOM     14  C   UNL     1      35.322 -24.597 -14.341  0.00  0.00    +0.129 C 
ATOM     15  H   UNL     1      34.126 -25.384 -12.836  0.00  0.00    +0.157 HD
ATOM     16  H   UNL     1      33.306 -24.347 -13.912  0.00  0.00    +0.157 HD
BRANCH  14  17
ATOM     17  N   UNL     1      36.473 -25.160 -14.000  0.00  0.00    -0.126 NA
BRANCH  17  19
ATOM     18  O   UNL     1      36.346 -26.994 -15.421  0.00  0.00    -0.224 OA
ATOM     19  C   UNL     1      36.834 -26.401 -14.464  0.00  0.00    +0.427 C 
BRANCH  19  20
ATOM     20  O   UNL     1      37.870 -26.878 -13.709  0.00  0.00    -0.429 OA
ATOM     21  C   UNL     1      38.766 -25.892 -13.184  0.00  0.00    +0.257 C 
ENDBRANCH  19  20
ENDBRANCH  17  19
ENDBRANCH  14  17
ENDBRANCH  10  14
ENDBRANCH   4   7
BRANCH   1  22
ATOM     22  O   UNL     1      35.241 -18.684 -22.221  0.00  0.00    -0.474 OA
BRANCH  22  23
ATOM     23  C   UNL     1      34.692 -17.389 -22.047  0.00  0.00    +0.225 C 
BRANCH  23  27
ATOM     24  O   UNL     1      33.215 -15.714 -25.826  0.00  0.00    -0.275 OA
ATOM     25  N   UNL     1      34.786 -16.689 -24.391  0.00  0.00    -0.302 N 
ATOM     26  C   UNL     1      33.666 -14.789 -23.610  0.00  0.00    +0.089 C 
ATOM     27  C   UNL     1      35.318 -16.453 -23.071  0.00  0.00    +0.116 C 
ATOM     28  C   UNL     1      34.970 -14.988 -22.828  0.00  0.00    +0.033 C 
ATOM     29  C   UNL     1      33.833 -15.748 -24.773  0.00  0.00    +0.223 C 
ATOM     30  H   UNL     1      35.068 -17.438 -24.964  0.00  0.00    +0.149 HD
BRANCH  26  31
ATOM     31  C   UNL     1      33.449 -13.355 -24.055  0.00  0.00    +0.119 C 
BRANCH  31  33
ATOM     32  O   UNL     1      33.081 -11.314 -22.785  0.00  0.00    -0.250 OA
ATOM     33  C   UNL     1      32.849 -12.503 -22.960  0.00  0.00    +0.318 C 
BRANCH  33  34
ATOM     34  O   UNL     1      32.011 -13.274 -22.207  0.00  0.00    -0.444 OA
ATOM     35  C   UNL     1      32.193 -13.180 -20.790  0.00  0.00    +0.256 C 
ENDBRANCH  33  34
ENDBRANCH  31  33
ENDBRANCH  26  31
ENDBRANCH  23  27
ENDBRANCH  22  23
ENDBRANCH   1  22
TORSDOF 11
ENDMDL
MODEL 4
REMARK VINA RESULT:     -10.6      2.379     12.079
REMARK  Name = 132881
REMARK  11 active torsions:
REMARK  status: ('A' for Active; 'I' for Inactive)
REMARK    1  A    between atoms: C_1  and  O_22
REMARK    2  A    between atoms: C_4  and  C_7
REMARK    3  A    between atoms: C_10  and  C_15
REMARK    4  A    between atoms: N_14  and  C_15
REMARK    5  A    between atoms: N_14  and  C_19
REMARK    6  A    between atoms: C_19  and  O_20
REMARK    7  A    between atoms: O_22  and  C_23
REMARK    8  A    between atoms: C_23  and  C_27
REMARK    9  A    between atoms: C_26  and  C_31
REMARK   10  A    between atoms: C_31  and  C_33
REMARK   11  A    between atoms: C_33  and  O_34
REMARK                            x       y       z     vdW  Elec       q    Type
REMARK                         _______ _______ _______ _____ _____    ______ ____
ROOT
ATOM      1  C   UNL     1      35.093 -20.720 -20.092  0.00  0.00    +0.139 C 
ATOM      2  C   UNL     1      36.338 -20.830 -19.474  0.00  0.00    +0.037 C 
ATOM      3  C   UNL     1      33.969 -21.301 -19.505  0.00  0.00    +0.037 C 
ATOM      4  C   UNL     1      35.335 -22.102 -17.681  0.00  0.00    +0.000 C 
ATOM      5  C   UNL     1      36.459 -21.521 -18.268  0.00  0.00    +0.003 C 
ATOM      6  C   UNL     1      34.089 -21.992 -18.300  0.00  0.00    +0.003 C 
ENDROOT
BRANCH   4   7
ATOM      7  C   UNL     1      35.462 -22.817 -16.431  0.00  0.00    +0.000 C 
ATOM      8  C   UNL     1      34.380 -23.540 -15.925  0.00  0.00    +0.000 C 
ATOM      9  C   UNL     1      36.667 -22.786 -15.730  0.00  0.00    +0.000 C 
ATOM     10  C   UNL     1      35.710 -24.199 -14.019  0.00  0.00    +0.031 C 
ATOM     11  C   UNL     1      34.504 -24.230 -14.719  0.00  0.00    +0.003 C 
ATOM     12  C   UNL     1      36.791 -23.477 -14.524  0.00  0.00    +0.003 C 
BRANCH  10  14
ATOM     13  N   UNL     1      36.523 -26.143 -12.746  0.00  0.00    -0.385 N 
ATOM     14  C   UNL     1      35.840 -24.919 -12.763  0.00  0.00    +0.129 C 
ATOM     15  H   UNL     1      36.620 -26.641 -11.903  0.00  0.00    +0.157 HD
ATOM     16  H   UNL     1      36.907 -26.503 -13.578  0.00  0.00    +0.157 HD
BRANCH  14  17
ATOM     17  N   UNL     1      35.288 -24.385 -11.682  0.00  0.00    -0.126 NA
BRANCH  17  19
ATOM     18  O   UNL     1      35.328 -24.979  -9.437  0.00  0.00    -0.224 OA
ATOM     19  C   UNL     1      35.860 -24.517 -10.441  0.00  0.00    +0.427 C 
BRANCH  19  20
ATOM     20  O   UNL     1      37.155 -24.081 -10.495  0.00  0.00    -0.429 OA
ATOM     21  C   UNL     1      37.343 -22.732 -10.936  0.00  0.00    +0.257 C 
ENDBRANCH  19  20
ENDBRANCH  17  19
ENDBRANCH  14  17
ENDBRANCH  10  14
ENDBRANCH   4   7
BRANCH   1  22
ATOM     22  O   UNL     1      34.974 -20.040 -21.279  0.00  0.00    -0.474 OA
BRANCH  22  23
ATOM     23  C   UNL     1      34.479 -18.715 -21.214  0.00  0.00    +0.225 C 
BRANCH  23  27
ATOM     24  O   UNL     1      34.860 -16.359 -24.898  0.00  0.00    -0.275 OA
ATOM     25  N   UNL     1      35.599 -17.745 -23.163  0.00  0.00    -0.302 N 
ATOM     26  C   UNL     1      34.438 -15.806 -22.555  0.00  0.00    +0.089 C 
ATOM     27  C   UNL     1      35.557 -17.766 -21.721  0.00  0.00    +0.116 C 
ATOM     28  C   UNL     1      35.277 -16.308 -21.374  0.00  0.00    +0.033 C 
ATOM     29  C   UNL     1      34.981 -16.624 -23.712  0.00  0.00    +0.223 C 
ATOM     30  H   UNL     1      36.022 -18.451 -23.704  0.00  0.00    +0.149 HD
BRANCH  26  31
ATOM     31  C   UNL     1      34.558 -14.311 -22.782  0.00  0.00    +0.119 C 
BRANCH  31  33
ATOM     32  O   UNL     1      32.421 -13.194 -23.087  0.00  0.00    -0.250 OA
ATOM     33  C   UNL     1      33.319 -13.566 -22.344  0.00  0.00    +0.318 C 
BRANCH  33  34
ATOM     34  O   UNL     1      33.368 -13.382 -20.992  0.00  0.00    -0.444 OA
ATOM     35  C   UNL     1      32.199 -13.787 -20.271  0.00  0.00    +0.256 C 
ENDBRANCH  33  34
ENDBRANCH  31  33
ENDBRANCH  26  31
ENDBRANCH  23  27
ENDBRANCH  22  23
ENDBRANCH   1  22
TORSDOF 11
ENDMDL
MODEL 5
REMARK VINA RESULT:     -10.5      2.134     12.314
REMARK  Name = 132881
REMARK  11 active torsions:
REMARK  status: ('A' for Active; 'I' for Inactive)
REMARK    1  A    between atoms: C_1  and  O_22
REMARK    2  A    between atoms: C_4  and  C_7
REMARK    3  A    between atoms: C_10  and  C_15
REMARK    4  A    between atoms: N_14  and  C_15
REMARK    5  A    between atoms: N_14  and  C_19
REMARK    6  A    between atoms: C_19  and  O_20
REMARK    7  A    between atoms: O_22  and  C_23
REMARK    8  A    between atoms: C_23  and  C_27
REMARK    9  A    between atoms: C_26  and  C_31
REMARK   10  A    between atoms: C_31  and  C_33
REMARK   11  A    between atoms: C_33  and  O_34
REMARK                            x       y       z     vdW  Elec       q    Type
REMARK                         _______ _______ _______ _____ _____    ______ ____
ROOT
ATOM      1  C   UNL     1      35.321 -19.630 -21.142  0.00  0.00    +0.139 C 
ATOM      2  C   UNL     1      34.129 -20.164 -20.653  0.00  0.00    +0.037 C 
ATOM      3  C   UNL     1      36.522 -19.884 -20.481  0.00  0.00    +0.037 C 
ATOM      4  C   UNL     1      35.340 -21.207 -18.841  0.00  0.00    +0.000 C 
ATOM      5  C   UNL     1      34.138 -20.952 -19.503  0.00  0.00    +0.003 C 
ATOM      6  C   UNL     1      36.533 -20.673 -19.331  0.00  0.00    +0.003 C 
ENDROOT
BRANCH   4   7
ATOM      7  C   UNL     1      35.349 -22.025 -17.649  0.00  0.00    +0.000 C 
ATOM      8  C   UNL     1      36.484 -22.067 -16.838  0.00  0.00    +0.000 C 
ATOM      9  C   UNL     1      34.222 -22.773 -17.310  0.00  0.00    +0.000 C 
ATOM     10  C   UNL     1      35.362 -23.603 -15.348  0.00  0.00    +0.031 C 
ATOM     11  C   UNL     1      36.490 -22.856 -15.687  0.00  0.00    +0.003 C 
ATOM     12  C   UNL     1      34.228 -23.561 -16.159  0.00  0.00    +0.003 C 
BRANCH  10  14
ATOM     13  N   UNL     1      35.538 -25.810 -14.274  0.00  0.00    -0.385 N 
ATOM     14  C   UNL     1      35.368 -24.425 -14.149  0.00  0.00    +0.129 C 
ATOM     15  H   UNL     1      35.545 -26.380 -13.471  0.00  0.00    +0.157 HD
ATOM     16  H   UNL     1      35.651 -26.214 -15.165  0.00  0.00    +0.157 HD
BRANCH  14  17
ATOM     17  N   UNL     1      35.196 -23.821 -12.982  0.00  0.00    -0.126 NA
BRANCH  17  19
ATOM     18  O   UNL     1      34.832 -25.022 -11.027  0.00  0.00    -0.224 OA
ATOM     19  C   UNL     1      35.566 -24.416 -11.800  0.00  0.00    +0.427 C 
BRANCH  19  20
ATOM     20  O   UNL     1      36.914 -24.263 -11.624  0.00  0.00    -0.429 OA
ATOM     21  C   UNL     1      37.356 -22.937 -11.313  0.00  0.00    +0.257 C 
ENDBRANCH  19  20
ENDBRANCH  17  19
ENDBRANCH  14  17
ENDBRANCH  10  14
ENDBRANCH   4   7
BRANCH   1  22
ATOM     22  O   UNL     1      35.311 -18.853 -22.275  0.00  0.00    -0.474 OA
BRANCH  22  23
ATOM     23  C   UNL     1      34.593 -17.633 -22.210  0.00  0.00    +0.225 C 
BRANCH  23  27
ATOM     24  O   UNL     1      33.248 -15.561 -25.839  0.00  0.00    -0.275 OA
ATOM     25  N   UNL     1      34.760 -16.714 -24.473  0.00  0.00    -0.302 N 
ATOM     26  C   UNL     1      33.674 -14.866 -23.535  0.00  0.00    +0.089 C 
ATOM     27  C   UNL     1      35.268 -16.621 -23.126  0.00  0.00    +0.116 C 
ATOM     28  C   UNL     1      34.954 -15.177 -22.750  0.00  0.00    +0.033 C 
ATOM     29  C   UNL     1      33.841 -15.713 -24.782  0.00  0.00    +0.223 C 
ATOM     30  H   UNL     1      35.034 -17.413 -25.110  0.00  0.00    +0.149 HD
BRANCH  26  31
ATOM     31  C   UNL     1      33.506 -13.390 -23.843  0.00  0.00    +0.119 C 
BRANCH  31  33
ATOM     32  O   UNL     1      32.114 -13.180 -21.862  0.00  0.00    -0.250 OA
ATOM     33  C   UNL     1      32.789 -12.654 -22.736  0.00  0.00    +0.318 C 
BRANCH  33  34
ATOM     34  O   UNL     1      33.020 -11.315 -22.872  0.00  0.00    -0.444 OA
ATOM     35  C   UNL     1      34.091 -10.960 -23.754  0.00  0.00    +0.256 C 
ENDBRANCH  33  34
ENDBRANCH  31  33
ENDBRANCH  26  31
ENDBRANCH  23  27
ENDBRANCH  22  23
ENDBRANCH   1  22
TORSDOF 11
ENDMDL
MODEL 6
REMARK VINA RESULT:     -10.5      2.411      4.123
REMARK  Name = 132881
REMARK  11 active torsions:
REMARK  status: ('A' for Active; 'I' for Inactive)
REMARK    1  A    between atoms: C_1  and  O_22
REMARK    2  A    between atoms: C_4  and  C_7
REMARK    3  A    between atoms: C_10  and  C_15
REMARK    4  A    between atoms: N_14  and  C_15
REMARK    5  A    between atoms: N_14  and  C_19
REMARK    6  A    between atoms: C_19  and  O_20
REMARK    7  A    between atoms: O_22  and  C_23
REMARK    8  A    between atoms: C_23  and  C_27
REMARK    9  A    between atoms: C_26  and  C_31
REMARK   10  A    between atoms: C_31  and  C_33
REMARK   11  A    between atoms: C_33  and  O_34
REMARK                            x       y       z     vdW  Elec       q    Type
REMARK                         _______ _______ _______ _____ _____    ______ ____
ROOT
ATOM      1  C   UNL     1      34.949 -22.210 -18.225  0.00  0.00    +0.139 C 
ATOM      2  C   UNL     1      33.735 -21.813 -18.786  0.00  0.00    +0.037 C 
ATOM      3  C   UNL     1      36.142 -21.644 -18.672  0.00  0.00    +0.037 C 
ATOM      4  C   UNL     1      34.909 -20.283 -20.242  0.00  0.00    +0.000 C 
ATOM      5  C   UNL     1      33.715 -20.850 -19.794  0.00  0.00    +0.003 C 
ATOM      6  C   UNL     1      36.122 -20.680 -19.680  0.00  0.00    +0.003 C 
ENDROOT
BRANCH   4   7
ATOM      7  C   UNL     1      34.886 -19.283 -21.286  0.00  0.00    +0.000 C 
ATOM      8  C   UNL     1      35.280 -17.973 -21.009  0.00  0.00    +0.000 C 
ATOM      9  C   UNL     1      34.470 -19.629 -22.572  0.00  0.00    +0.000 C 
ATOM     10  C   UNL     1      34.844 -17.357 -23.304  0.00  0.00    +0.031 C 
ATOM     11  C   UNL     1      35.260 -17.010 -22.018  0.00  0.00    +0.003 C 
ATOM     12  C   UNL     1      34.449 -18.666 -23.580  0.00  0.00    +0.003 C 
BRANCH  10  14
ATOM     13  N   UNL     1      35.980 -15.606 -24.609  0.00  0.00    -0.385 N 
ATOM     14  C   UNL     1      34.822 -16.354 -24.356  0.00  0.00    +0.129 C 
ATOM     15  H   UNL     1      35.981 -14.924 -25.318  0.00  0.00    +0.157 HD
ATOM     16  H   UNL     1      36.794 -15.765 -24.077  0.00  0.00    +0.157 HD
BRANCH  14  17
ATOM     17  N   UNL     1      33.691 -16.181 -25.025  0.00  0.00    -0.126 NA
BRANCH  17  19
ATOM     18  O   UNL     1      32.652 -14.475 -26.211  0.00  0.00    -0.224 OA
ATOM     19  C   UNL     1      33.127 -14.938 -25.180  0.00  0.00    +0.427 C 
BRANCH  19  20
ATOM     20  O   UNL     1      33.139 -14.287 -23.977  0.00  0.00    -0.429 OA
ATOM     21  C   UNL     1      33.449 -12.890 -24.026  0.00  0.00    +0.257 C 
ENDBRANCH  19  20
ENDBRANCH  17  19
ENDBRANCH  14  17
ENDBRANCH  10  14
ENDBRANCH   4   7
BRANCH   1  22
ATOM     22  O   UNL     1      34.968 -23.160 -17.233  0.00  0.00    -0.474 OA
BRANCH  22  23
ATOM     23  C   UNL     1      34.426 -22.789 -15.978  0.00  0.00    +0.225 C 
BRANCH  23  27
ATOM     24  O   UNL     1      32.070 -23.324 -12.313  0.00  0.00    -0.275 OA
ATOM     25  N   UNL     1      33.419 -23.998 -14.103  0.00  0.00    -0.302 N 
ATOM     26  C   UNL     1      31.527 -22.722 -14.619  0.00  0.00    +0.089 C 
ATOM     27  C   UNL     1      33.437 -23.860 -15.538  0.00  0.00    +0.116 C 
ATOM     28  C   UNL     1      31.990 -23.499 -15.857  0.00  0.00    +0.033 C 
ATOM     29  C   UNL     1      32.326 -23.375 -13.506  0.00  0.00    +0.223 C 
ATOM     30  H   UNL     1      34.109 -24.484 -13.596  0.00  0.00    +0.149 HD
BRANCH  26  31
ATOM     31  C   UNL     1      30.029 -22.798 -14.391  0.00  0.00    +0.119 C 
BRANCH  31  33
ATOM     32  O   UNL     1      29.224 -22.200 -16.605  0.00  0.00    -0.250 OA
ATOM     33  C   UNL     1      29.265 -22.999 -15.679  0.00  0.00    +0.318 C 
BRANCH  33  34
ATOM     34  O   UNL     1      28.636 -24.210 -15.637  0.00  0.00    -0.444 OA
ATOM     35  C   UNL     1      28.996 -25.054 -14.537  0.00  0.00    +0.256 C 
ENDBRANCH  33  34
ENDBRANCH  31  33
ENDBRANCH  26  31
ENDBRANCH  23  27
ENDBRANCH  22  23
ENDBRANCH   1  22
TORSDOF 11
ENDMDL
MODEL 7
REMARK VINA RESULT:     -10.4      1.705      2.609
REMARK  Name = 132881
REMARK  11 active torsions:
REMARK  status: ('A' for Active; 'I' for Inactive)
REMARK    1  A    between atoms: C_1  and  O_22
REMARK    2  A    between atoms: C_4  and  C_7
REMARK    3  A    between atoms: C_10  and  C_15
REMARK    4  A    between atoms: N_14  and  C_15
REMARK    5  A    between atoms: N_14  and  C_19
REMARK    6  A    between atoms: C_19  and  O_20
REMARK    7  A    between atoms: O_22  and  C_23
REMARK    8  A    between atoms: C_23  and  C_27
REMARK    9  A    between atoms: C_26  and  C_31
REMARK   10  A    between atoms: C_31  and  C_33
REMARK   11  A    between atoms: C_33  and  O_34
REMARK                            x       y       z     vdW  Elec       q    Type
REMARK                         _______ _______ _______ _____ _____    ______ ____
ROOT
ATOM      1  C   UNL     1      34.428 -23.480 -16.134  0.00  0.00    +0.139 C 
ATOM      2  C   UNL     1      33.286 -23.301 -16.914  0.00  0.00    +0.037 C 
ATOM      3  C   UNL     1      35.619 -22.843 -16.484  0.00  0.00    +0.037 C 
ATOM      4  C   UNL     1      34.525 -21.845 -18.393  0.00  0.00    +0.000 C 
ATOM      5  C   UNL     1      33.334 -22.484 -18.043  0.00  0.00    +0.003 C 
ATOM      6  C   UNL     1      35.667 -22.025 -17.612  0.00  0.00    +0.003 C 
ENDROOT
BRANCH   4   7
ATOM      7  C   UNL     1      34.573 -20.998 -19.563  0.00  0.00    +0.000 C 
ATOM      8  C   UNL     1      33.392 -20.631 -20.210  0.00  0.00    +0.000 C 
ATOM      9  C   UNL     1      35.800 -20.545 -20.045  0.00  0.00    +0.000 C 
ATOM     10  C   UNL     1      34.668 -19.359 -21.820  0.00  0.00    +0.031 C 
ATOM     11  C   UNL     1      33.439 -19.812 -21.338  0.00  0.00    +0.003 C 
ATOM     12  C   UNL     1      35.848 -19.726 -21.173  0.00  0.00    +0.003 C 
BRANCH  10  14
ATOM     13  N   UNL     1      34.048 -18.908 -24.159  0.00  0.00    -0.385 N 
ATOM     14  C   UNL     1      34.718 -18.505 -22.995  0.00  0.00    +0.129 C 
ATOM     15  H   UNL     1      34.072 -18.341 -24.962  0.00  0.00    +0.157 HD
ATOM     16  H   UNL     1      33.552 -19.759 -24.171  0.00  0.00    +0.157 HD
BRANCH  14  17
ATOM     17  N   UNL     1      35.414 -17.380 -22.916  0.00  0.00    -0.126 NA
BRANCH  17  19
ATOM     18  O   UNL     1      34.819 -16.333 -24.902  0.00  0.00    -0.224 OA
ATOM     19  C   UNL     1      35.134 -16.301 -23.717  0.00  0.00    +0.427 C 
BRANCH  19  20
ATOM     20  O   UNL     1      35.224 -15.156 -22.975  0.00  0.00    -0.429 OA
ATOM     21  C   UNL     1      33.996 -14.451 -22.763  0.00  0.00    +0.257 C 
ENDBRANCH  19  20
ENDBRANCH  17  19
ENDBRANCH  14  17
ENDBRANCH  10  14
ENDBRANCH   4   7
BRANCH   1  22
ATOM     22  O   UNL     1      34.381 -24.286 -15.023  0.00  0.00    -0.474 OA
BRANCH  22  23
ATOM     23  C   UNL     1      33.989 -23.678 -13.805  0.00  0.00    +0.225 C 
BRANCH  23  27
ATOM     24  O   UNL     1      35.546 -25.176  -9.984  0.00  0.00    -0.275 OA
ATOM     25  N   UNL     1      35.026 -23.555 -11.591  0.00  0.00    -0.302 N 
ATOM     26  C   UNL     1      36.219 -25.432 -12.320  0.00  0.00    +0.089 C 
ATOM     27  C   UNL     1      35.238 -23.344 -13.002  0.00  0.00    +0.116 C 
ATOM     28  C   UNL     1      36.407 -24.274 -13.307  0.00  0.00    +0.033 C 
ATOM     29  C   UNL     1      35.585 -24.743 -11.126  0.00  0.00    +0.223 C 
ATOM     30  H   UNL     1      34.536 -22.925 -11.015  0.00  0.00    +0.149 HD
BRANCH  26  31
ATOM     31  C   UNL     1      37.516 -26.139 -11.973  0.00  0.00    +0.119 C 
BRANCH  31  33
ATOM     32  O   UNL     1      39.178 -24.400 -12.322  0.00  0.00    -0.250 OA
ATOM     33  C   UNL     1      38.713 -25.490 -12.628  0.00  0.00    +0.318 C 
BRANCH  33  34
ATOM     34  O   UNL     1      39.184 -26.315 -13.608  0.00  0.00    -0.444 OA
ATOM     35  C   UNL     1      40.227 -25.771 -14.424  0.00  0.00    +0.256 C 
ENDBRANCH  33  34
ENDBRANCH  31  33
ENDBRANCH  26  31
ENDBRANCH  23  27
ENDBRANCH  22  23
ENDBRANCH   1  22
TORSDOF 11
ENDMDL
MODEL 8
REMARK VINA RESULT:     -10.3      1.916     12.072
REMARK  Name = 132881
REMARK  11 active torsions:
REMARK  status: ('A' for Active; 'I' for Inactive)
REMARK    1  A    between atoms: C_1  and  O_22
REMARK    2  A    between atoms: C_4  and  C_7
REMARK    3  A    between atoms: C_10  and  C_15
REMARK    4  A    between atoms: N_14  and  C_15
REMARK    5  A    between atoms: N_14  and  C_19
REMARK    6  A    between atoms: C_19  and  O_20
REMARK    7  A    between atoms: O_22  and  C_23
REMARK    8  A    between atoms: C_23  and  C_27
REMARK    9  A    between atoms: C_26  and  C_31
REMARK   10  A    between atoms: C_31  and  C_33
REMARK   11  A    between atoms: C_33  and  O_34
REMARK                            x       y       z     vdW  Elec       q    Type
REMARK                         _______ _______ _______ _____ _____    ______ ____
ROOT
ATOM      1  C   UNL     1      34.818 -21.303 -19.428  0.00  0.00    +0.139 C 
ATOM      2  C   UNL     1      36.114 -21.112 -18.950  0.00  0.00    +0.037 C 
ATOM      3  C   UNL     1      33.884 -21.994 -18.656  0.00  0.00    +0.037 C 
ATOM      4  C   UNL     1      35.543 -22.301 -16.926  0.00  0.00    +0.000 C 
ATOM      5  C   UNL     1      36.477 -21.610 -17.699  0.00  0.00    +0.003 C 
ATOM      6  C   UNL     1      34.246 -22.492 -17.404  0.00  0.00    +0.003 C 
ENDROOT
BRANCH   4   7
ATOM      7  C   UNL     1      35.920 -22.816 -15.629  0.00  0.00    +0.000 C 
ATOM      8  C   UNL     1      37.252 -22.764 -15.215  0.00  0.00    +0.000 C 
ATOM      9  C   UNL     1      34.951 -23.365 -14.789  0.00  0.00    +0.000 C 
ATOM     10  C   UNL     1      36.644 -23.808 -13.123  0.00  0.00    +0.031 C 
ATOM     11  C   UNL     1      37.614 -23.260 -13.963  0.00  0.00    +0.003 C 
ATOM     12  C   UNL     1      35.313 -23.861 -13.536  0.00  0.00    +0.003 C 
BRANCH  10  14
ATOM     13  N   UNL     1      37.146 -23.435 -10.742  0.00  0.00    -0.385 N 
ATOM     14  C   UNL     1      37.021 -24.325 -11.818  0.00  0.00    +0.129 C 
ATOM     15  H   UNL     1      37.400 -23.770  -9.853  0.00  0.00    +0.157 HD
ATOM     16  H   UNL     1      36.979 -22.474 -10.877  0.00  0.00    +0.157 HD
BRANCH  14  17
ATOM     17  N   UNL     1      37.245 -25.627 -11.708  0.00  0.00    -0.126 NA
BRANCH  17  19
ATOM     18  O   UNL     1      39.222 -26.148 -12.811  0.00  0.00    -0.224 OA
ATOM     19  C   UNL     1      38.021 -26.304 -12.616  0.00  0.00    +0.427 C 
BRANCH  19  20
ATOM     20  O   UNL     1      37.250 -27.230 -13.262  0.00  0.00    -0.429 OA
ATOM     21  C   UNL     1      37.009 -26.981 -14.652  0.00  0.00    +0.257 C 
ENDBRANCH  19  20
ENDBRANCH  17  19
ENDBRANCH  14  17
ENDBRANCH  10  14
ENDBRANCH   4   7
BRANCH   1  22
ATOM     22  O   UNL     1      34.462 -20.814 -20.661  0.00  0.00    -0.474 OA
BRANCH  22  23
ATOM     23  C   UNL     1      34.687 -19.434 -20.893  0.00  0.00    +0.225 C 
BRANCH  23  27
ATOM     24  O   UNL     1      33.535 -18.643 -25.055  0.00  0.00    -0.275 OA
ATOM     25  N   UNL     1      34.730 -19.678 -23.329  0.00  0.00    -0.302 N 
ATOM     26  C   UNL     1      34.654 -17.340 -23.316  0.00  0.00    +0.089 C 
ATOM     27  C   UNL     1      35.497 -19.282 -22.174  0.00  0.00    +0.116 C 
ATOM     28  C   UNL     1      35.846 -17.831 -22.486  0.00  0.00    +0.033 C 
ATOM     29  C   UNL     1      34.225 -18.597 -24.048  0.00  0.00    +0.223 C 
ATOM     30  H   UNL     1      34.579 -20.617 -23.584  0.00  0.00    +0.149 HD
BRANCH  26  31
ATOM     31  C   UNL     1      35.007 -16.202 -24.256  0.00  0.00    +0.119 C 
BRANCH  31  33
ATOM     32  O   UNL     1      33.230 -15.504 -25.760  0.00  0.00    -0.250 OA
ATOM     33  C   UNL     1      33.790 -15.411 -24.676  0.00  0.00    +0.318 C 
BRANCH  33  34
ATOM     34  O   UNL     1      33.424 -14.584 -23.653  0.00  0.00    -0.444 OA
ATOM     35  C   UNL     1      33.419 -13.186 -23.962  0.00  0.00    +0.256 C 
ENDBRANCH  33  34
ENDBRANCH  31  33
ENDBRANCH  26  31
ENDBRANCH  23  27
ENDBRANCH  22  23
ENDBRANCH   1  22
TORSDOF 11
ENDMDL
MODEL 9
REMARK VINA RESULT:     -10.3      1.451      2.455
REMARK  Name = 132881
REMARK  11 active torsions:
REMARK  status: ('A' for Active; 'I' for Inactive)
REMARK    1  A    between atoms: C_1  and  O_22
REMARK    2  A    between atoms: C_4  and  C_7
REMARK    3  A    between atoms: C_10  and  C_15
REMARK    4  A    between atoms: N_14  and  C_15
REMARK    5  A    between atoms: N_14  and  C_19
REMARK    6  A    between atoms: C_19  and  O_20
REMARK    7  A    between atoms: O_22  and  C_23
REMARK    8  A    between atoms: C_23  and  C_27
REMARK    9  A    between atoms: C_26  and  C_31
REMARK   10  A    between atoms: C_31  and  C_33
REMARK   11  A    between atoms: C_33  and  O_34
REMARK                            x       y       z     vdW  Elec       q    Type
REMARK                         _______ _______ _______ _____ _____    ______ ____
ROOT
ATOM      1  C   UNL     1      34.857 -22.422 -17.938  0.00  0.00    +0.139 C 
ATOM      2  C   UNL     1      33.664 -22.037 -18.549  0.00  0.00    +0.037 C 
ATOM      3  C   UNL     1      36.062 -21.842 -18.332  0.00  0.00    +0.037 C 
ATOM      4  C   UNL     1      34.881 -20.489 -19.949  0.00  0.00    +0.000 C 
ATOM      5  C   UNL     1      33.676 -21.071 -19.555  0.00  0.00    +0.003 C 
ATOM      6  C   UNL     1      36.074 -20.875 -19.337  0.00  0.00    +0.003 C 
ENDROOT
BRANCH   4   7
ATOM      7  C   UNL     1      34.892 -19.486 -20.990  0.00  0.00    +0.000 C 
ATOM      8  C   UNL     1      35.269 -18.175 -20.695  0.00  0.00    +0.000 C 
ATOM      9  C   UNL     1      34.526 -19.829 -22.292  0.00  0.00    +0.000 C 
ATOM     10  C   UNL     1      34.915 -17.553 -23.003  0.00  0.00    +0.031 C 
ATOM     11  C   UNL     1      35.281 -17.209 -21.701  0.00  0.00    +0.003 C 
ATOM     12  C   UNL     1      34.538 -18.863 -23.297  0.00  0.00    +0.003 C 
BRANCH  10  14
ATOM     13  N   UNL     1      36.002 -15.650 -24.124  0.00  0.00    -0.385 N 
ATOM     14  C   UNL     1      34.927 -16.546 -24.051  0.00  0.00    +0.129 C 
ATOM     15  H   UNL     1      36.024 -14.963 -24.828  0.00  0.00    +0.157 HD
ATOM     16  H   UNL     1      36.736 -15.708 -23.469  0.00  0.00    +0.157 HD
BRANCH  14  17
ATOM     17  N   UNL     1      33.902 -16.514 -24.891  0.00  0.00    -0.126 NA
BRANCH  17  19
ATOM     18  O   UNL     1      33.054 -14.983 -26.420  0.00  0.00    -0.224 OA
ATOM     19  C   UNL     1      33.320 -15.330 -25.274  0.00  0.00    +0.427 C 
BRANCH  19  20
ATOM     20  O   UNL     1      33.039 -14.589 -24.159  0.00  0.00    -0.429 OA
ATOM     21  C   UNL     1      33.334 -13.190 -24.249  0.00  0.00    +0.257 C 
ENDBRANCH  19  20
ENDBRANCH  17  19
ENDBRANCH  14  17
ENDBRANCH  10  14
ENDBRANCH   4   7
BRANCH   1  22
ATOM     22  O   UNL     1      34.844 -23.375 -16.949  0.00  0.00    -0.474 OA
BRANCH  22  23
ATOM     23  C   UNL     1      35.059 -22.927 -15.623  0.00  0.00    +0.225 C 
BRANCH  23  27
ATOM     24  O   UNL     1      37.708 -26.361 -14.945  0.00  0.00    -0.275 OA
ATOM     25  N   UNL     1      35.658 -25.268 -15.231  0.00  0.00    -0.302 N 
ATOM     26  C   UNL     1      37.132 -24.368 -13.652  0.00  0.00    +0.089 C 
ATOM     27  C   UNL     1      34.973 -24.123 -14.684  0.00  0.00    +0.116 C 
ATOM     28  C   UNL     1      35.702 -23.896 -13.364  0.00  0.00    +0.033 C 
ATOM     29  C   UNL     1      36.913 -25.478 -14.663  0.00  0.00    +0.223 C 
ATOM     30  H   UNL     1      35.278 -25.843 -15.934  0.00  0.00    +0.149 HD
BRANCH  26  31
ATOM     31  C   UNL     1      37.868 -24.838 -12.412  0.00  0.00    +0.119 C 
BRANCH  31  33
ATOM     32  O   UNL     1      38.144 -22.668 -11.351  0.00  0.00    -0.250 OA
ATOM     33  C   UNL     1      37.784 -23.835 -11.284  0.00  0.00    +0.318 C 
BRANCH  33  34
ATOM     34  O   UNL     1      37.243 -24.445 -10.189  0.00  0.00    -0.444 OA
ATOM     35  C   UNL     1      35.835 -24.254 -10.009  0.00  0.00    +0.256 C 
ENDBRANCH  33  34
ENDBRANCH  31  33
ENDBRANCH  26  31
ENDBRANCH  23  27
ENDBRANCH  22  23
ENDBRANCH   1  22
TORSDOF 11
ENDMDL
