MODEL 1
REMARK VINA RESULT:     -12.5      0.000      0.000
REMARK  Name = 10224181
REMARK  7 active torsions:
REMARK  status: ('A' for Active; 'I' for Inactive)
REMARK    1  A    between atoms: N_3  and  C_23
REMARK    2  A    between atoms: C_12  and  C_14
REMARK    3  A    between atoms: C_15  and  C_16
REMARK    4  A    between atoms: C_16  and  C_17
REMARK    5  A    between atoms: C_23  and  C_24
REMARK    6  A    between atoms: C_29  and  C_31
REMARK    7  A    between atoms: C_31  and  O_32
REMARK                            x       y       z     vdW  Elec       q    Type
REMARK                         _______ _______ _______ _____ _____    ______ ____
ROOT
ATOM      1  O   UNL     1      32.267 -23.639 -16.890  0.00  0.00    -0.267 OA
ATOM      2  O   UNL     1      34.745 -24.488 -13.051  0.00  0.00    -0.246 OA
ATOM      3  N   UNL     1      33.488 -24.081 -14.951  0.00  0.00    -0.244 N 
ATOM      4  N   UNL     1      35.718 -23.251 -14.751  0.00  0.00    -0.279 N 
ATOM      5  C   UNL     1      35.617 -22.658 -16.044  0.00  0.00    +0.069 A 
ATOM      6  C   UNL     1      34.438 -22.788 -16.781  0.00  0.00    +0.073 A 
ATOM      7  C   UNL     1      33.297 -23.535 -16.226  0.00  0.00    +0.266 A 
ATOM      8  C   UNL     1      34.662 -23.973 -14.172  0.00  0.00    +0.334 A 
ATOM      9  C   UNL     1      34.319 -22.211 -18.056  0.00  0.00    +0.014 C 
ATOM     10  C   UNL     1      36.679 -21.935 -16.617  0.00  0.00    +0.018 C 
ATOM     11  C   UNL     1      36.965 -23.100 -14.002  0.00  0.00    +0.135 C 
ATOM     12  C   UNL     1      35.382 -21.500 -18.605  0.00  0.00    +0.042 C 
ATOM     13  C   UNL     1      36.561 -21.361 -17.885  0.00  0.00    +0.010 C 
ENDROOT
BRANCH  12  14
ATOM     14  C   UNL     1      35.258 -20.914 -19.902  0.00  0.00    -0.064 C 
ATOM     15  C   UNL     1      35.155 -20.424 -20.998  0.00  0.00    -0.082 C 
BRANCH  15  16
ATOM     16  C   UNL     1      35.029 -19.829 -22.333  0.00  0.00    +0.103 C 
BRANCH  16  17
ATOM     17  C   UNL     1      35.015 -18.323 -22.281  0.00  0.00    -0.009 C 
ATOM     18  C   UNL     1      34.903 -17.600 -23.459  0.00  0.00    -0.003 C 
ATOM     19  C   UNL     1      35.113 -17.683 -21.054  0.00  0.00    -0.003 C 
ATOM     20  C   UNL     1      34.888 -16.206 -23.410  0.00  0.00    -0.000 C 
ATOM     21  C   UNL     1      35.099 -16.289 -21.005  0.00  0.00    -0.000 C 
ATOM     22  C   UNL     1      34.987 -15.551 -22.182  0.00  0.00    -0.000 C 
ENDBRANCH  16  17
ENDBRANCH  15  16
ENDBRANCH  12  14
BRANCH   3  23
ATOM     23  C   UNL     1      32.373 -24.827 -14.373  0.00  0.00    +0.140 C 
BRANCH  23  24
ATOM     24  C   UNL     1      31.047 -24.193 -14.695  0.00  0.00    +0.001 C 
ATOM     25  C   UNL     1      30.092 -24.922 -15.392  0.00  0.00    -0.002 C 
ATOM     26  C   UNL     1      30.796 -22.889 -14.291  0.00  0.00    -0.002 C 
ATOM     27  C   UNL     1      28.862 -24.335 -15.690  0.00  0.00    +0.006 C 
ATOM     28  C   UNL     1      29.566 -22.302 -14.589  0.00  0.00    +0.006 C 
ATOM     29  C   UNL     1      28.599 -23.025 -15.289  0.00  0.00    +0.075 C 
BRANCH  29  31
ATOM     30  O   UNL     1      26.294 -22.509 -14.914  0.00  0.00    -0.245 OA
ATOM     31  C   UNL     1      27.317 -22.412 -15.599  0.00  0.00    +0.338 C 
BRANCH  31  32
ATOM     32  O   UNL     1      27.348 -21.697 -16.757  0.00  0.00    -0.477 OA
ATOM     33  H   UNL     1      26.624 -21.149 -16.988  0.00  0.00    +0.295 HD
ENDBRANCH  31  32
ENDBRANCH  29  31
ENDBRANCH  23  24
ENDBRANCH   3  23
TORSDOF 7
ENDMDL
MODEL 2
REMARK VINA RESULT:     -12.0      5.580      9.603
REMARK  Name = 10224181
REMARK  7 active torsions:
REMARK  status: ('A' for Active; 'I' for Inactive)
REMARK    1  A    between atoms: N_3  and  C_23
REMARK    2  A    between atoms: C_12  and  C_14
REMARK    3  A    between atoms: C_15  and  C_16
REMARK    4  A    between atoms: C_16  and  C_17
REMARK    5  A    between atoms: C_23  and  C_24
REMARK    6  A    between atoms: C_29  and  C_31
REMARK    7  A    between atoms: C_31  and  O_32
REMARK                            x       y       z     vdW  Elec       q    Type
REMARK                         _______ _______ _______ _____ _____    ______ ____
ROOT
ATOM      1  O   UNL     1      35.336 -15.992 -19.848  0.00  0.00    -0.267 OA
ATOM      2  O   UNL     1      35.720 -18.522 -23.728  0.00  0.00    -0.246 OA
ATOM      3  N   UNL     1      35.547 -17.282 -21.781  0.00  0.00    -0.244 N 
ATOM      4  N   UNL     1      34.436 -16.595 -23.779  0.00  0.00    -0.279 N 
ATOM      5  C   UNL     1      33.912 -15.455 -23.101  0.00  0.00    +0.069 A 
ATOM      6  C   UNL     1      34.216 -15.245 -21.755  0.00  0.00    +0.073 A 
ATOM      7  C   UNL     1      35.079 -16.195 -21.033  0.00  0.00    +0.266 A 
ATOM      8  C   UNL     1      35.264 -17.533 -23.143  0.00  0.00    +0.334 A 
ATOM      9  C   UNL     1      33.710 -14.128 -21.069  0.00  0.00    +0.014 C 
ATOM     10  C   UNL     1      33.084 -14.519 -23.746  0.00  0.00    +0.018 C 
ATOM     11  C   UNL     1      34.100 -16.792 -25.189  0.00  0.00    +0.135 C 
ATOM     12  C   UNL     1      32.893 -13.214 -21.726  0.00  0.00    +0.042 C 
ATOM     13  C   UNL     1      32.580 -13.409 -23.065  0.00  0.00    +0.010 C 
ENDROOT
BRANCH  12  14
ATOM     14  C   UNL     1      32.379 -12.079 -21.026  0.00  0.00    -0.064 C 
ATOM     15  C   UNL     1      31.946 -11.120 -20.439  0.00  0.00    -0.082 C 
BRANCH  15  16
ATOM     16  C   UNL     1      31.419  -9.950 -19.728  0.00  0.00    +0.103 C 
BRANCH  16  17
ATOM     17  C   UNL     1      31.860  -8.657 -20.365  0.00  0.00    -0.009 C 
ATOM     18  C   UNL     1      32.591  -7.743 -19.619  0.00  0.00    -0.003 C 
ATOM     19  C   UNL     1      31.529  -8.401 -21.687  0.00  0.00    -0.003 C 
ATOM     20  C   UNL     1      33.000  -6.548 -20.209  0.00  0.00    -0.000 C 
ATOM     21  C   UNL     1      31.937  -7.205 -22.277  0.00  0.00    -0.000 C 
ATOM     22  C   UNL     1      32.672  -6.279 -21.539  0.00  0.00    -0.000 C 
ENDBRANCH  16  17
ENDBRANCH  15  16
ENDBRANCH  12  14
BRANCH   3  23
ATOM     23  C   UNL     1      36.405 -18.242 -21.092  0.00  0.00    +0.140 C 
BRANCH  23  24
ATOM     24  C   UNL     1      35.612 -19.362 -20.474  0.00  0.00    +0.001 C 
ATOM     25  C   UNL     1      36.268 -20.334 -19.730  0.00  0.00    -0.002 C 
ATOM     26  C   UNL     1      34.237 -19.407 -20.655  0.00  0.00    -0.002 C 
ATOM     27  C   UNL     1      35.533 -21.371 -19.156  0.00  0.00    +0.006 C 
ATOM     28  C   UNL     1      33.502 -20.444 -20.081  0.00  0.00    +0.006 C 
ATOM     29  C   UNL     1      34.150 -21.427 -19.332  0.00  0.00    +0.075 C 
BRANCH  29  31
ATOM     30  O   UNL     1      32.390 -22.367 -18.013  0.00  0.00    -0.245 OA
ATOM     31  C   UNL     1      33.383 -22.509 -18.733  0.00  0.00    +0.338 C 
BRANCH  31  32
ATOM     32  O   UNL     1      33.879 -23.736 -19.050  0.00  0.00    -0.477 OA
ATOM     33  H   UNL     1      34.776 -23.826 -19.305  0.00  0.00    +0.295 HD
ENDBRANCH  31  32
ENDBRANCH  29  31
ENDBRANCH  23  24
ENDBRANCH   3  23
TORSDOF 7
ENDMDL
MODEL 3
REMARK VINA RESULT:     -12.0      2.571      6.277
REMARK  Name = 10224181
REMARK  7 active torsions:
REMARK  status: ('A' for Active; 'I' for Inactive)
REMARK    1  A    between atoms: N_3  and  C_23
REMARK    2  A    between atoms: C_12  and  C_14
REMARK    3  A    between atoms: C_15  and  C_16
REMARK    4  A    between atoms: C_16  and  C_17
REMARK    5  A    between atoms: C_23  and  C_24
REMARK    6  A    between atoms: C_29  and  C_31
REMARK    7  A    between atoms: C_31  and  O_32
REMARK                            x       y       z     vdW  Elec       q    Type
REMARK                         _______ _______ _______ _____ _____    ______ ____
ROOT
ATOM      1  O   UNL     1      36.551 -22.901 -15.002  0.00  0.00    -0.267 OA
ATOM      2  O   UNL     1      32.637 -24.894 -13.482  0.00  0.00    -0.246 OA
ATOM      3  N   UNL     1      34.601 -23.911 -14.214  0.00  0.00    -0.244 N 
ATOM      4  N   UNL     1      32.603 -23.785 -15.515  0.00  0.00    -0.279 N 
ATOM      5  C   UNL     1      33.295 -23.034 -16.511  0.00  0.00    +0.069 A 
ATOM      6  C   UNL     1      34.646 -22.728 -16.340  0.00  0.00    +0.073 A 
ATOM      7  C   UNL     1      35.361 -23.180 -15.135  0.00  0.00    +0.266 A 
ATOM      8  C   UNL     1      33.233 -24.242 -14.347  0.00  0.00    +0.334 A 
ATOM      9  C   UNL     1      35.345 -21.990 -17.309  0.00  0.00    +0.014 C 
ATOM     10  C   UNL     1      32.656 -22.580 -17.680  0.00  0.00    +0.018 C 
ATOM     11  C   UNL     1      31.187 -24.090 -15.720  0.00  0.00    +0.135 C 
ATOM     12  C   UNL     1      34.695 -21.550 -18.459  0.00  0.00    +0.042 C 
ATOM     13  C   UNL     1      33.351 -21.846 -18.644  0.00  0.00    +0.010 C 
ENDROOT
BRANCH  12  14
ATOM     14  C   UNL     1      35.408 -20.800 -19.443  0.00  0.00    -0.064 C 
ATOM     15  C   UNL     1      36.011 -20.164 -20.271  0.00  0.00    -0.082 C 
BRANCH  15  16
ATOM     16  C   UNL     1      36.746 -19.388 -21.276  0.00  0.00    +0.103 C 
BRANCH  16  17
ATOM     17  C   UNL     1      35.826 -18.798 -22.315  0.00  0.00    -0.009 C 
ATOM     18  C   UNL     1      35.055 -19.641 -23.102  0.00  0.00    -0.003 C 
ATOM     19  C   UNL     1      35.765 -17.421 -22.467  0.00  0.00    -0.003 C 
ATOM     20  C   UNL     1      34.204 -19.095 -24.061  0.00  0.00    -0.000 C 
ATOM     21  C   UNL     1      34.914 -16.874 -23.427  0.00  0.00    -0.000 C 
ATOM     22  C   UNL     1      34.134 -17.711 -24.225  0.00  0.00    -0.000 C 
ENDBRANCH  16  17
ENDBRANCH  15  16
ENDBRANCH  12  14
BRANCH   3  23
ATOM     23  C   UNL     1      35.282 -24.373 -13.008  0.00  0.00    +0.140 C 
BRANCH  23  24
ATOM     24  C   UNL     1      36.653 -24.914 -13.311  0.00  0.00    +0.001 C 
ATOM     25  C   UNL     1      36.793 -25.947 -14.228  0.00  0.00    -0.002 C 
ATOM     26  C   UNL     1      37.759 -24.373 -12.670  0.00  0.00    -0.002 C 
ATOM     27  C   UNL     1      38.064 -26.448 -14.509  0.00  0.00    +0.006 C 
ATOM     28  C   UNL     1      39.030 -24.874 -12.951  0.00  0.00    +0.006 C 
ATOM     29  C   UNL     1      39.182 -25.913 -13.871  0.00  0.00    +0.075 C 
BRANCH  29  31
ATOM     30  O   UNL     1      41.269 -26.956 -13.343  0.00  0.00    -0.245 OA
ATOM     31  C   UNL     1      40.508 -26.435 -14.165  0.00  0.00    +0.338 C 
BRANCH  31  32
ATOM     32  O   UNL     1      40.846 -26.290 -15.475  0.00  0.00    -0.477 OA
ATOM     33  H   UNL     1      40.940 -27.047 -16.020  0.00  0.00    +0.295 HD
ENDBRANCH  31  32
ENDBRANCH  29  31
ENDBRANCH  23  24
ENDBRANCH   3  23
TORSDOF 7
ENDMDL
MODEL 4
REMARK VINA RESULT:     -11.6      8.651     13.710
REMARK  Name = 10224181
REMARK  7 active torsions:
REMARK  status: ('A' for Active; 'I' for Inactive)
REMARK    1  A    between atoms: N_3  and  C_23
REMARK    2  A    between atoms: C_12  and  C_14
REMARK    3  A    between atoms: C_15  and  C_16
REMARK    4  A    between atoms: C_16  and  C_17
REMARK    5  A    between atoms: C_23  and  C_24
REMARK    6  A    between atoms: C_29  and  C_31
REMARK    7  A    between atoms: C_31  and  O_32
REMARK                            x       y       z     vdW  Elec       q    Type
REMARK                         _______ _______ _______ _____ _____    ______ ____
ROOT
ATOM      1  O   UNL     1      34.134 -12.093 -24.231  0.00  0.00    -0.267 OA
ATOM      2  O   UNL     1      30.990  -9.414 -22.099  0.00  0.00    -0.246 OA
ATOM      3  N   UNL     1      32.557 -10.728 -23.184  0.00  0.00    -0.244 N 
ATOM      4  N   UNL     1      31.644 -11.389 -21.079  0.00  0.00    -0.279 N 
ATOM      5  C   UNL     1      32.442 -12.571 -21.100  0.00  0.00    +0.069 A 
ATOM      6  C   UNL     1      33.295 -12.817 -22.177  0.00  0.00    +0.073 A 
ATOM      7  C   UNL     1      33.376 -11.859 -23.292  0.00  0.00    +0.266 A 
ATOM      8  C   UNL     1      31.680 -10.440 -22.114  0.00  0.00    +0.334 A 
ATOM      9  C   UNL     1      34.090 -13.975 -22.215  0.00  0.00    +0.014 C 
ATOM     10  C   UNL     1      32.401 -13.516 -20.059  0.00  0.00    +0.018 C 
ATOM     11  C   UNL     1      30.758 -11.157 -19.939  0.00  0.00    +0.135 C 
ATOM     12  C   UNL     1      34.034 -14.898 -21.176  0.00  0.00    +0.042 C 
ATOM     13  C   UNL     1      33.190 -14.668 -20.097  0.00  0.00    +0.010 C 
ENDROOT
BRANCH  12  14
ATOM     14  C   UNL     1      34.843 -16.075 -21.217  0.00  0.00    -0.064 C 
ATOM     15  C   UNL     1      35.521 -17.070 -21.252  0.00  0.00    -0.082 C 
BRANCH  15  16
ATOM     16  C   UNL     1      36.345 -18.283 -21.295  0.00  0.00    +0.103 C 
BRANCH  16  17
ATOM     17  C   UNL     1      35.693 -19.432 -20.569  0.00  0.00    -0.009 C 
ATOM     18  C   UNL     1      36.475 -20.297 -19.818  0.00  0.00    -0.003 C 
ATOM     19  C   UNL     1      34.320 -19.607 -20.663  0.00  0.00    -0.003 C 
ATOM     20  C   UNL     1      35.872 -21.359 -19.145  0.00  0.00    -0.000 C 
ATOM     21  C   UNL     1      33.717 -20.670 -19.992  0.00  0.00    -0.000 C 
ATOM     22  C   UNL     1      34.492 -21.546 -19.233  0.00  0.00    -0.000 C 
ENDBRANCH  16  17
ENDBRANCH  15  16
ENDBRANCH  12  14
BRANCH   3  23
ATOM     23  C   UNL     1      32.615  -9.759 -24.275  0.00  0.00    +0.140 C 
BRANCH  23  24
ATOM     24  C   UNL     1      32.491  -8.344 -23.775  0.00  0.00    +0.001 C 
ATOM     25  C   UNL     1      31.437  -7.554 -24.216  0.00  0.00    -0.002 C 
ATOM     26  C   UNL     1      33.430  -7.850 -22.881  0.00  0.00    -0.002 C 
ATOM     27  C   UNL     1      31.322  -6.244 -23.753  0.00  0.00    +0.006 C 
ATOM     28  C   UNL     1      33.314  -6.539 -22.418  0.00  0.00    +0.006 C 
ATOM     29  C   UNL     1      32.260  -5.736 -22.854  0.00  0.00    +0.075 C 
BRANCH  29  31
ATOM     30  O   UNL     1      32.059  -3.363 -23.083  0.00  0.00    -0.245 OA
ATOM     31  C   UNL     1      32.139  -4.369 -22.371  0.00  0.00    +0.338 C 
BRANCH  31  32
ATOM     32  O   UNL     1      32.123  -4.297 -21.012  0.00  0.00    -0.477 OA
ATOM     33  H   UNL     1      31.401  -3.893 -20.573  0.00  0.00    +0.295 HD
ENDBRANCH  31  32
ENDBRANCH  29  31
ENDBRANCH  23  24
ENDBRANCH   3  23
TORSDOF 7
ENDMDL
MODEL 5
REMARK VINA RESULT:     -11.6      5.017      9.143
REMARK  Name = 10224181
REMARK  7 active torsions:
REMARK  status: ('A' for Active; 'I' for Inactive)
REMARK    1  A    between atoms: N_3  and  C_23
REMARK    2  A    between atoms: C_12  and  C_14
REMARK    3  A    between atoms: C_15  and  C_16
REMARK    4  A    between atoms: C_16  and  C_17
REMARK    5  A    between atoms: C_23  and  C_24
REMARK    6  A    between atoms: C_29  and  C_31
REMARK    7  A    between atoms: C_31  and  O_32
REMARK                            x       y       z     vdW  Elec       q    Type
REMARK                         _______ _______ _______ _____ _____    ______ ____
ROOT
ATOM      1  O   UNL     1      35.610 -15.885 -20.601  0.00  0.00    -0.267 OA
ATOM      2  O   UNL     1      35.590 -19.753 -23.178  0.00  0.00    -0.246 OA
ATOM      3  N   UNL     1      35.616 -17.841 -21.873  0.00  0.00    -0.244 N 
ATOM      4  N   UNL     1      34.530 -17.865 -23.999  0.00  0.00    -0.279 N 
ATOM      5  C   UNL     1      34.158 -16.498 -23.828  0.00  0.00    +0.069 A 
ATOM      6  C   UNL     1      34.525 -15.816 -22.667  0.00  0.00    +0.073 A 
ATOM      7  C   UNL     1      35.296 -16.502 -21.617  0.00  0.00    +0.266 A 
ATOM      8  C   UNL     1      35.266 -18.569 -23.033  0.00  0.00    +0.334 A 
ATOM      9  C   UNL     1      34.169 -14.471 -22.480  0.00  0.00    +0.014 C 
ATOM     10  C   UNL     1      33.422 -15.799 -24.802  0.00  0.00    +0.018 C 
ATOM     11  C   UNL     1      34.132 -18.555 -25.225  0.00  0.00    +0.135 C 
ATOM     12  C   UNL     1      33.439 -13.797 -23.455  0.00  0.00    +0.042 C 
ATOM     13  C   UNL     1      33.067 -14.461 -24.616  0.00  0.00    +0.010 C 
ENDROOT
BRANCH  12  14
ATOM     14  C   UNL     1      33.078 -12.428 -23.263  0.00  0.00    -0.064 C 
ATOM     15  C   UNL     1      32.772 -11.274 -23.097  0.00  0.00    -0.082 C 
BRANCH  15  16
ATOM     16  C   UNL     1      32.397  -9.871 -22.893  0.00  0.00    +0.103 C 
BRANCH  16  17
ATOM     17  C   UNL     1      32.081  -9.577 -21.448  0.00  0.00    -0.009 C 
ATOM     18  C   UNL     1      31.418 -10.528 -20.687  0.00  0.00    -0.003 C 
ATOM     19  C   UNL     1      32.461  -8.359 -20.902  0.00  0.00    -0.003 C 
ATOM     20  C   UNL     1      31.127 -10.256 -19.351  0.00  0.00    -0.000 C 
ATOM     21  C   UNL     1      32.169  -8.087 -19.566  0.00  0.00    -0.000 C 
ATOM     22  C   UNL     1      31.502  -9.035 -18.790  0.00  0.00    -0.000 C 
ENDBRANCH  16  17
ENDBRANCH  15  16
ENDBRANCH  12  14
BRANCH   3  23
ATOM     23  C   UNL     1      36.382 -18.549 -20.850  0.00  0.00    +0.140 C 
BRANCH  23  24
ATOM     24  C   UNL     1      35.588 -19.666 -20.228  0.00  0.00    +0.001 C 
ATOM     25  C   UNL     1      34.205 -19.668 -20.343  0.00  0.00    -0.002 C 
ATOM     26  C   UNL     1      36.250 -20.680 -19.550  0.00  0.00    -0.002 C 
ATOM     27  C   UNL     1      33.469 -20.704 -19.767  0.00  0.00    +0.006 C 
ATOM     28  C   UNL     1      35.515 -21.716 -18.974  0.00  0.00    +0.006 C 
ATOM     29  C   UNL     1      34.124 -21.728 -19.082  0.00  0.00    +0.075 C 
BRANCH  29  31
ATOM     30  O   UNL     1      33.659 -24.006 -18.518  0.00  0.00    -0.245 OA
ATOM     31  C   UNL     1      33.357 -22.808 -18.482  0.00  0.00    +0.338 C 
BRANCH  31  32
ATOM     32  O   UNL     1      32.235 -22.364 -17.853  0.00  0.00    -0.477 OA
ATOM     33  H   UNL     1      31.409 -22.770 -18.028  0.00  0.00    +0.295 HD
ENDBRANCH  31  32
ENDBRANCH  29  31
ENDBRANCH  23  24
ENDBRANCH   3  23
TORSDOF 7
ENDMDL
MODEL 6
REMARK VINA RESULT:     -11.4      9.291     14.207
REMARK  Name = 10224181
REMARK  7 active torsions:
REMARK  status: ('A' for Active; 'I' for Inactive)
REMARK    1  A    between atoms: N_3  and  C_23
REMARK    2  A    between atoms: C_12  and  C_14
REMARK    3  A    between atoms: C_15  and  C_16
REMARK    4  A    between atoms: C_16  and  C_17
REMARK    5  A    between atoms: C_23  and  C_24
REMARK    6  A    between atoms: C_29  and  C_31
REMARK    7  A    between atoms: C_31  and  O_32
REMARK                            x       y       z     vdW  Elec       q    Type
REMARK                         _______ _______ _______ _____ _____    ______ ____
ROOT
ATOM      1  O   UNL     1      32.451 -10.557 -24.107  0.00  0.00    -0.267 OA
ATOM      2  O   UNL     1      30.948 -10.708 -19.711  0.00  0.00    -0.246 OA
ATOM      3  N   UNL     1      31.685 -10.661 -21.905  0.00  0.00    -0.244 N 
ATOM      4  N   UNL     1      32.071  -8.816 -20.438  0.00  0.00    -0.279 N 
ATOM      5  C   UNL     1      32.739  -8.117 -21.487  0.00  0.00    +0.069 A 
ATOM      6  C   UNL     1      32.872  -8.709 -22.744  0.00  0.00    +0.073 A 
ATOM      7  C   UNL     1      32.324 -10.053 -22.993  0.00  0.00    +0.266 A 
ATOM      8  C   UNL     1      31.528 -10.099 -20.617  0.00  0.00    +0.334 A 
ATOM      9  C   UNL     1      33.525  -8.037 -23.790  0.00  0.00    +0.014 C 
ATOM     10  C   UNL     1      33.279  -6.832 -21.299  0.00  0.00    +0.018 C 
ATOM     11  C   UNL     1      31.946  -8.174 -19.130  0.00  0.00    +0.135 C 
ATOM     12  C   UNL     1      34.053  -6.765 -23.584  0.00  0.00    +0.042 C 
ATOM     13  C   UNL     1      33.929  -6.163 -22.339  0.00  0.00    +0.010 C 
ENDROOT
BRANCH  12  14
ATOM     14  C   UNL     1      34.718  -6.083 -24.649  0.00  0.00    -0.064 C 
ATOM     15  C   UNL     1      35.275  -5.507 -25.549  0.00  0.00    -0.082 C 
BRANCH  15  16
ATOM     16  C   UNL     1      35.950  -4.804 -26.646  0.00  0.00    +0.103 C 
BRANCH  16  17
ATOM     17  C   UNL     1      36.195  -5.708 -27.827  0.00  0.00    -0.009 C 
ATOM     18  C   UNL     1      37.497  -6.035 -28.177  0.00  0.00    -0.003 C 
ATOM     19  C   UNL     1      35.115  -6.199 -28.545  0.00  0.00    -0.003 C 
ATOM     20  C   UNL     1      37.724  -6.871 -29.270  0.00  0.00    -0.000 C 
ATOM     21  C   UNL     1      35.342  -7.035 -29.638  0.00  0.00    -0.000 C 
ATOM     22  C   UNL     1      36.645  -7.372 -30.000  0.00  0.00    -0.000 C 
ENDBRANCH  16  17
ENDBRANCH  15  16
ENDBRANCH  12  14
BRANCH   3  23
ATOM     23  C   UNL     1      31.130 -11.994 -22.120  0.00  0.00    +0.140 C 
BRANCH  23  24
ATOM     24  C   UNL     1      32.179 -13.066 -21.991  0.00  0.00    +0.001 C 
ATOM     25  C   UNL     1      32.818 -13.538 -23.130  0.00  0.00    -0.002 C 
ATOM     26  C   UNL     1      32.494 -13.567 -20.735  0.00  0.00    -0.002 C 
ATOM     27  C   UNL     1      33.790 -14.530 -23.010  0.00  0.00    +0.006 C 
ATOM     28  C   UNL     1      33.466 -14.560 -20.615  0.00  0.00    +0.006 C 
ATOM     29  C   UNL     1      34.114 -15.042 -21.753  0.00  0.00    +0.075 C 
BRANCH  29  31
ATOM     30  O   UNL     1      35.319 -16.774 -20.626  0.00  0.00    -0.245 OA
ATOM     31  C   UNL     1      35.129 -16.077 -21.628  0.00  0.00    +0.338 C 
BRANCH  31  32
ATOM     32  O   UNL     1      35.877 -16.212 -22.756  0.00  0.00    -0.477 OA
ATOM     33  H   UNL     1      36.755 -16.534 -22.700  0.00  0.00    +0.295 HD
ENDBRANCH  31  32
ENDBRANCH  29  31
ENDBRANCH  23  24
ENDBRANCH   3  23
TORSDOF 7
ENDMDL
MODEL 7
REMARK VINA RESULT:     -11.4      3.038      6.611
REMARK  Name = 10224181
REMARK  7 active torsions:
REMARK  status: ('A' for Active; 'I' for Inactive)
REMARK    1  A    between atoms: N_3  and  C_23
REMARK    2  A    between atoms: C_12  and  C_14
REMARK    3  A    between atoms: C_15  and  C_16
REMARK    4  A    between atoms: C_16  and  C_17
REMARK    5  A    between atoms: C_23  and  C_24
REMARK    6  A    between atoms: C_29  and  C_31
REMARK    7  A    between atoms: C_31  and  O_32
REMARK                            x       y       z     vdW  Elec       q    Type
REMARK                         _______ _______ _______ _____ _____    ______ ____
ROOT
ATOM      1  O   UNL     1      35.964 -22.648 -14.475  0.00  0.00    -0.267 OA
ATOM      2  O   UNL     1      33.378 -25.259 -11.630  0.00  0.00    -0.246 OA
ATOM      3  N   UNL     1      34.689 -23.960 -13.027  0.00  0.00    -0.244 N 
ATOM      4  N   UNL     1      32.459 -24.556 -13.637  0.00  0.00    -0.279 N 
ATOM      5  C   UNL     1      32.598 -23.839 -14.862  0.00  0.00    +0.069 A 
ATOM      6  C   UNL     1      33.796 -23.184 -15.154  0.00  0.00    +0.073 A 
ATOM      7  C   UNL     1      34.918 -23.232 -14.201  0.00  0.00    +0.266 A 
ATOM      8  C   UNL     1      33.494 -24.637 -12.692  0.00  0.00    +0.334 A 
ATOM      9  C   UNL     1      33.953 -22.472 -16.354  0.00  0.00    +0.014 C 
ATOM     10  C   UNL     1      31.556 -23.764 -15.804  0.00  0.00    +0.018 C 
ATOM     11  C   UNL     1      31.193 -25.233 -13.357  0.00  0.00    +0.135 C 
ATOM     12  C   UNL     1      32.910 -22.409 -17.273  0.00  0.00    +0.042 C 
ATOM     13  C   UNL     1      31.712 -23.056 -16.998  0.00  0.00    +0.010 C 
ENDROOT
BRANCH  12  14
ATOM     14  C   UNL     1      33.071 -21.685 -18.494  0.00  0.00    -0.064 C 
ATOM     15  C   UNL     1      33.209 -21.071 -19.521  0.00  0.00    -0.082 C 
BRANCH  15  16
ATOM     16  C   UNL     1      33.378 -20.320 -20.771  0.00  0.00    +0.103 C 
BRANCH  16  17
ATOM     17  C   UNL     1      34.776 -19.777 -20.918  0.00  0.00    -0.009 C 
ATOM     18  C   UNL     1      35.772 -20.215 -20.057  0.00  0.00    -0.003 C 
ATOM     19  C   UNL     1      35.046 -18.849 -21.912  0.00  0.00    -0.003 C 
ATOM     20  C   UNL     1      37.066 -19.713 -20.194  0.00  0.00    -0.000 C 
ATOM     21  C   UNL     1      36.340 -18.346 -22.048  0.00  0.00    -0.000 C 
ATOM     22  C   UNL     1      37.350 -18.778 -21.190  0.00  0.00    -0.000 C 
ENDBRANCH  16  17
ENDBRANCH  15  16
ENDBRANCH  12  14
BRANCH   3  23
ATOM     23  C   UNL     1      35.783 -24.026 -12.062  0.00  0.00    +0.140 C 
BRANCH  23  24
ATOM     24  C   UNL     1      37.022 -24.636 -12.660  0.00  0.00    +0.001 C 
ATOM     25  C   UNL     1      36.908 -25.752 -13.478  0.00  0.00    -0.002 C 
ATOM     26  C   UNL     1      38.261 -24.074 -12.388  0.00  0.00    -0.002 C 
ATOM     27  C   UNL     1      38.056 -26.317 -14.033  0.00  0.00    +0.006 C 
ATOM     28  C   UNL     1      39.410 -24.639 -12.943  0.00  0.00    +0.006 C 
ATOM     29  C   UNL     1      39.307 -25.761 -13.765  0.00  0.00    +0.075 C 
BRANCH  29  31
ATOM     30  O   UNL     1      41.353 -27.001 -13.726  0.00  0.00    -0.245 OA
ATOM     31  C   UNL     1      40.505 -26.350 -14.345  0.00  0.00    +0.338 C 
BRANCH  31  32
ATOM     32  O   UNL     1      40.610 -26.109 -15.680  0.00  0.00    -0.477 OA
ATOM     33  H   UNL     1      39.967 -26.452 -16.269  0.00  0.00    +0.295 HD
ENDBRANCH  31  32
ENDBRANCH  29  31
ENDBRANCH  23  24
ENDBRANCH   3  23
TORSDOF 7
ENDMDL
MODEL 8
REMARK VINA RESULT:     -11.1      4.698      9.918
REMARK  Name = 10224181
REMARK  7 active torsions:
REMARK  status: ('A' for Active; 'I' for Inactive)
REMARK    1  A    between atoms: N_3  and  C_23
REMARK    2  A    between atoms: C_12  and  C_14
REMARK    3  A    between atoms: C_15  and  C_16
REMARK    4  A    between atoms: C_16  and  C_17
REMARK    5  A    between atoms: C_23  and  C_24
REMARK    6  A    between atoms: C_29  and  C_31
REMARK    7  A    between atoms: C_31  and  O_32
REMARK                            x       y       z     vdW  Elec       q    Type
REMARK                         _______ _______ _______ _____ _____    ______ ____
ROOT
ATOM      1  O   UNL     1      37.660 -19.470 -19.974  0.00  0.00    -0.267 OA
ATOM      2  O   UNL     1      33.705 -19.155 -22.395  0.00  0.00    -0.246 OA
ATOM      3  N   UNL     1      35.688 -19.293 -21.208  0.00  0.00    -0.244 N 
ATOM      4  N   UNL     1      33.762 -20.530 -20.530  0.00  0.00    -0.279 N 
ATOM      5  C   UNL     1      34.493 -21.073 -19.433  0.00  0.00    +0.069 A 
ATOM      6  C   UNL     1      35.827 -20.714 -19.238  0.00  0.00    +0.073 A 
ATOM      7  C   UNL     1      36.484 -19.774 -20.162  0.00  0.00    +0.266 A 
ATOM      8  C   UNL     1      34.336 -19.629 -21.442  0.00  0.00    +0.334 A 
ATOM      9  C   UNL     1      36.564 -21.238 -18.163  0.00  0.00    +0.014 C 
ATOM     10  C   UNL     1      33.910 -21.974 -18.523  0.00  0.00    +0.018 C 
ATOM     11  C   UNL     1      32.365 -20.924 -20.712  0.00  0.00    +0.135 C 
ATOM     12  C   UNL     1      35.969 -22.129 -17.274  0.00  0.00    +0.042 C 
ATOM     13  C   UNL     1      34.642 -22.496 -17.454  0.00  0.00    +0.010 C 
ENDROOT
BRANCH  12  14
ATOM     14  C   UNL     1      36.720 -22.661 -16.181  0.00  0.00    -0.064 C 
ATOM     15  C   UNL     1      37.351 -23.112 -15.260  0.00  0.00    -0.082 C 
BRANCH  15  16
ATOM     16  C   UNL     1      38.117 -23.664 -14.136  0.00  0.00    +0.103 C 
BRANCH  16  17
ATOM     17  C   UNL     1      37.261 -23.852 -12.910  0.00  0.00    -0.009 C 
ATOM     18  C   UNL     1      37.687 -23.335 -11.695  0.00  0.00    -0.003 C 
ATOM     19  C   UNL     1      36.061 -24.539 -13.014  0.00  0.00    -0.003 C 
ATOM     20  C   UNL     1      36.895 -23.507 -10.560  0.00  0.00    -0.000 C 
ATOM     21  C   UNL     1      35.269 -24.713 -11.879  0.00  0.00    -0.000 C 
ATOM     22  C   UNL     1      35.685 -24.197 -10.653  0.00  0.00    -0.000 C 
ENDBRANCH  16  17
ENDBRANCH  15  16
ENDBRANCH  12  14
BRANCH   3  23
ATOM     23  C   UNL     1      36.311 -18.357 -22.141  0.00  0.00    +0.140 C 
BRANCH  23  24
ATOM     24  C   UNL     1      35.603 -17.030 -22.162  0.00  0.00    +0.001 C 
ATOM     25  C   UNL     1      35.289 -16.442 -23.380  0.00  0.00    -0.002 C 
ATOM     26  C   UNL     1      35.272 -16.412 -20.964  0.00  0.00    -0.002 C 
ATOM     27  C   UNL     1      34.632 -15.212 -23.400  0.00  0.00    +0.006 C 
ATOM     28  C   UNL     1      34.615 -15.182 -20.984  0.00  0.00    +0.006 C 
ATOM     29  C   UNL     1      34.295 -14.582 -22.202  0.00  0.00    +0.075 C 
BRANCH  29  31
ATOM     30  O   UNL     1      32.547 -13.046 -21.644  0.00  0.00    -0.245 OA
ATOM     31  C   UNL     1      33.609 -13.299 -22.222  0.00  0.00    +0.338 C 
BRANCH  31  32
ATOM     32  O   UNL     1      34.268 -12.368 -22.965  0.00  0.00    -0.477 OA
ATOM     33  H   UNL     1      34.365 -11.494 -22.641  0.00  0.00    +0.295 HD
ENDBRANCH  31  32
ENDBRANCH  29  31
ENDBRANCH  23  24
ENDBRANCH   3  23
TORSDOF 7
ENDMDL
MODEL 9
REMARK VINA RESULT:     -11.1      5.298      9.434
REMARK  Name = 10224181
REMARK  7 active torsions:
REMARK  status: ('A' for Active; 'I' for Inactive)
REMARK    1  A    between atoms: N_3  and  C_23
REMARK    2  A    between atoms: C_12  and  C_14
REMARK    3  A    between atoms: C_15  and  C_16
REMARK    4  A    between atoms: C_16  and  C_17
REMARK    5  A    between atoms: C_23  and  C_24
REMARK    6  A    between atoms: C_29  and  C_31
REMARK    7  A    between atoms: C_31  and  O_32
REMARK                            x       y       z     vdW  Elec       q    Type
REMARK                         _______ _______ _______ _____ _____    ______ ____
ROOT
ATOM      1  O   UNL     1      35.557 -15.698 -20.458  0.00  0.00    -0.267 OA
ATOM      2  O   UNL     1      35.674 -19.357 -23.322  0.00  0.00    -0.246 OA
ATOM      3  N   UNL     1      35.632 -17.550 -21.875  0.00  0.00    -0.244 N 
ATOM      4  N   UNL     1      34.564 -17.443 -24.008  0.00  0.00    -0.279 N 
ATOM      5  C   UNL     1      34.150 -16.105 -23.738  0.00  0.00    +0.069 A 
ATOM      6  C   UNL     1      34.487 -15.503 -22.524  0.00  0.00    +0.073 A 
ATOM      7  C   UNL     1      35.270 -16.245 -21.521  0.00  0.00    +0.266 A 
ATOM      8  C   UNL     1      35.313 -18.197 -23.091  0.00  0.00    +0.334 A 
ATOM      9  C   UNL     1      34.089 -14.187 -22.238  0.00  0.00    +0.014 C 
ATOM     10  C   UNL     1      33.401 -15.355 -24.663  0.00  0.00    +0.018 C 
ATOM     11  C   UNL     1      34.196 -18.049 -25.288  0.00  0.00    +0.135 C 
ATOM     12  C   UNL     1      33.348 -13.462 -23.167  0.00  0.00    +0.042 C 
ATOM     13  C   UNL     1      33.005 -14.046 -24.379  0.00  0.00    +0.010 C 
ENDROOT
BRANCH  12  14
ATOM     14  C   UNL     1      32.944 -12.123 -22.875  0.00  0.00    -0.064 C 
ATOM     15  C   UNL     1      32.608 -10.993 -22.628  0.00  0.00    -0.082 C 
BRANCH  15  16
ATOM     16  C   UNL     1      32.201  -9.616 -22.327  0.00  0.00    +0.103 C 
BRANCH  16  17
ATOM     17  C   UNL     1      33.184  -8.607 -22.864  0.00  0.00    -0.009 C 
ATOM     18  C   UNL     1      34.494  -8.993 -23.106  0.00  0.00    -0.003 C 
ATOM     19  C   UNL     1      32.763  -7.309 -23.110  0.00  0.00    -0.003 C 
ATOM     20  C   UNL     1      35.403  -8.061 -23.604  0.00  0.00    -0.000 C 
ATOM     21  C   UNL     1      33.672  -6.376 -23.608  0.00  0.00    -0.000 C 
ATOM     22  C   UNL     1      34.992  -6.751 -23.855  0.00  0.00    -0.000 C 
ENDBRANCH  16  17
ENDBRANCH  15  16
ENDBRANCH  12  14
BRANCH   3  23
ATOM     23  C   UNL     1      36.410 -18.312 -20.902  0.00  0.00    +0.140 C 
BRANCH  23  24
ATOM     24  C   UNL     1      35.618 -19.451 -20.318  0.00  0.00    +0.001 C 
ATOM     25  C   UNL     1      34.234 -19.444 -20.421  0.00  0.00    -0.002 C 
ATOM     26  C   UNL     1      36.283 -20.493 -19.687  0.00  0.00    -0.002 C 
ATOM     27  C   UNL     1      33.500 -20.500 -19.881  0.00  0.00    +0.006 C 
ATOM     28  C   UNL     1      35.549 -21.549 -19.147  0.00  0.00    +0.006 C 
ATOM     29  C   UNL     1      34.157 -21.553 -19.243  0.00  0.00    +0.075 C 
BRANCH  29  31
ATOM     30  O   UNL     1      32.430 -22.539 -17.914  0.00  0.00    -0.245 OA
ATOM     31  C   UNL     1      33.392 -22.654 -18.680  0.00  0.00    +0.338 C 
BRANCH  31  32
ATOM     32  O   UNL     1      33.851 -23.869 -19.088  0.00  0.00    -0.477 OA
ATOM     33  H   UNL     1      34.579 -23.921 -19.676  0.00  0.00    +0.295 HD
ENDBRANCH  31  32
ENDBRANCH  29  31
ENDBRANCH  23  24
ENDBRANCH   3  23
TORSDOF 7
ENDMDL
