MODEL 1
REMARK VINA RESULT:     -10.5      0.000      0.000
REMARK  Name = 2361
REMARK  1 active torsions:
REMARK  status: ('A' for Active; 'I' for Inactive)
REMARK    1  A    between atoms: C_8  and  C_16
REMARK                            x       y       z     vdW  Elec       q    Type
REMARK                         _______ _______ _______ _____ _____    ______ ____
ROOT
ATOM      1  O   UNL     1      36.197 -20.915 -18.658  0.00  0.00    -0.453 OA
ATOM      2  O   UNL     1      32.689 -22.799 -17.853  0.00  0.00    -0.286 OA
ATOM      3  C   UNL     1      34.937 -22.362 -17.132  0.00  0.00    +0.074 C 
ATOM      4  C   UNL     1      34.925 -23.128 -15.920  0.00  0.00    +0.006 C 
ATOM      5  C   UNL     1      36.095 -21.674 -17.518  0.00  0.00    +0.148 C 
ATOM      6  C   UNL     1      36.118 -23.162 -15.144  0.00  0.00    +0.000 C 
ATOM      7  C   UNL     1      33.763 -22.245 -18.043  0.00  0.00    +0.202 C 
ATOM      8  C   UNL     1      35.096 -20.800 -19.480  0.00  0.00    +0.148 C 
ATOM      9  C   UNL     1      37.247 -21.725 -16.739  0.00  0.00    +0.038 C 
ATOM     10  C   UNL     1      37.256 -22.463 -15.563  0.00  0.00    +0.003 C 
ATOM     11  C   UNL     1      33.824 -23.867 -15.406  0.00  0.00    +0.000 C 
ATOM     12  C   UNL     1      33.926 -21.406 -19.247  0.00  0.00    +0.080 C 
ATOM     13  C   UNL     1      36.176 -23.894 -13.945  0.00  0.00    +0.000 C 
ATOM     14  C   UNL     1      33.899 -24.591 -14.212  0.00  0.00    +0.000 C 
ATOM     15  C   UNL     1      35.075 -24.604 -13.482  0.00  0.00    +0.000 C 
ENDROOT
BRANCH   8  16
ATOM     16  C   UNL     1      35.319 -19.959 -20.673  0.00  0.00    +0.035 C 
ATOM     17  C   UNL     1      36.469 -19.169 -20.772  0.00  0.00    +0.003 C 
ATOM     18  C   UNL     1      34.382 -19.947 -21.709  0.00  0.00    +0.003 C 
ATOM     19  C   UNL     1      36.680 -18.376 -21.898  0.00  0.00    +0.000 C 
ATOM     20  C   UNL     1      34.593 -19.153 -22.837  0.00  0.00    +0.000 C 
ATOM     21  C   UNL     1      35.742 -18.367 -22.930  0.00  0.00    +0.000 C 
ENDBRANCH   8  16
TORSDOF 1
ENDMDL
MODEL 2
REMARK VINA RESULT:     -10.5      1.647      7.125
REMARK  Name = 2361
REMARK  1 active torsions:
REMARK  status: ('A' for Active; 'I' for Inactive)
REMARK    1  A    between atoms: C_8  and  C_16
REMARK                            x       y       z     vdW  Elec       q    Type
REMARK                         _______ _______ _______ _____ _____    ______ ____
ROOT
ATOM      1  O   UNL     1      36.419 -23.225 -15.838  0.00  0.00    -0.453 OA
ATOM      2  O   UNL     1      32.457 -23.157 -16.733  0.00  0.00    -0.286 OA
ATOM      3  C   UNL     1      34.658 -22.415 -17.339  0.00  0.00    +0.074 C 
ATOM      4  C   UNL     1      34.312 -21.640 -18.495  0.00  0.00    +0.006 C 
ATOM      5  C   UNL     1      35.995 -22.506 -16.928  0.00  0.00    +0.148 C 
ATOM      6  C   UNL     1      35.363 -20.977 -19.190  0.00  0.00    +0.000 C 
ATOM      7  C   UNL     1      33.660 -23.152 -16.513  0.00  0.00    +0.202 C 
ATOM      8  C   UNL     1      35.487 -23.920 -15.097  0.00  0.00    +0.148 C 
ATOM      9  C   UNL     1      37.002 -21.848 -17.627  0.00  0.00    +0.038 C 
ATOM     10  C   UNL     1      36.686 -21.091 -18.748  0.00  0.00    +0.003 C 
ATOM     11  C   UNL     1      33.005 -21.465 -19.025  0.00  0.00    +0.000 C 
ATOM     12  C   UNL     1      34.175 -23.919 -15.361  0.00  0.00    +0.080 C 
ATOM     13  C   UNL     1      35.095 -20.201 -20.329  0.00  0.00    +0.000 C 
ATOM     14  C   UNL     1      32.754 -20.688 -20.161  0.00  0.00    +0.000 C 
ATOM     15  C   UNL     1      33.799 -20.056 -20.813  0.00  0.00    +0.000 C 
ENDROOT
BRANCH   8  16
ATOM     16  C   UNL     1      36.054 -24.659 -13.952  0.00  0.00    +0.035 C 
ATOM     17  C   UNL     1      36.988 -25.678 -14.166  0.00  0.00    +0.003 C 
ATOM     18  C   UNL     1      35.662 -24.345 -12.648  0.00  0.00    +0.003 C 
ATOM     19  C   UNL     1      37.524 -26.375 -13.085  0.00  0.00    +0.000 C 
ATOM     20  C   UNL     1      36.198 -25.044 -11.566  0.00  0.00    +0.000 C 
ATOM     21  C   UNL     1      37.130 -26.060 -11.785  0.00  0.00    +0.000 C 
ENDBRANCH   8  16
TORSDOF 1
ENDMDL
MODEL 3
REMARK VINA RESULT:     -10.2      9.113     13.387
REMARK  Name = 2361
REMARK  1 active torsions:
REMARK  status: ('A' for Active; 'I' for Inactive)
REMARK    1  A    between atoms: C_8  and  C_16
REMARK                            x       y       z     vdW  Elec       q    Type
REMARK                         _______ _______ _______ _____ _____    ______ ____
ROOT
ATOM      1  O   UNL     1      34.224 -11.455 -23.563  0.00  0.00    -0.453 OA
ATOM      2  O   UNL     1      30.815 -10.582 -21.534  0.00  0.00    -0.286 OA
ATOM      3  C   UNL     1      32.801  -9.722 -22.572  0.00  0.00    +0.074 C 
ATOM      4  C   UNL     1      32.596  -8.328 -22.303  0.00  0.00    +0.006 C 
ATOM      5  C   UNL     1      33.946 -10.145 -23.259  0.00  0.00    +0.148 C 
ATOM      6  C   UNL     1      33.590  -7.412 -22.750  0.00  0.00    +0.000 C 
ATOM      7  C   UNL     1      31.848 -10.789 -22.154  0.00  0.00    +0.202 C 
ATOM      8  C   UNL     1      33.322 -12.428 -23.188  0.00  0.00    +0.148 C 
ATOM      9  C   UNL     1      34.901  -9.227 -23.686  0.00  0.00    +0.038 C 
ATOM     10  C   UNL     1      34.722  -7.873 -23.433  0.00  0.00    +0.003 C 
ATOM     11  C   UNL     1      31.484  -7.760 -21.624  0.00  0.00    +0.000 C 
ATOM     12  C   UNL     1      32.191 -12.178 -22.518  0.00  0.00    +0.080 C 
ATOM     13  C   UNL     1      33.454  -6.033 -22.520  0.00  0.00    +0.000 C 
ATOM     14  C   UNL     1      31.363  -6.385 -21.401  0.00  0.00    +0.000 C 
ATOM     15  C   UNL     1      32.348  -5.521 -21.849  0.00  0.00    +0.000 C 
ENDROOT
BRANCH   8  16
ATOM     16  C   UNL     1      33.721 -13.798 -23.569  0.00  0.00    +0.035 C 
ATOM     17  C   UNL     1      33.211 -14.381 -24.733  0.00  0.00    +0.003 C 
ATOM     18  C   UNL     1      34.608 -14.521 -22.766  0.00  0.00    +0.003 C 
ATOM     19  C   UNL     1      33.587 -15.674 -25.093  0.00  0.00    +0.000 C 
ATOM     20  C   UNL     1      34.984 -15.815 -23.126  0.00  0.00    +0.000 C 
ATOM     21  C   UNL     1      34.473 -16.392 -24.289  0.00  0.00    +0.000 C 
ENDBRANCH   8  16
TORSDOF 1
ENDMDL
MODEL 4
REMARK VINA RESULT:     -10.2      4.013      9.149
REMARK  Name = 2361
REMARK  1 active torsions:
REMARK  status: ('A' for Active; 'I' for Inactive)
REMARK    1  A    between atoms: C_8  and  C_16
REMARK                            x       y       z     vdW  Elec       q    Type
REMARK                         _______ _______ _______ _____ _____    ______ ____
ROOT
ATOM      1  O   UNL     1      35.030 -17.204 -20.561  0.00  0.00    -0.453 OA
ATOM      2  O   UNL     1      34.535 -17.216 -24.593  0.00  0.00    -0.286 OA
ATOM      3  C   UNL     1      34.540 -15.905 -22.582  0.00  0.00    +0.074 C 
ATOM      4  C   UNL     1      34.228 -14.630 -23.157  0.00  0.00    +0.006 C 
ATOM      5  C   UNL     1      34.726 -16.027 -21.198  0.00  0.00    +0.148 C 
ATOM      6  C   UNL     1      34.112 -13.515 -22.279  0.00  0.00    +0.000 C 
ATOM      7  C   UNL     1      34.683 -17.156 -23.381  0.00  0.00    +0.202 C 
ATOM      8  C   UNL     1      35.179 -18.348 -21.316  0.00  0.00    +0.148 C 
ATOM      9  C   UNL     1      34.607 -14.920 -20.364  0.00  0.00    +0.038 C 
ATOM     10  C   UNL     1      34.303 -13.676 -20.902  0.00  0.00    +0.003 C 
ATOM     11  C   UNL     1      34.019 -14.362 -24.538  0.00  0.00    +0.000 C 
ATOM     12  C   UNL     1      35.023 -18.390 -22.645  0.00  0.00    +0.080 C 
ATOM     13  C   UNL     1      33.807 -12.237 -22.775  0.00  0.00    +0.000 C 
ATOM     14  C   UNL     1      33.716 -13.083 -25.016  0.00  0.00    +0.000 C 
ATOM     15  C   UNL     1      33.609 -12.021 -24.135  0.00  0.00    +0.000 C 
ENDROOT
BRANCH   8  16
ATOM     16  C   UNL     1      35.508 -19.553 -20.528  0.00  0.00    +0.035 C 
ATOM     17  C   UNL     1      34.500 -20.450 -20.161  0.00  0.00    +0.003 C 
ATOM     18  C   UNL     1      36.828 -19.804 -20.144  0.00  0.00    +0.003 C 
ATOM     19  C   UNL     1      34.810 -21.587 -19.418  0.00  0.00    +0.000 C 
ATOM     20  C   UNL     1      37.139 -20.942 -19.400  0.00  0.00    +0.000 C 
ATOM     21  C   UNL     1      36.129 -21.834 -19.036  0.00  0.00    +0.000 C 
ENDBRANCH   8  16
TORSDOF 1
ENDMDL
MODEL 5
REMARK VINA RESULT:     -10.2      6.499      9.741
REMARK  Name = 2361
REMARK  1 active torsions:
REMARK  status: ('A' for Active; 'I' for Inactive)
REMARK    1  A    between atoms: C_8  and  C_16
REMARK                            x       y       z     vdW  Elec       q    Type
REMARK                         _______ _______ _______ _____ _____    ______ ____
ROOT
ATOM      1  O   UNL     1      33.969 -13.027 -22.083  0.00  0.00    -0.453 OA
ATOM      2  O   UNL     1      33.725 -15.230 -25.488  0.00  0.00    -0.286 OA
ATOM      3  C   UNL     1      34.242 -15.221 -23.144  0.00  0.00    +0.074 C 
ATOM      4  C   UNL     1      34.599 -16.601 -22.998  0.00  0.00    +0.006 C 
ATOM      5  C   UNL     1      34.294 -14.360 -22.039  0.00  0.00    +0.148 C 
ATOM      6  C   UNL     1      35.006 -17.050 -21.710  0.00  0.00    +0.000 C 
ATOM      7  C   UNL     1      33.806 -14.615 -24.434  0.00  0.00    +0.202 C 
ATOM      8  C   UNL     1      33.547 -12.486 -23.280  0.00  0.00    +0.148 C 
ATOM      9  C   UNL     1      34.696 -14.826 -20.791  0.00  0.00    +0.038 C 
ATOM     10  C   UNL     1      35.048 -16.160 -20.630  0.00  0.00    +0.003 C 
ATOM     11  C   UNL     1      34.587 -17.583 -24.026  0.00  0.00    +0.000 C 
ATOM     12  C   UNL     1      33.456 -13.180 -24.420  0.00  0.00    +0.080 C 
ATOM     13  C   UNL     1      35.371 -18.390 -21.497  0.00  0.00    +0.000 C 
ATOM     14  C   UNL     1      34.953 -18.913 -23.798  0.00  0.00    +0.000 C 
ATOM     15  C   UNL     1      35.345 -19.317 -22.533  0.00  0.00    +0.000 C 
ENDROOT
BRANCH   8  16
ATOM     16  C   UNL     1      33.221 -11.048 -23.210  0.00  0.00    +0.035 C 
ATOM     17  C   UNL     1      34.183 -10.091 -23.552  0.00  0.00    +0.003 C 
ATOM     18  C   UNL     1      31.950 -10.634 -22.802  0.00  0.00    +0.003 C 
ATOM     19  C   UNL     1      33.875  -8.733 -23.487  0.00  0.00    +0.000 C 
ATOM     20  C   UNL     1      31.642  -9.275 -22.736  0.00  0.00    +0.000 C 
ATOM     21  C   UNL     1      32.605  -8.324 -23.079  0.00  0.00    +0.000 C 
ENDBRANCH   8  16
TORSDOF 1
ENDMDL
MODEL 6
REMARK VINA RESULT:     -10.1      1.760      7.285
REMARK  Name = 2361
REMARK  1 active torsions:
REMARK  status: ('A' for Active; 'I' for Inactive)
REMARK    1  A    between atoms: C_8  and  C_16
REMARK                            x       y       z     vdW  Elec       q    Type
REMARK                         _______ _______ _______ _____ _____    ______ ____
ROOT
ATOM      1  O   UNL     1      32.432 -22.452 -17.521  0.00  0.00    -0.453 OA
ATOM      2  O   UNL     1      36.478 -22.319 -17.178  0.00  0.00    -0.286 OA
ATOM      3  C   UNL     1      34.550 -21.598 -18.413  0.00  0.00    +0.074 C 
ATOM      4  C   UNL     1      35.217 -20.811 -19.410  0.00  0.00    +0.006 C 
ATOM      5  C   UNL     1      33.155 -21.724 -18.434  0.00  0.00    +0.148 C 
ATOM      6  C   UNL     1      34.417 -20.181 -20.404  0.00  0.00    +0.000 C 
ATOM      7  C   UNL     1      35.263 -22.318 -17.321  0.00  0.00    +0.202 C 
ATOM      8  C   UNL     1      33.104 -23.095 -16.504  0.00  0.00    +0.148 C 
ATOM      9  C   UNL     1      32.397 -21.096 -19.418  0.00  0.00    +0.038 C 
ATOM     10  C   UNL     1      33.025 -20.332 -20.393  0.00  0.00    +0.003 C 
ATOM     11  C   UNL     1      36.618 -20.594 -19.506  0.00  0.00    +0.000 C 
ATOM     12  C   UNL     1      34.435 -23.075 -16.360  0.00  0.00    +0.080 C 
ATOM     13  C   UNL     1      35.004 -19.397 -21.411  0.00  0.00    +0.000 C 
ATOM     14  C   UNL     1      37.188 -19.811 -20.515  0.00  0.00    +0.000 C 
ATOM     15  C   UNL     1      36.381 -19.213 -21.467  0.00  0.00    +0.000 C 
ENDROOT
BRANCH   8  16
ATOM     16  C   UNL     1      32.229 -23.844 -15.581  0.00  0.00    +0.035 C 
ATOM     17  C   UNL     1      30.881 -24.042 -15.896  0.00  0.00    +0.003 C 
ATOM     18  C   UNL     1      32.741 -24.358 -14.387  0.00  0.00    +0.003 C 
ATOM     19  C   UNL     1      30.054 -24.749 -15.024  0.00  0.00    +0.000 C 
ATOM     20  C   UNL     1      31.914 -25.066 -13.515  0.00  0.00    +0.000 C 
ATOM     21  C   UNL     1      30.569 -25.261 -13.834  0.00  0.00    +0.000 C 
ENDBRANCH   8  16
TORSDOF 1
ENDMDL
MODEL 7
REMARK VINA RESULT:     -10.0      1.551      3.545
REMARK  Name = 2361
REMARK  1 active torsions:
REMARK  status: ('A' for Active; 'I' for Inactive)
REMARK    1  A    between atoms: C_8  and  C_16
REMARK                            x       y       z     vdW  Elec       q    Type
REMARK                         _______ _______ _______ _____ _____    ______ ____
ROOT
ATOM      1  O   UNL     1      34.220 -20.043 -20.891  0.00  0.00    -0.453 OA
ATOM      2  O   UNL     1      37.768 -19.767 -18.932  0.00  0.00    -0.286 OA
ATOM      3  C   UNL     1      35.608 -20.811 -19.021  0.00  0.00    +0.074 C 
ATOM      4  C   UNL     1      35.730 -21.655 -17.869  0.00  0.00    +0.006 C 
ATOM      5  C   UNL     1      34.425 -20.814 -19.774  0.00  0.00    +0.148 C 
ATOM      6  C   UNL     1      34.619 -22.476 -17.526  0.00  0.00    +0.000 C 
ATOM      7  C   UNL     1      36.687 -19.895 -19.489  0.00  0.00    +0.202 C 
ATOM      8  C   UNL     1      35.236 -19.217 -21.323  0.00  0.00    +0.148 C 
ATOM      9  C   UNL     1      33.355 -21.628 -19.415  0.00  0.00    +0.038 C 
ATOM     10  C   UNL     1      33.453 -22.451 -18.301  0.00  0.00    +0.003 C 
ATOM     11  C   UNL     1      36.867 -21.757 -17.022  0.00  0.00    +0.000 C 
ATOM     12  C   UNL     1      36.416 -19.099 -20.703  0.00  0.00    +0.080 C 
ATOM     13  C   UNL     1      34.670 -23.327 -16.409  0.00  0.00    +0.000 C 
ATOM     14  C   UNL     1      36.902 -22.608 -15.913  0.00  0.00    +0.000 C 
ATOM     15  C   UNL     1      35.804 -23.393 -15.607  0.00  0.00    +0.000 C 
ENDROOT
BRANCH   8  16
ATOM     16  C   UNL     1      34.906 -18.437 -22.533  0.00  0.00    +0.035 C 
ATOM     17  C   UNL     1      34.257 -19.051 -23.610  0.00  0.00    +0.003 C 
ATOM     18  C   UNL     1      35.242 -17.083 -22.611  0.00  0.00    +0.003 C 
ATOM     19  C   UNL     1      33.946 -18.315 -24.752  0.00  0.00    +0.000 C 
ATOM     20  C   UNL     1      34.930 -16.347 -23.754  0.00  0.00    +0.000 C 
ATOM     21  C   UNL     1      34.282 -16.964 -24.825  0.00  0.00    +0.000 C 
ENDBRANCH   8  16
TORSDOF 1
ENDMDL
MODEL 8
REMARK VINA RESULT:      -9.9      1.597      3.618
REMARK  Name = 2361
REMARK  1 active torsions:
REMARK  status: ('A' for Active; 'I' for Inactive)
REMARK    1  A    between atoms: C_8  and  C_16
REMARK                            x       y       z     vdW  Elec       q    Type
REMARK                         _______ _______ _______ _____ _____    ______ ____
ROOT
ATOM      1  O   UNL     1      34.494 -22.436 -16.571  0.00  0.00    -0.453 OA
ATOM      2  O   UNL     1      38.411 -22.734 -15.538  0.00  0.00    -0.286 OA
ATOM      3  C   UNL     1      36.138 -23.198 -14.920  0.00  0.00    +0.074 C 
ATOM      4  C   UNL     1      36.385 -23.836 -13.660  0.00  0.00    +0.006 C 
ATOM      5  C   UNL     1      34.825 -23.031 -15.379  0.00  0.00    +0.148 C 
ATOM      6  C   UNL     1      35.261 -24.280 -12.908  0.00  0.00    +0.000 C 
ATOM      7  C   UNL     1      37.219 -22.678 -15.805  0.00  0.00    +0.202 C 
ATOM      8  C   UNL     1      35.506 -21.979 -17.389  0.00  0.00    +0.148 C 
ATOM      9  C   UNL     1      33.744 -23.475 -14.623  0.00  0.00    +0.038 C 
ATOM     10  C   UNL     1      33.963 -24.094 -13.399  0.00  0.00    +0.003 C 
ATOM     11  C   UNL     1      37.660 -24.075 -13.077  0.00  0.00    +0.000 C 
ATOM     12  C   UNL     1      36.806 -22.059 -17.081  0.00  0.00    +0.080 C 
ATOM     13  C   UNL     1      35.430 -24.912 -11.665  0.00  0.00    +0.000 C 
ATOM     14  C   UNL     1      37.811 -24.705 -11.838  0.00  0.00    +0.000 C 
ATOM     15  C   UNL     1      36.697 -25.124 -11.132  0.00  0.00    +0.000 C 
ENDROOT
BRANCH   8  16
ATOM     16  C   UNL     1      35.035 -21.360 -18.644  0.00  0.00    +0.035 C 
ATOM     17  C   UNL     1      33.672 -21.348 -18.953  0.00  0.00    +0.003 C 
ATOM     18  C   UNL     1      35.950 -20.785 -19.530  0.00  0.00    +0.003 C 
ATOM     19  C   UNL     1      33.227 -20.764 -20.138  0.00  0.00    +0.000 C 
ATOM     20  C   UNL     1      35.505 -20.200 -20.716  0.00  0.00    +0.000 C 
ATOM     21  C   UNL     1      34.143 -20.191 -21.020  0.00  0.00    +0.000 C 
ENDBRANCH   8  16
TORSDOF 1
ENDMDL
MODEL 9
REMARK VINA RESULT:      -9.7      1.037      2.414
REMARK  Name = 2361
REMARK  1 active torsions:
REMARK  status: ('A' for Active; 'I' for Inactive)
REMARK    1  A    between atoms: C_8  and  C_16
REMARK                            x       y       z     vdW  Elec       q    Type
REMARK                         _______ _______ _______ _____ _____    ______ ____
ROOT
ATOM      1  O   UNL     1      34.263 -21.350 -18.838  0.00  0.00    -0.453 OA
ATOM      2  O   UNL     1      37.444 -22.233 -16.469  0.00  0.00    -0.286 OA
ATOM      3  C   UNL     1      35.082 -22.479 -16.821  0.00  0.00    +0.074 C 
ATOM      4  C   UNL     1      34.776 -23.274 -15.668  0.00  0.00    +0.006 C 
ATOM      5  C   UNL     1      34.064 -22.105 -17.709  0.00  0.00    +0.148 C 
ATOM      6  C   UNL     1      33.419 -23.654 -15.464  0.00  0.00    +0.000 C 
ATOM      7  C   UNL     1      36.456 -22.004 -17.152  0.00  0.00    +0.202 C 
ATOM      8  C   UNL     1      35.543 -20.936 -19.142  0.00  0.00    +0.148 C 
ATOM      9  C   UNL     1      32.746 -22.492 -17.485  0.00  0.00    +0.038 C 
ATOM     10  C   UNL     1      32.429 -23.260 -16.372  0.00  0.00    +0.003 C 
ATOM     11  C   UNL     1      35.705 -23.727 -14.692  0.00  0.00    +0.000 C 
ATOM     12  C   UNL     1      36.613 -21.206 -18.385  0.00  0.00    +0.080 C 
ATOM     13  C   UNL     1      33.048 -24.431 -14.354  0.00  0.00    +0.000 C 
ATOM     14  C   UNL     1      35.320 -24.500 -13.592  0.00  0.00    +0.000 C 
ATOM     15  C   UNL     1      33.992 -24.852 -13.423  0.00  0.00    +0.000 C 
ENDROOT
BRANCH   8  16
ATOM     16  C   UNL     1      35.641 -20.134 -20.378  0.00  0.00    +0.035 C 
ATOM     17  C   UNL     1      36.764 -19.334 -20.610  0.00  0.00    +0.003 C 
ATOM     18  C   UNL     1      34.611 -20.169 -21.321  0.00  0.00    +0.003 C 
ATOM     19  C   UNL     1      36.856 -18.577 -21.777  0.00  0.00    +0.000 C 
ATOM     20  C   UNL     1      34.703 -19.412 -22.489  0.00  0.00    +0.000 C 
ATOM     21  C   UNL     1      35.826 -18.615 -22.716  0.00  0.00    +0.000 C 
ENDBRANCH   8  16
TORSDOF 1
ENDMDL
