MODEL 1
REMARK VINA RESULT:     -11.9      0.000      0.000
REMARK  Name = 15984937
REMARK  6 active torsions:
REMARK  status: ('A' for Active; 'I' for Inactive)
REMARK    1  A    between atoms: C_1  and  C_9
REMARK    2  A    between atoms: C_1  and  C_20
REMARK    3  A    between atoms: C_4  and  N_10
REMARK    4  A    between atoms: N_10  and  C_13
REMARK    5  A    between atoms: C_19  and  C_25
REMARK    6  A    between atoms: C_25  and  N_26
REMARK                            x       y       z     vdW  Elec       q    Type
REMARK                         _______ _______ _______ _____ _____    ______ ____
ROOT
ATOM      1  C   UNL     1      35.349 -17.522 -22.236  0.00  0.00    +0.112 C 
ENDROOT
BRANCH   1   9
ATOM      2  O   UNL     1      35.061 -16.294 -20.230  0.00  0.00    -0.275 OA
ATOM      3  N   UNL     1      34.778 -15.118 -22.214  0.00  0.00    -0.279 N 
ATOM      4  C   UNL     1      33.032 -13.185 -23.508  0.00  0.00    +0.072 C 
ATOM      5  C   UNL     1      33.417 -14.509 -24.176  0.00  0.00    +0.041 C 
ATOM      6  C   UNL     1      33.164 -13.267 -21.983  0.00  0.00    +0.041 C 
ATOM      7  C   UNL     1      34.760 -15.048 -23.679  0.00  0.00    +0.095 C 
ATOM      8  C   UNL     1      34.506 -13.849 -21.537  0.00  0.00    +0.095 C 
ATOM      9  C   UNL     1      35.052 -16.262 -21.463  0.00  0.00    +0.230 C 
BRANCH   4  10
ATOM     10  N   UNL     1      33.854 -12.111 -24.029  0.00  0.00    -0.334 N 
ATOM     11  H   UNL     1      34.576 -12.340 -24.659  0.00  0.00    +0.147 HD
BRANCH  10  13
ATOM     12  F   UNL     1      35.659  -7.731 -23.267  0.00  0.00    -0.204 F 
ATOM     13  C   UNL     1      33.681 -10.782 -23.688  0.00  0.00    +0.047 C 
ATOM     14  C   UNL     1      34.777  -9.896 -23.645  0.00  0.00    +0.044 C 
ATOM     15  C   UNL     1      32.406 -10.273 -23.373  0.00  0.00    +0.014 C 
ATOM     16  C   UNL     1      34.604  -8.556 -23.300  0.00  0.00    +0.141 C 
ATOM     17  C   UNL     1      32.233  -8.933 -23.027  0.00  0.00    +0.004 C 
ATOM     18  C   UNL     1      33.332  -8.075 -22.991  0.00  0.00    +0.030 C 
ENDBRANCH  10  13
ENDBRANCH   4  10
ENDBRANCH   1   9
BRANCH   1  20
ATOM     19  C   UNL     1      35.998 -20.807 -19.569  0.00  0.00    -0.043 C 
ATOM     20  C   UNL     1      35.576 -18.670 -21.303  0.00  0.00    -0.013 C 
ATOM     21  C   UNL     1      34.728 -20.581 -20.101  0.00  0.00    -0.007 C 
ATOM     22  C   UNL     1      37.055 -19.963 -19.907  0.00  0.00    -0.007 C 
ATOM     23  C   UNL     1      34.516 -19.510 -20.970  0.00  0.00    -0.004 C 
ATOM     24  C   UNL     1      36.844 -18.892 -20.775  0.00  0.00    -0.004 C 
BRANCH  19  25
ATOM     25  C   UNL     1      36.223 -21.951 -18.640  0.00  0.00    -0.050 C 
BRANCH  25  26
ATOM     26  N   UNL     1      35.177 -22.058 -17.624  0.00  0.00    +0.387 N 
ATOM     27  N   UNL     1      33.506 -23.537 -15.790  0.00  0.00    +0.382 N 
ATOM     28  C   UNL     1      34.619 -22.714 -15.304  0.00  0.00    -0.083 C 
ATOM     29  C   UNL     1      35.719 -22.605 -16.373  0.00  0.00    -0.099 C 
ATOM     30  C   UNL     1      34.066 -22.887 -18.106  0.00  0.00    -0.101 C 
ATOM     31  C   UNL     1      32.973 -23.003 -17.043  0.00  0.00    -0.105 C 
ATOM     32  C   UNL     1      35.173 -23.333 -14.022  0.00  0.00    -0.026 C 
ATOM     33  H   UNL     1      34.821 -21.120 -17.438  0.00  0.00    -0.079 HD
ATOM     34  H   UNL     1      32.766 -23.547 -15.089  0.00  0.00    -0.085 HD
ATOM     35  H   UNL     1      33.849 -24.483 -15.959  0.00  0.00    -0.085 HD
ENDBRANCH  25  26
ENDBRANCH  19  25
ENDBRANCH   1  20
TORSDOF 6
ENDMDL
MODEL 2
REMARK VINA RESULT:     -11.9      2.023      3.106
REMARK  Name = 15984937
REMARK  6 active torsions:
REMARK  status: ('A' for Active; 'I' for Inactive)
REMARK    1  A    between atoms: C_1  and  C_9
REMARK    2  A    between atoms: C_1  and  C_20
REMARK    3  A    between atoms: C_4  and  N_10
REMARK    4  A    between atoms: N_10  and  C_13
REMARK    5  A    between atoms: C_19  and  C_25
REMARK    6  A    between atoms: C_25  and  N_26
REMARK                            x       y       z     vdW  Elec       q    Type
REMARK                         _______ _______ _______ _____ _____    ______ ____
ROOT
ATOM      1  C   UNL     1      36.061 -19.025 -21.035  0.00  0.00    +0.112 C 
ENDROOT
BRANCH   1   9
ATOM      2  O   UNL     1      35.508 -19.876 -23.176  0.00  0.00    -0.275 OA
ATOM      3  N   UNL     1      34.805 -17.711 -22.709  0.00  0.00    -0.279 N 
ATOM      4  C   UNL     1      34.662 -15.045 -23.862  0.00  0.00    +0.072 C 
ATOM      5  C   UNL     1      35.273 -15.302 -22.480  0.00  0.00    +0.041 C 
ATOM      6  C   UNL     1      34.693 -16.306 -24.732  0.00  0.00    +0.041 C 
ATOM      7  C   UNL     1      34.704 -16.555 -21.812  0.00  0.00    +0.095 C 
ATOM      8  C   UNL     1      34.152 -17.538 -24.007  0.00  0.00    +0.095 C 
ATOM      9  C   UNL     1      35.435 -18.917 -22.402  0.00  0.00    +0.230 C 
BRANCH   4  10
ATOM     10  N   UNL     1      33.302 -14.563 -23.720  0.00  0.00    -0.334 N 
ATOM     11  H   UNL     1      32.564 -15.173 -23.952  0.00  0.00    +0.147 HD
BRANCH  10  13
ATOM     12  F   UNL     1      31.141 -11.662 -20.568  0.00  0.00    -0.204 F 
ATOM     13  C   UNL     1      32.984 -13.292 -23.278  0.00  0.00    +0.047 C 
ATOM     14  C   UNL     1      32.205 -13.102 -22.118  0.00  0.00    +0.044 C 
ATOM     15  C   UNL     1      33.427 -12.149 -23.972  0.00  0.00    +0.014 C 
ATOM     16  C   UNL     1      31.882 -11.820 -21.673  0.00  0.00    +0.141 C 
ATOM     17  C   UNL     1      33.104 -10.868 -23.527  0.00  0.00    +0.004 C 
ATOM     18  C   UNL     1      32.331 -10.704 -22.377  0.00  0.00    +0.030 C 
ENDBRANCH  10  13
ENDBRANCH   4  10
ENDBRANCH   1   9
BRANCH   1  20
ATOM     19  C   UNL     1      34.155 -22.097 -18.742  0.00  0.00    -0.043 C 
ATOM     20  C   UNL     1      35.395 -20.099 -20.234  0.00  0.00    -0.013 C 
ATOM     21  C   UNL     1      35.547 -22.024 -18.789  0.00  0.00    -0.007 C 
ATOM     22  C   UNL     1      33.384 -21.169 -19.443  0.00  0.00    -0.007 C 
ATOM     23  C   UNL     1      36.169 -21.023 -19.536  0.00  0.00    -0.004 C 
ATOM     24  C   UNL     1      34.005 -20.169 -20.190  0.00  0.00    -0.004 C 
BRANCH  19  25
ATOM     25  C   UNL     1      33.491 -23.167 -17.944  0.00  0.00    -0.050 C 
BRANCH  25  26
ATOM     26  N   UNL     1      33.386 -22.821 -16.527  0.00  0.00    +0.387 N 
ATOM     27  N   UNL     1      32.935 -23.455 -13.745  0.00  0.00    +0.382 N 
ATOM     28  C   UNL     1      34.285 -23.175 -14.248  0.00  0.00    -0.083 C 
ATOM     29  C   UNL     1      34.394 -23.542 -15.738  0.00  0.00    -0.099 C 
ATOM     30  C   UNL     1      32.038 -23.107 -16.020  0.00  0.00    -0.101 C 
ATOM     31  C   UNL     1      31.928 -22.750 -14.538  0.00  0.00    -0.105 C 
ATOM     32  C   UNL     1      35.298 -23.967 -13.424  0.00  0.00    -0.026 C 
ATOM     33  H   UNL     1      33.559 -21.820 -16.433  0.00  0.00    -0.079 HD
ATOM     34  H   UNL     1      32.870 -23.151 -12.774  0.00  0.00    -0.085 HD
ATOM     35  H   UNL     1      32.761 -24.458 -13.816  0.00  0.00    -0.085 HD
ENDBRANCH  25  26
ENDBRANCH  19  25
ENDBRANCH   1  20
TORSDOF 6
ENDMDL
MODEL 3
REMARK VINA RESULT:     -11.4      3.691      6.653
REMARK  Name = 15984937
REMARK  6 active torsions:
REMARK  status: ('A' for Active; 'I' for Inactive)
REMARK    1  A    between atoms: C_1  and  C_9
REMARK    2  A    between atoms: C_1  and  C_20
REMARK    3  A    between atoms: C_4  and  N_10
REMARK    4  A    between atoms: N_10  and  C_13
REMARK    5  A    between atoms: C_19  and  C_25
REMARK    6  A    between atoms: C_25  and  N_26
REMARK                            x       y       z     vdW  Elec       q    Type
REMARK                         _______ _______ _______ _____ _____    ______ ____
ROOT
ATOM      1  C   UNL     1      30.927 -11.700 -20.835  0.00  0.00    +0.112 C 
ENDROOT
BRANCH   1   9
ATOM      2  O   UNL     1      31.408 -10.713 -18.736  0.00  0.00    -0.275 OA
ATOM      3  N   UNL     1      32.027  -9.498 -20.617  0.00  0.00    -0.279 N 
ATOM      4  C   UNL     1      31.978  -6.813 -21.735  0.00  0.00    +0.072 C 
ATOM      5  C   UNL     1      31.454  -8.027 -22.510  0.00  0.00    +0.041 C 
ATOM      6  C   UNL     1      31.963  -7.064 -20.223  0.00  0.00    +0.041 C 
ATOM      7  C   UNL     1      32.118  -9.333 -22.072  0.00  0.00    +0.095 C 
ATOM      8  C   UNL     1      32.601  -8.399 -19.840  0.00  0.00    +0.095 C 
ATOM      9  C   UNL     1      31.474 -10.598 -19.963  0.00  0.00    +0.230 C 
BRANCH   4  10
ATOM     10  N   UNL     1      33.318  -6.483 -22.180  0.00  0.00    -0.334 N 
ATOM     11  H   UNL     1      34.059  -6.586 -21.539  0.00  0.00    +0.147 HD
BRANCH  10  13
ATOM     12  F   UNL     1      32.030  -4.190 -26.192  0.00  0.00    -0.204 F 
ATOM     13  C   UNL     1      33.611  -6.031 -23.453  0.00  0.00    +0.047 C 
ATOM     14  C   UNL     1      32.657  -5.320 -24.208  0.00  0.00    +0.044 C 
ATOM     15  C   UNL     1      34.872  -6.268 -24.034  0.00  0.00    +0.014 C 
ATOM     16  C   UNL     1      32.952  -4.865 -25.493  0.00  0.00    +0.141 C 
ATOM     17  C   UNL     1      35.168  -5.813 -25.319  0.00  0.00    +0.004 C 
ATOM     18  C   UNL     1      34.207  -5.112 -26.048  0.00  0.00    +0.030 C 
ENDBRANCH  10  13
ENDBRANCH   4  10
ENDBRANCH   1   9
BRANCH   1  20
ATOM     19  C   UNL     1      34.040 -14.411 -21.967  0.00  0.00    -0.043 C 
ATOM     20  C   UNL     1      32.015 -12.647 -21.231  0.00  0.00    -0.013 C 
ATOM     21  C   UNL     1      33.380 -13.661 -22.941  0.00  0.00    -0.007 C 
ATOM     22  C   UNL     1      33.685 -14.277 -20.625  0.00  0.00    -0.007 C 
ATOM     23  C   UNL     1      32.366 -12.777 -22.573  0.00  0.00    -0.004 C 
ATOM     24  C   UNL     1      32.670 -13.394 -20.256  0.00  0.00    -0.004 C 
BRANCH  19  25
ATOM     25  C   UNL     1      35.124 -15.355 -22.362  0.00  0.00    -0.050 C 
BRANCH  25  26
ATOM     26  N   UNL     1      34.673 -16.746 -22.372  0.00  0.00    +0.387 N 
ATOM     27  N   UNL     1      35.066 -19.580 -22.770  0.00  0.00    +0.382 N 
ATOM     28  C   UNL     1      34.963 -19.013 -21.421  0.00  0.00    -0.083 C 
ATOM     29  C   UNL     1      35.439 -17.551 -21.411  0.00  0.00    -0.099 C 
ATOM     30  C   UNL     1      34.782 -17.318 -23.720  0.00  0.00    -0.101 C 
ATOM     31  C   UNL     1      34.315 -18.774 -23.732  0.00  0.00    -0.105 C 
ATOM     32  C   UNL     1      35.797 -19.858 -20.460  0.00  0.00    -0.026 C 
ATOM     33  H   UNL     1      33.692 -16.763 -22.095  0.00  0.00    -0.079 HD
ATOM     34  H   UNL     1      34.691 -20.529 -22.764  0.00  0.00    -0.085 HD
ATOM     35  H   UNL     1      36.047 -19.588 -23.047  0.00  0.00    -0.085 HD
ENDBRANCH  25  26
ENDBRANCH  19  25
ENDBRANCH   1  20
TORSDOF 6
ENDMDL
MODEL 4
REMARK VINA RESULT:     -11.2      3.974     11.620
REMARK  Name = 15984937
REMARK  6 active torsions:
REMARK  status: ('A' for Active; 'I' for Inactive)
REMARK    1  A    between atoms: C_1  and  C_9
REMARK    2  A    between atoms: C_1  and  C_20
REMARK    3  A    between atoms: C_4  and  N_10
REMARK    4  A    between atoms: N_10  and  C_13
REMARK    5  A    between atoms: C_19  and  C_25
REMARK    6  A    between atoms: C_25  and  N_26
REMARK                            x       y       z     vdW  Elec       q    Type
REMARK                         _______ _______ _______ _____ _____    ______ ____
ROOT
ATOM      1  C   UNL     1      35.521 -22.047 -19.037  0.00  0.00    +0.112 C 
ENDROOT
BRANCH   1   9
ATOM      2  O   UNL     1      37.131 -21.269 -17.481  0.00  0.00    -0.275 OA
ATOM      3  N   UNL     1      35.237 -22.282 -16.593  0.00  0.00    -0.279 N 
ATOM      4  C   UNL     1      34.391 -24.202 -14.579  0.00  0.00    +0.072 C 
ATOM      5  C   UNL     1      33.941 -24.304 -16.040  0.00  0.00    +0.041 C 
ATOM      6  C   UNL     1      35.697 -23.409 -14.449  0.00  0.00    +0.041 C 
ATOM      7  C   UNL     1      33.939 -22.948 -16.749  0.00  0.00    +0.095 C 
ATOM      8  C   UNL     1      35.660 -22.082 -15.207  0.00  0.00    +0.095 C 
ATOM      9  C   UNL     1      36.041 -21.827 -17.639  0.00  0.00    +0.230 C 
BRANCH   4  10
ATOM     10  N   UNL     1      33.347 -23.590 -13.781  0.00  0.00    -0.334 N 
ATOM     11  H   UNL     1      33.611 -22.953 -13.077  0.00  0.00    +0.147 HD
BRANCH  10  13
ATOM     12  F   UNL     1      28.918 -22.117 -14.890  0.00  0.00    -0.204 F 
ATOM     13  C   UNL     1      32.001 -23.853 -13.952  0.00  0.00    +0.047 C 
ATOM     14  C   UNL     1      31.108 -22.835 -14.344  0.00  0.00    +0.044 C 
ATOM     15  C   UNL     1      31.480 -25.144 -13.739  0.00  0.00    +0.014 C 
ATOM     16  C   UNL     1      29.749 -23.099 -14.515  0.00  0.00    +0.141 C 
ATOM     17  C   UNL     1      30.121 -25.409 -13.911  0.00  0.00    +0.004 C 
ATOM     18  C   UNL     1      29.256 -24.385 -14.299  0.00  0.00    +0.030 C 
ENDBRANCH  10  13
ENDBRANCH   4  10
ENDBRANCH   1   9
BRANCH   1  20
ATOM     19  C   UNL     1      35.787 -18.441 -21.328  0.00  0.00    -0.043 C 
ATOM     20  C   UNL     1      35.615 -20.787 -19.838  0.00  0.00    -0.013 C 
ATOM     21  C   UNL     1      34.559 -19.085 -21.181  0.00  0.00    -0.007 C 
ATOM     22  C   UNL     1      36.929 -18.972 -20.729  0.00  0.00    -0.007 C 
ATOM     23  C   UNL     1      34.471 -20.260 -20.435  0.00  0.00    -0.004 C 
ATOM     24  C   UNL     1      36.843 -20.148 -19.982  0.00  0.00    -0.004 C 
BRANCH  19  25
ATOM     25  C   UNL     1      35.880 -17.186 -22.127  0.00  0.00    -0.050 C 
BRANCH  25  26
ATOM     26  N   UNL     1      34.772 -16.271 -21.857  0.00  0.00    +0.387 N 
ATOM     27  N   UNL     1      33.663 -13.675 -21.242  0.00  0.00    +0.382 N 
ATOM     28  C   UNL     1      33.545 -14.249 -22.587  0.00  0.00    -0.083 C 
ATOM     29  C   UNL     1      34.713 -15.209 -22.871  0.00  0.00    -0.099 C 
ATOM     30  C   UNL     1      34.892 -15.691 -20.514  0.00  0.00    -0.101 C 
ATOM     31  C   UNL     1      33.736 -14.730 -20.232  0.00  0.00    -0.105 C 
ATOM     32  C   UNL     1      33.519 -13.116 -23.612  0.00  0.00    -0.026 C 
ATOM     33  H   UNL     1      33.904 -16.805 -21.900  0.00  0.00    -0.079 HD
ATOM     34  H   UNL     1      32.850 -13.089 -21.056  0.00  0.00    -0.085 HD
ATOM     35  H   UNL     1      34.518 -13.121 -21.197  0.00  0.00    -0.085 HD
ENDBRANCH  25  26
ENDBRANCH  19  25
ENDBRANCH   1  20
TORSDOF 6
ENDMDL
MODEL 5
REMARK VINA RESULT:     -11.1      2.543      4.470
REMARK  Name = 15984937
REMARK  6 active torsions:
REMARK  status: ('A' for Active; 'I' for Inactive)
REMARK    1  A    between atoms: C_1  and  C_9
REMARK    2  A    between atoms: C_1  and  C_20
REMARK    3  A    between atoms: C_4  and  N_10
REMARK    4  A    between atoms: N_10  and  C_13
REMARK    5  A    between atoms: C_19  and  C_25
REMARK    6  A    between atoms: C_25  and  N_26
REMARK                            x       y       z     vdW  Elec       q    Type
REMARK                         _______ _______ _______ _____ _____    ______ ____
ROOT
ATOM      1  C   UNL     1      33.809 -13.703 -23.493  0.00  0.00    +0.112 C 
ENDROOT
BRANCH   1   9
ATOM      2  O   UNL     1      32.246 -13.962 -21.731  0.00  0.00    -0.275 OA
ATOM      3  N   UNL     1      32.732 -11.782 -22.373  0.00  0.00    -0.279 N 
ATOM      4  C   UNL     1      31.474  -9.225 -22.956  0.00  0.00    +0.072 C 
ATOM      5  C   UNL     1      32.459  -9.887 -23.925  0.00  0.00    +0.041 C 
ATOM      6  C   UNL     1      30.827 -10.256 -22.024  0.00  0.00    +0.041 C 
ATOM      7  C   UNL     1      33.446 -10.815 -23.215  0.00  0.00    +0.095 C 
ATOM      8  C   UNL     1      31.849 -11.185 -21.371  0.00  0.00    +0.095 C 
ATOM      9  C   UNL     1      32.859 -13.169 -22.452  0.00  0.00    +0.230 C 
BRANCH   4  10
ATOM     10  N   UNL     1      32.151  -8.201 -22.185  0.00  0.00    -0.334 N 
ATOM     11  H   UNL     1      32.869  -8.479 -21.570  0.00  0.00    +0.147 HD
BRANCH  10  13
ATOM     12  F   UNL     1      30.179  -4.502 -24.517  0.00  0.00    -0.204 F 
ATOM     13  C   UNL     1      31.841  -6.856 -22.262  0.00  0.00    +0.047 C 
ATOM     14  C   UNL     1      31.149  -6.334 -23.373  0.00  0.00    +0.044 C 
ATOM     15  C   UNL     1      32.209  -5.966 -21.233  0.00  0.00    +0.014 C 
ATOM     16  C   UNL     1      30.839  -4.977 -23.452  0.00  0.00    +0.141 C 
ATOM     17  C   UNL     1      31.898  -4.609 -21.312  0.00  0.00    +0.004 C 
ATOM     18  C   UNL     1      31.213  -4.114 -22.422  0.00  0.00    +0.030 C 
ENDBRANCH  10  13
ENDBRANCH   4  10
ENDBRANCH   1   9
BRANCH   1  20
ATOM     19  C   UNL     1      35.412 -17.480 -22.274  0.00  0.00    -0.043 C 
ATOM     20  C   UNL     1      34.369 -15.023 -23.068  0.00  0.00    -0.013 C 
ATOM     21  C   UNL     1      35.304 -16.438 -21.353  0.00  0.00    -0.007 C 
ATOM     22  C   UNL     1      34.997 -17.291 -23.592  0.00  0.00    -0.007 C 
ATOM     23  C   UNL     1      34.782 -15.207 -21.750  0.00  0.00    -0.004 C 
ATOM     24  C   UNL     1      34.475 -16.060 -23.990  0.00  0.00    -0.004 C 
BRANCH  19  25
ATOM     25  C   UNL     1      35.971 -18.795 -21.849  0.00  0.00    -0.050 C 
BRANCH  25  26
ATOM     26  N   UNL     1      35.267 -19.353 -20.696  0.00  0.00    +0.387 N 
ATOM     27  N   UNL     1      34.090 -21.524 -19.196  0.00  0.00    +0.382 N 
ATOM     28  C   UNL     1      35.364 -20.924 -18.785  0.00  0.00    -0.083 C 
ATOM     29  C   UNL     1      36.105 -20.340 -20.000  0.00  0.00    -0.099 C 
ATOM     30  C   UNL     1      33.995 -19.960 -21.106  0.00  0.00    -0.101 C 
ATOM     31  C   UNL     1      33.259 -20.549 -19.901  0.00  0.00    -0.105 C 
ATOM     32  C   UNL     1      36.217 -21.988 -18.096  0.00  0.00    -0.026 C 
ATOM     33  H   UNL     1      35.065 -18.590 -20.050  0.00  0.00    -0.079 HD
ATOM     34  H   UNL     1      33.592 -21.852 -18.369  0.00  0.00    -0.085 HD
ATOM     35  H   UNL     1      34.284 -22.302 -19.826  0.00  0.00    -0.085 HD
ENDBRANCH  25  26
ENDBRANCH  19  25
ENDBRANCH   1  20
TORSDOF 6
ENDMDL
MODEL 6
REMARK VINA RESULT:     -11.1      2.924      5.449
REMARK  Name = 15984937
REMARK  6 active torsions:
REMARK  status: ('A' for Active; 'I' for Inactive)
REMARK    1  A    between atoms: C_1  and  C_9
REMARK    2  A    between atoms: C_1  and  C_20
REMARK    3  A    between atoms: C_4  and  N_10
REMARK    4  A    between atoms: N_10  and  C_13
REMARK    5  A    between atoms: C_19  and  C_25
REMARK    6  A    between atoms: C_25  and  N_26
REMARK                            x       y       z     vdW  Elec       q    Type
REMARK                         _______ _______ _______ _____ _____    ______ ____
ROOT
ATOM      1  C   UNL     1      36.286 -21.512 -19.109  0.00  0.00    +0.112 C 
ENDROOT
BRANCH   1   9
ATOM      2  O   UNL     1      34.023 -21.581 -19.808  0.00  0.00    -0.275 OA
ATOM      3  N   UNL     1      35.274 -19.756 -20.522  0.00  0.00    -0.279 N 
ATOM      4  C   UNL     1      35.826 -18.129 -22.869  0.00  0.00    +0.072 C 
ATOM      5  C   UNL     1      36.946 -18.755 -22.031  0.00  0.00    +0.041 C 
ATOM      6  C   UNL     1      34.507 -18.891 -22.701  0.00  0.00    +0.041 C 
ATOM      7  C   UNL     1      36.527 -18.997 -20.580  0.00  0.00    +0.095 C 
ATOM      8  C   UNL     1      34.153 -19.143 -21.235  0.00  0.00    +0.095 C 
ATOM      9  C   UNL     1      35.089 -20.960 -19.840  0.00  0.00    +0.230 C 
BRANCH   4  10
ATOM     10  N   UNL     1      35.655 -16.737 -22.504  0.00  0.00    -0.334 N 
ATOM     11  H   UNL     1      36.158 -16.393 -21.730  0.00  0.00    +0.147 HD
BRANCH  10  13
ATOM     12  F   UNL     1      33.129 -12.662 -22.672  0.00  0.00    -0.204 F 
ATOM     13  C   UNL     1      34.822 -15.865 -23.182  0.00  0.00    +0.047 C 
ATOM     14  C   UNL     1      34.379 -14.671 -22.580  0.00  0.00    +0.044 C 
ATOM     15  C   UNL     1      34.391 -16.146 -24.494  0.00  0.00    +0.014 C 
ATOM     16  C   UNL     1      33.537 -13.793 -23.263  0.00  0.00    +0.141 C 
ATOM     17  C   UNL     1      33.550 -15.267 -25.177  0.00  0.00    +0.004 C 
ATOM     18  C   UNL     1      33.123 -14.091 -24.560  0.00  0.00    +0.030 C 
ENDBRANCH  10  13
ENDBRANCH   4  10
ENDBRANCH   1   9
BRANCH   1  20
ATOM     19  C   UNL     1      35.165 -22.907 -15.220  0.00  0.00    -0.043 C 
ATOM     20  C   UNL     1      35.895 -21.999 -17.750  0.00  0.00    -0.013 C 
ATOM     21  C   UNL     1      34.294 -23.069 -16.297  0.00  0.00    -0.007 C 
ATOM     22  C   UNL     1      36.402 -22.290 -15.411  0.00  0.00    -0.007 C 
ATOM     23  C   UNL     1      34.659 -22.615 -17.565  0.00  0.00    -0.004 C 
ATOM     24  C   UNL     1      36.767 -21.835 -16.678  0.00  0.00    -0.004 C 
BRANCH  19  25
ATOM     25  C   UNL     1      34.775 -23.392 -13.866  0.00  0.00    -0.050 C 
BRANCH  25  26
ATOM     26  N   UNL     1      35.911 -23.450 -12.946  0.00  0.00    +0.387 N 
ATOM     27  N   UNL     1      37.586 -24.771 -10.999  0.00  0.00    +0.382 N 
ATOM     28  C   UNL     1      38.045 -24.567 -12.377  0.00  0.00    -0.083 C 
ATOM     29  C   UNL     1      36.849 -24.508 -13.343  0.00  0.00    -0.099 C 
ATOM     30  C   UNL     1      35.453 -23.661 -11.567  0.00  0.00    -0.101 C 
ATOM     31  C   UNL     1      36.640 -23.727 -10.605  0.00  0.00    -0.105 C 
ATOM     32  C   UNL     1      38.991 -25.703 -12.760  0.00  0.00    -0.026 C 
ATOM     33  H   UNL     1      36.398 -22.555 -12.989  0.00  0.00    -0.079 HD
ATOM     34  H   UNL     1      38.389 -24.748 -10.371  0.00  0.00    -0.085 HD
ATOM     35  H   UNL     1      37.115 -25.674 -10.941  0.00  0.00    -0.085 HD
ENDBRANCH  25  26
ENDBRANCH  19  25
ENDBRANCH   1  20
TORSDOF 6
ENDMDL
MODEL 7
REMARK VINA RESULT:     -11.0      4.414     12.321
REMARK  Name = 15984937
REMARK  6 active torsions:
REMARK  status: ('A' for Active; 'I' for Inactive)
REMARK    1  A    between atoms: C_1  and  C_9
REMARK    2  A    between atoms: C_1  and  C_20
REMARK    3  A    between atoms: C_4  and  N_10
REMARK    4  A    between atoms: N_10  and  C_13
REMARK    5  A    between atoms: C_19  and  C_25
REMARK    6  A    between atoms: C_25  and  N_26
REMARK                            x       y       z     vdW  Elec       q    Type
REMARK                         _______ _______ _______ _____ _____    ______ ____
ROOT
ATOM      1  C   UNL     1      36.121 -21.443 -18.805  0.00  0.00    +0.112 C 
ENDROOT
BRANCH   1   9
ATOM      2  O   UNL     1      33.935 -22.132 -19.406  0.00  0.00    -0.275 OA
ATOM      3  N   UNL     1      34.699 -22.814 -17.320  0.00  0.00    -0.279 N 
ATOM      4  C   UNL     1      33.881 -23.047 -14.538  0.00  0.00    +0.072 C 
ATOM      5  C   UNL     1      35.180 -22.345 -14.948  0.00  0.00    +0.041 C 
ATOM      6  C   UNL     1      32.868 -23.067 -15.688  0.00  0.00    +0.041 C 
ATOM      7  C   UNL     1      35.731 -22.862 -16.278  0.00  0.00    +0.095 C 
ATOM      8  C   UNL     1      33.476 -23.552 -17.004  0.00  0.00    +0.095 C 
ATOM      9  C   UNL     1      34.819 -22.158 -18.546  0.00  0.00    +0.230 C 
BRANCH   4  10
ATOM     10  N   UNL     1      34.168 -24.397 -14.094  0.00  0.00    -0.334 N 
ATOM     11  H   UNL     1      33.611 -25.131 -14.444  0.00  0.00    +0.147 HD
BRANCH  10  13
ATOM     12  F   UNL     1      36.023 -24.262  -9.672  0.00  0.00    -0.204 F 
ATOM     13  C   UNL     1      35.179 -24.711 -13.204  0.00  0.00    +0.047 C 
ATOM     14  C   UNL     1      35.099 -24.324 -11.851  0.00  0.00    +0.044 C 
ATOM     15  C   UNL     1      36.318 -25.425 -13.623  0.00  0.00    +0.014 C 
ATOM     16  C   UNL     1      36.120 -24.639 -10.954  0.00  0.00    +0.141 C 
ATOM     17  C   UNL     1      37.339 -25.741 -12.726  0.00  0.00    +0.004 C 
ATOM     18  C   UNL     1      37.238 -25.347 -11.391  0.00  0.00    +0.030 C 
ENDBRANCH  10  13
ENDBRANCH   4  10
ENDBRANCH   1   9
BRANCH   1  20
ATOM     19  C   UNL     1      35.601 -18.398 -21.768  0.00  0.00    -0.043 C 
ATOM     20  C   UNL     1      35.939 -20.379 -19.841  0.00  0.00    -0.013 C 
ATOM     21  C   UNL     1      34.516 -19.182 -21.377  0.00  0.00    -0.007 C 
ATOM     22  C   UNL     1      36.854 -18.606 -21.194  0.00  0.00    -0.007 C 
ATOM     23  C   UNL     1      34.685 -20.175 -20.411  0.00  0.00    -0.004 C 
ATOM     24  C   UNL     1      37.025 -19.598 -20.229  0.00  0.00    -0.004 C 
BRANCH  19  25
ATOM     25  C   UNL     1      35.420 -17.337 -22.800  0.00  0.00    -0.050 C 
BRANCH  25  26
ATOM     26  N   UNL     1      34.572 -16.242 -22.331  0.00  0.00    +0.387 N 
ATOM     27  N   UNL     1      34.117 -13.531 -21.446  0.00  0.00    +0.382 N 
ATOM     28  C   UNL     1      33.705 -13.969 -22.784  0.00  0.00    -0.083 C 
ATOM     29  C   UNL     1      34.600 -15.119 -23.277  0.00  0.00    -0.099 C 
ATOM     30  C   UNL     1      34.987 -15.798 -20.995  0.00  0.00    -0.101 C 
ATOM     31  C   UNL     1      34.103 -14.650 -20.505  0.00  0.00    -0.105 C 
ATOM     32  C   UNL     1      33.779 -12.781 -23.742  0.00  0.00    -0.026 C 
ATOM     33  H   UNL     1      33.614 -16.588 -22.271  0.00  0.00    -0.079 HD
ATOM     34  H   UNL     1      33.475 -12.810 -21.117  0.00  0.00    -0.085 HD
ATOM     35  H   UNL     1      35.067 -13.163 -21.501  0.00  0.00    -0.085 HD
ENDBRANCH  25  26
ENDBRANCH  19  25
ENDBRANCH   1  20
TORSDOF 6
ENDMDL
MODEL 8
REMARK VINA RESULT:     -10.9      3.817     11.009
REMARK  Name = 15984937
REMARK  6 active torsions:
REMARK  status: ('A' for Active; 'I' for Inactive)
REMARK    1  A    between atoms: C_1  and  C_9
REMARK    2  A    between atoms: C_1  and  C_20
REMARK    3  A    between atoms: C_4  and  N_10
REMARK    4  A    between atoms: N_10  and  C_13
REMARK    5  A    between atoms: C_19  and  C_25
REMARK    6  A    between atoms: C_25  and  N_26
REMARK                            x       y       z     vdW  Elec       q    Type
REMARK                         _______ _______ _______ _____ _____    ______ ____
ROOT
ATOM      1  C   UNL     1      35.375 -15.839 -23.990  0.00  0.00    +0.112 C 
ENDROOT
BRANCH   1   9
ATOM      2  O   UNL     1      34.053 -17.464 -25.097  0.00  0.00    -0.275 OA
ATOM      3  N   UNL     1      34.994 -18.100 -23.069  0.00  0.00    -0.279 N 
ATOM      4  C   UNL     1      34.372 -19.464 -20.577  0.00  0.00    +0.072 C 
ATOM      5  C   UNL     1      35.012 -18.072 -20.605  0.00  0.00    +0.041 C 
ATOM      6  C   UNL     1      33.614 -19.759 -21.875  0.00  0.00    +0.041 C 
ATOM      7  C   UNL     1      35.812 -17.820 -21.884  0.00  0.00    +0.095 C 
ATOM      8  C   UNL     1      34.440 -19.453 -23.125  0.00  0.00    +0.095 C 
ATOM      9  C   UNL     1      34.746 -17.204 -24.109  0.00  0.00    +0.230 C 
BRANCH   4  10
ATOM     10  N   UNL     1      35.389 -20.471 -20.346  0.00  0.00    -0.334 N 
ATOM     11  H   UNL     1      36.027 -20.664 -21.072  0.00  0.00    +0.147 HD
BRANCH  10  13
ATOM     12  F   UNL     1      33.545 -23.409 -17.032  0.00  0.00    -0.204 F 
ATOM     13  C   UNL     1      35.511 -21.177 -19.163  0.00  0.00    +0.047 C 
ATOM     14  C   UNL     1      34.447 -21.959 -18.673  0.00  0.00    +0.044 C 
ATOM     15  C   UNL     1      36.703 -21.135 -18.413  0.00  0.00    +0.014 C 
ATOM     16  C   UNL     1      34.569 -22.671 -17.480  0.00  0.00    +0.141 C 
ATOM     17  C   UNL     1      36.825 -21.846 -17.219  0.00  0.00    +0.004 C 
ATOM     18  C   UNL     1      35.758 -22.614 -16.753  0.00  0.00    +0.030 C 
ENDBRANCH  10  13
ENDBRANCH   4  10
ENDBRANCH   1   9
BRANCH   1  20
ATOM     19  C   UNL     1      32.712 -13.118 -22.034  0.00  0.00    -0.043 C 
ATOM     20  C   UNL     1      34.444 -14.888 -23.306  0.00  0.00    -0.013 C 
ATOM     21  C   UNL     1      33.664 -13.816 -21.291  0.00  0.00    -0.007 C 
ATOM     22  C   UNL     1      32.627 -13.307 -23.413  0.00  0.00    -0.007 C 
ATOM     23  C   UNL     1      34.533 -14.703 -21.928  0.00  0.00    -0.004 C 
ATOM     24  C   UNL     1      33.494 -14.194 -24.050  0.00  0.00    -0.004 C 
BRANCH  19  25
ATOM     25  C   UNL     1      31.783 -12.171 -21.352  0.00  0.00    -0.050 C 
BRANCH  25  26
ATOM     26  N   UNL     1      32.020 -10.782 -21.743  0.00  0.00    +0.387 N 
ATOM     27  N   UNL     1      31.372  -7.967 -21.776  0.00  0.00    +0.382 N 
ATOM     28  C   UNL     1      32.489  -8.476 -20.974  0.00  0.00    -0.083 C 
ATOM     29  C   UNL     1      32.238  -9.937 -20.561  0.00  0.00    -0.099 C 
ATOM     30  C   UNL     1      30.899 -10.268 -22.540  0.00  0.00    -0.101 C 
ATOM     31  C   UNL     1      31.143  -8.813 -22.946  0.00  0.00    -0.105 C 
ATOM     32  C   UNL     1      32.662  -7.591 -19.740  0.00  0.00    -0.026 C 
ATOM     33  H   UNL     1      32.862 -10.754 -22.318  0.00  0.00    -0.079 HD
ATOM     34  H   UNL     1      31.587  -7.019 -22.085  0.00  0.00    -0.085 HD
ATOM     35  H   UNL     1      30.529  -7.971 -21.201  0.00  0.00    -0.085 HD
ENDBRANCH  25  26
ENDBRANCH  19  25
ENDBRANCH   1  20
TORSDOF 6
ENDMDL
MODEL 9
REMARK VINA RESULT:     -10.7      1.967      3.865
REMARK  Name = 15984937
REMARK  6 active torsions:
REMARK  status: ('A' for Active; 'I' for Inactive)
REMARK    1  A    between atoms: C_1  and  C_9
REMARK    2  A    between atoms: C_1  and  C_20
REMARK    3  A    between atoms: C_4  and  N_10
REMARK    4  A    between atoms: N_10  and  C_13
REMARK    5  A    between atoms: C_19  and  C_25
REMARK    6  A    between atoms: C_25  and  N_26
REMARK                            x       y       z     vdW  Elec       q    Type
REMARK                         _______ _______ _______ _____ _____    ______ ____
ROOT
ATOM      1  C   UNL     1      34.006 -13.737 -23.331  0.00  0.00    +0.112 C 
ENDROOT
BRANCH   1   9
ATOM      2  O   UNL     1      32.556 -13.956 -21.470  0.00  0.00    -0.275 OA
ATOM      3  N   UNL     1      32.798 -11.818 -22.348  0.00  0.00    -0.279 N 
ATOM      4  C   UNL     1      31.271  -9.463 -23.110  0.00  0.00    +0.072 C 
ATOM      5  C   UNL     1      32.272 -10.126 -24.061  0.00  0.00    +0.041 C 
ATOM      6  C   UNL     1      30.770 -10.448 -22.048  0.00  0.00    +0.041 C 
ATOM      7  C   UNL     1      33.376 -10.882 -23.318  0.00  0.00    +0.095 C 
ATOM      8  C   UNL     1      31.907 -11.206 -21.362  0.00  0.00    +0.095 C 
ATOM      9  C   UNL     1      33.056 -13.188 -22.297  0.00  0.00    +0.230 C 
BRANCH   4  10
ATOM     10  N   UNL     1      31.879  -8.307 -22.481  0.00  0.00    -0.334 N 
ATOM     11  H   UNL     1      31.603  -8.078 -21.563  0.00  0.00    +0.147 HD
BRANCH  10  13
ATOM     12  F   UNL     1      36.397  -6.749 -22.902  0.00  0.00    -0.204 F 
ATOM     13  C   UNL     1      32.822  -7.507 -23.099  0.00  0.00    +0.047 C 
ATOM     14  C   UNL     1      34.169  -7.524 -22.687  0.00  0.00    +0.044 C 
ATOM     15  C   UNL     1      32.464  -6.650 -24.158  0.00  0.00    +0.014 C 
ATOM     16  C   UNL     1      35.120  -6.716 -23.309  0.00  0.00    +0.141 C 
ATOM     17  C   UNL     1      33.415  -5.842 -24.781  0.00  0.00    +0.004 C 
ATOM     18  C   UNL     1      34.744  -5.875 -24.356  0.00  0.00    +0.030 C 
ENDBRANCH  10  13
ENDBRANCH   4  10
ENDBRANCH   1   9
BRANCH   1  20
ATOM     19  C   UNL     1      35.402 -17.619 -22.190  0.00  0.00    -0.043 C 
ATOM     20  C   UNL     1      34.494 -15.094 -22.932  0.00  0.00    -0.013 C 
ATOM     21  C   UNL     1      35.026 -17.374 -23.510  0.00  0.00    -0.007 C 
ATOM     22  C   UNL     1      35.324 -16.599 -21.242  0.00  0.00    -0.007 C 
ATOM     23  C   UNL     1      34.571 -16.109 -23.883  0.00  0.00    -0.004 C 
ATOM     24  C   UNL     1      34.868 -15.334 -21.613  0.00  0.00    -0.004 C 
BRANCH  19  25
ATOM     25  C   UNL     1      35.888 -18.971 -21.792  0.00  0.00    -0.050 C 
BRANCH  25  26
ATOM     26  N   UNL     1      35.198 -19.485 -20.609  0.00  0.00    +0.387 N 
ATOM     27  N   UNL     1      33.999 -21.589 -19.035  0.00  0.00    +0.382 N 
ATOM     28  C   UNL     1      35.299 -21.017 -18.668  0.00  0.00    -0.083 C 
ATOM     29  C   UNL     1      36.025 -20.480 -19.913  0.00  0.00    -0.099 C 
ATOM     30  C   UNL     1      33.899 -20.064 -20.975  0.00  0.00    -0.101 C 
ATOM     31  C   UNL     1      33.179 -20.606 -19.740  0.00  0.00    -0.105 C 
ATOM     32  C   UNL     1      36.139 -22.090 -17.977  0.00  0.00    -0.026 C 
ATOM     33  H   UNL     1      35.033 -18.703 -19.976  0.00  0.00    -0.079 HD
ATOM     34  H   UNL     1      33.513 -21.886 -18.189  0.00  0.00    -0.085 HD
ATOM     35  H   UNL     1      34.156 -22.386 -19.653  0.00  0.00    -0.085 HD
ENDBRANCH  25  26
ENDBRANCH  19  25
ENDBRANCH   1  20
TORSDOF 6
ENDMDL
