MODEL 1
REMARK VINA RESULT:     -12.6      0.000      0.000
REMARK  Name = 32778
REMARK  7 active torsions:
REMARK  status: ('A' for Active; 'I' for Inactive)
REMARK    1  A    between atoms: C_1  and  S_7
REMARK    2  A    between atoms: C_2  and  C_23
REMARK    3  A    between atoms: S_7  and  N_12
REMARK    4  A    between atoms: N_11  and  N_16
REMARK    5  A    between atoms: C_23  and  C_24
REMARK    6  A    between atoms: C_24  and  N_26
REMARK    7  A    between atoms: C_27  and  C_31
REMARK                            x       y       z     vdW  Elec       q    Type
REMARK                         _______ _______ _______ _____ _____    ______ ____
ROOT
ATOM      1  C   UNL     1      34.396 -21.576 -18.996  0.00  0.00    +0.125 C 
ATOM      2  C   UNL     1      35.699 -19.668 -20.558  0.00  0.00    -0.020 C 
ATOM      3  C   UNL     1      33.657 -20.730 -19.824  0.00  0.00    +0.020 C 
ATOM      4  C   UNL     1      35.786 -21.467 -18.949  0.00  0.00    +0.020 C 
ATOM      5  C   UNL     1      34.309 -19.776 -20.605  0.00  0.00    -0.003 C 
ATOM      6  C   UNL     1      36.438 -20.514 -19.731  0.00  0.00    -0.003 C 
ENDROOT
BRANCH   1   7
ATOM      7  S   UNL     1      33.569 -22.784 -18.005  0.00  0.00    +0.077 S 
ATOM      8  O   UNL     1      33.854 -24.094 -18.557  0.00  0.00    -0.150 OA
ATOM      9  O   UNL     1      32.198 -22.333 -17.852  0.00  0.00    -0.150 OA
BRANCH   7  12
ATOM     10  O   UNL     1      34.554 -24.851 -15.908  0.00  0.00    -0.250 OA
ATOM     11  N   UNL     1      35.427 -23.216 -14.524  0.00  0.00    -0.230 N 
ATOM     12  N   UNL     1      34.391 -22.604 -16.517  0.00  0.00    -0.168 N 
ATOM     13  C   UNL     1      34.781 -23.672 -15.650  0.00  0.00    +0.333 C 
ATOM     14  H   UNL     1      35.572 -22.251 -14.388  0.00  0.00    +0.171 HD
ATOM     15  H   UNL     1      34.614 -21.687 -16.233  0.00  0.00    +0.178 HD
BRANCH  11  16
ATOM     16  N   UNL     1      35.872 -24.132 -13.582  0.00  0.00    -0.205 NA
ATOM     17  C   UNL     1      37.797 -24.793 -11.114  0.00  0.00    +0.002 C 
ATOM     18  C   UNL     1      38.132 -25.980 -12.008  0.00  0.00    +0.002 C 
ATOM     19  C   UNL     1      36.327 -24.392 -11.106  0.00  0.00    +0.019 C 
ATOM     20  C   UNL     1      37.401 -26.071 -13.344  0.00  0.00    +0.019 C 
ATOM     21  C   UNL     1      35.949 -23.477 -12.275  0.00  0.00    +0.092 C 
ATOM     22  C   UNL     1      37.127 -24.738 -14.039  0.00  0.00    +0.092 C 
ENDBRANCH  11  16
ENDBRANCH   7  12
ENDBRANCH   1   7
BRANCH   2  23
ATOM     23  C   UNL     1      36.396 -18.648 -21.395  0.00  0.00    +0.048 C 
BRANCH  23  24
ATOM     24  C   UNL     1      35.876 -18.580 -22.837  0.00  0.00    +0.094 C 
BRANCH  24  26
ATOM     25  O   UNL     1      34.102 -18.016 -24.979  0.00  0.00    -0.268 OA
ATOM     26  N   UNL     1      35.317 -17.294 -23.156  0.00  0.00    -0.299 N 
ATOM     27  C   UNL     1      34.450 -17.103 -24.230  0.00  0.00    +0.267 C 
ATOM     28  H   UNL     1      35.554 -16.520 -22.595  0.00  0.00    +0.150 HD
BRANCH  27  31
ATOM     29  O   UNL     1      33.063 -14.046 -25.445  0.00  0.00    -0.358 OA
ATOM     30  N   UNL     1      33.350 -15.401 -25.570  0.00  0.00    -0.073 NA
ATOM     31  C   UNL     1      33.990 -15.723 -24.443  0.00  0.00    +0.176 C 
ATOM     32  C   UNL     1      34.134 -14.625 -23.577  0.00  0.00    +0.063 C 
ATOM     33  C   UNL     1      33.535 -13.597 -24.254  0.00  0.00    +0.155 C 
ATOM     34  C   UNL     1      33.316 -12.175 -23.956  0.00  0.00    +0.075 C 
ENDBRANCH  27  31
ENDBRANCH  24  26
ENDBRANCH  23  24
ENDBRANCH   2  23
TORSDOF 7
ENDMDL
MODEL 2
REMARK VINA RESULT:     -12.3      1.145      1.274
REMARK  Name = 32778
REMARK  7 active torsions:
REMARK  status: ('A' for Active; 'I' for Inactive)
REMARK    1  A    between atoms: C_1  and  S_7
REMARK    2  A    between atoms: C_2  and  C_23
REMARK    3  A    between atoms: S_7  and  N_12
REMARK    4  A    between atoms: N_11  and  N_16
REMARK    5  A    between atoms: C_23  and  C_24
REMARK    6  A    between atoms: C_24  and  N_26
REMARK    7  A    between atoms: C_27  and  C_31
REMARK                            x       y       z     vdW  Elec       q    Type
REMARK                         _______ _______ _______ _____ _____    ______ ____
ROOT
ATOM      1  C   UNL     1      34.526 -21.319 -19.413  0.00  0.00    +0.125 C 
ATOM      2  C   UNL     1      35.632 -19.329 -21.024  0.00  0.00    -0.020 C 
ATOM      3  C   UNL     1      33.704 -20.562 -20.248  0.00  0.00    +0.020 C 
ATOM      4  C   UNL     1      35.900 -21.080 -19.382  0.00  0.00    +0.020 C 
ATOM      5  C   UNL     1      34.258 -19.567 -21.055  0.00  0.00    -0.003 C 
ATOM      6  C   UNL     1      36.453 -20.086 -20.189  0.00  0.00    -0.003 C 
ENDROOT
BRANCH   1   7
ATOM      7  S   UNL     1      33.823 -22.578 -18.390  0.00  0.00    +0.077 S 
ATOM      8  O   UNL     1      33.970 -23.849 -19.072  0.00  0.00    -0.150 OA
ATOM      9  O   UNL     1      32.511 -22.107 -17.987  0.00  0.00    -0.150 OA
BRANCH   7  12
ATOM     10  O   UNL     1      34.210 -24.499 -15.982  0.00  0.00    -0.250 OA
ATOM     11  N   UNL     1      35.883 -23.198 -15.053  0.00  0.00    -0.230 N 
ATOM     12  N   UNL     1      34.877 -22.531 -17.045  0.00  0.00    -0.168 N 
ATOM     13  C   UNL     1      34.935 -23.508 -16.001  0.00  0.00    +0.333 C 
ATOM     14  H   UNL     1      36.427 -22.382 -15.139  0.00  0.00    +0.171 HD
ATOM     15  H   UNL     1      35.496 -21.767 -16.982  0.00  0.00    +0.178 HD
BRANCH  11  16
ATOM     16  N   UNL     1      36.064 -24.051 -13.974  0.00  0.00    -0.205 NA
ATOM     17  C   UNL     1      37.636 -24.743 -11.276  0.00  0.00    +0.002 C 
ATOM     18  C   UNL     1      37.781 -26.080 -11.992  0.00  0.00    +0.002 C 
ATOM     19  C   UNL     1      36.283 -24.066 -11.453  0.00  0.00    +0.019 C 
ATOM     20  C   UNL     1      37.143 -26.202 -13.371  0.00  0.00    +0.019 C 
ATOM     21  C   UNL     1      36.182 -23.257 -12.750  0.00  0.00    +0.092 C 
ATOM     22  C   UNL     1      37.197 -24.944 -14.238  0.00  0.00    +0.092 C 
ENDBRANCH  11  16
ENDBRANCH   7  12
ENDBRANCH   1   7
BRANCH   2  23
ATOM     23  C   UNL     1      36.223 -18.266 -21.888  0.00  0.00    +0.048 C 
BRANCH  23  24
ATOM     24  C   UNL     1      35.284 -17.790 -23.004  0.00  0.00    +0.094 C 
BRANCH  24  26
ATOM     25  O   UNL     1      34.257 -16.098 -25.037  0.00  0.00    -0.268 OA
ATOM     26  N   UNL     1      34.901 -16.413 -22.845  0.00  0.00    -0.299 N 
ATOM     27  C   UNL     1      34.404 -15.650 -23.900  0.00  0.00    +0.267 C 
ATOM     28  H   UNL     1      34.993 -15.994 -21.959  0.00  0.00    +0.150 HD
BRANCH  27  31
ATOM     29  O   UNL     1      33.948 -12.436 -22.414  0.00  0.00    -0.358 OA
ATOM     30  N   UNL     1      34.367 -13.762 -22.372  0.00  0.00    -0.073 NA
ATOM     31  C   UNL     1      34.088 -14.250 -23.583  0.00  0.00    +0.176 C 
ATOM     32  C   UNL     1      33.498 -13.290 -24.424  0.00  0.00    +0.063 C 
ATOM     33  C   UNL     1      33.433 -12.168 -23.641  0.00  0.00    +0.155 C 
ATOM     34  C   UNL     1      32.939 -10.803 -23.860  0.00  0.00    +0.075 C 
ENDBRANCH  27  31
ENDBRANCH  24  26
ENDBRANCH  23  24
ENDBRANCH   2  23
TORSDOF 7
ENDMDL
MODEL 3
REMARK VINA RESULT:     -12.1      3.970     11.082
REMARK  Name = 32778
REMARK  7 active torsions:
REMARK  status: ('A' for Active; 'I' for Inactive)
REMARK    1  A    between atoms: C_1  and  S_7
REMARK    2  A    between atoms: C_2  and  C_23
REMARK    3  A    between atoms: S_7  and  N_12
REMARK    4  A    between atoms: N_11  and  N_16
REMARK    5  A    between atoms: C_23  and  C_24
REMARK    6  A    between atoms: C_24  and  N_26
REMARK    7  A    between atoms: C_27  and  C_31
REMARK                            x       y       z     vdW  Elec       q    Type
REMARK                         _______ _______ _______ _____ _____    ______ ____
ROOT
ATOM      1  C   UNL     1      35.363 -20.024 -20.316  0.00  0.00    +0.125 C 
ATOM      2  C   UNL     1      34.217 -22.123 -18.880  0.00  0.00    -0.020 C 
ATOM      3  C   UNL     1      33.976 -20.167 -20.278  0.00  0.00    +0.020 C 
ATOM      4  C   UNL     1      36.177 -20.930 -19.636  0.00  0.00    +0.020 C 
ATOM      5  C   UNL     1      33.403 -21.216 -19.560  0.00  0.00    -0.003 C 
ATOM      6  C   UNL     1      35.604 -21.979 -18.918  0.00  0.00    -0.003 C 
ENDROOT
BRANCH   1   7
ATOM      7  S   UNL     1      36.089 -18.695 -21.228  0.00  0.00    +0.077 S 
ATOM      8  O   UNL     1      35.753 -18.871 -22.628  0.00  0.00    -0.150 OA
ATOM      9  O   UNL     1      37.476 -18.608 -20.810  0.00  0.00    -0.150 OA
BRANCH   7  12
ATOM     10  O   UNL     1      35.456 -15.891 -22.401  0.00  0.00    -0.250 OA
ATOM     11  N   UNL     1      34.286 -15.231 -20.518  0.00  0.00    -0.230 N 
ATOM     12  N   UNL     1      35.226 -17.360 -20.601  0.00  0.00    -0.168 N 
ATOM     13  C   UNL     1      35.019 -16.115 -21.276  0.00  0.00    +0.333 C 
ATOM     14  H   UNL     1      33.970 -15.485 -19.620  0.00  0.00    +0.171 HD
ATOM     15  H   UNL     1      34.839 -17.454 -19.700  0.00  0.00    +0.178 HD
BRANCH  11  16
ATOM     16  N   UNL     1      33.997 -13.976 -21.033  0.00  0.00    -0.205 NA
ATOM     17  C   UNL     1      31.817 -11.926 -22.164  0.00  0.00    +0.002 C 
ATOM     18  C   UNL     1      32.839 -11.839 -23.290  0.00  0.00    +0.002 C 
ATOM     19  C   UNL     1      32.413 -12.021 -20.765  0.00  0.00    +0.019 C 
ATOM     20  C   UNL     1      34.099 -12.687 -23.150  0.00  0.00    +0.019 C 
ATOM     21  C   UNL     1      32.800 -13.450 -20.374  0.00  0.00    +0.092 C 
ATOM     22  C   UNL     1      33.907 -14.054 -22.495  0.00  0.00    +0.092 C 
ENDBRANCH  11  16
ENDBRANCH   7  12
ENDBRANCH   1   7
BRANCH   2  23
ATOM     23  C   UNL     1      33.604 -23.244 -18.111  0.00  0.00    +0.048 C 
BRANCH  23  24
ATOM     24  C   UNL     1      33.072 -22.824 -16.734  0.00  0.00    +0.094 C 
BRANCH  24  26
ATOM     25  O   UNL     1      31.255 -24.215 -15.056  0.00  0.00    -0.268 OA
ATOM     26  N   UNL     1      31.642 -22.670 -16.723  0.00  0.00    -0.299 N 
ATOM     27  C   UNL     1      30.819 -23.395 -15.864  0.00  0.00    +0.267 C 
ATOM     28  H   UNL     1      31.230 -22.028 -17.346  0.00  0.00    +0.150 HD
BRANCH  27  31
ATOM     29  O   UNL     1      27.398 -23.214 -16.868  0.00  0.00    -0.358 OA
ATOM     30  N   UNL     1      28.714 -23.624 -17.054  0.00  0.00    -0.073 NA
ATOM     31  C   UNL     1      29.377 -23.145 -15.998  0.00  0.00    +0.176 C 
ATOM     32  C   UNL     1      28.542 -22.432 -15.121  0.00  0.00    +0.063 C 
ATOM     33  C   UNL     1      27.310 -22.505 -15.713  0.00  0.00    +0.155 C 
ATOM     34  C   UNL     1      25.980 -21.992 -15.360  0.00  0.00    +0.075 C 
ENDBRANCH  27  31
ENDBRANCH  24  26
ENDBRANCH  23  24
ENDBRANCH   2  23
TORSDOF 7
ENDMDL
MODEL 4
REMARK VINA RESULT:     -11.8      2.685     11.811
REMARK  Name = 32778
REMARK  7 active torsions:
REMARK  status: ('A' for Active; 'I' for Inactive)
REMARK    1  A    between atoms: C_1  and  S_7
REMARK    2  A    between atoms: C_2  and  C_23
REMARK    3  A    between atoms: S_7  and  N_12
REMARK    4  A    between atoms: N_11  and  N_16
REMARK    5  A    between atoms: C_23  and  C_24
REMARK    6  A    between atoms: C_24  and  N_26
REMARK    7  A    between atoms: C_27  and  C_31
REMARK                            x       y       z     vdW  Elec       q    Type
REMARK                         _______ _______ _______ _____ _____    ______ ____
ROOT
ATOM      1  C   UNL     1      35.373 -20.027 -20.244  0.00  0.00    +0.125 C 
ATOM      2  C   UNL     1      34.267 -22.056 -18.682  0.00  0.00    -0.020 C 
ATOM      3  C   UNL     1      33.991 -20.209 -20.214  0.00  0.00    +0.020 C 
ATOM      4  C   UNL     1      36.203 -20.861 -19.493  0.00  0.00    +0.020 C 
ATOM      5  C   UNL     1      33.437 -21.222 -19.432  0.00  0.00    -0.003 C 
ATOM      6  C   UNL     1      35.649 -21.875 -18.711  0.00  0.00    -0.003 C 
ENDROOT
BRANCH   1   7
ATOM      7  S   UNL     1      36.074 -18.743 -21.236  0.00  0.00    +0.077 S 
ATOM      8  O   UNL     1      35.633 -18.938 -22.604  0.00  0.00    -0.150 OA
ATOM      9  O   UNL     1      37.489 -18.693 -20.920  0.00  0.00    -0.150 OA
BRANCH   7  12
ATOM     10  O   UNL     1      35.347 -15.985 -22.462  0.00  0.00    -0.250 OA
ATOM     11  N   UNL     1      34.400 -15.221 -20.495  0.00  0.00    -0.230 N 
ATOM     12  N   UNL     1      35.301 -17.367 -20.582  0.00  0.00    -0.168 N 
ATOM     13  C   UNL     1      35.035 -16.150 -21.286  0.00  0.00    +0.333 C 
ATOM     14  H   UNL     1      34.183 -15.429 -19.557  0.00  0.00    +0.171 HD
ATOM     15  H   UNL     1      35.015 -17.414 -19.640  0.00  0.00    +0.178 HD
BRANCH  11  16
ATOM     16  N   UNL     1      34.071 -13.986 -21.034  0.00  0.00    -0.205 NA
ATOM     17  C   UNL     1      31.820 -12.017 -22.169  0.00  0.00    +0.002 C 
ATOM     18  C   UNL     1      32.818 -11.932 -23.316  0.00  0.00    +0.002 C 
ATOM     19  C   UNL     1      32.444 -12.064 -20.780  0.00  0.00    +0.019 C 
ATOM     20  C   UNL     1      34.101 -12.745 -23.182  0.00  0.00    +0.019 C 
ATOM     21  C   UNL     1      32.874 -13.474 -20.363  0.00  0.00    +0.092 C 
ATOM     22  C   UNL     1      33.955 -14.101 -22.491  0.00  0.00    +0.092 C 
ENDBRANCH  11  16
ENDBRANCH   7  12
ENDBRANCH   1   7
BRANCH   2  23
ATOM     23  C   UNL     1      33.674 -23.139 -17.845  0.00  0.00    +0.048 C 
BRANCH  23  24
ATOM     24  C   UNL     1      34.030 -23.028 -16.356  0.00  0.00    +0.094 C 
BRANCH  24  26
ATOM     25  O   UNL     1      34.385 -24.701 -14.092  0.00  0.00    -0.268 OA
ATOM     26  N   UNL     1      35.223 -23.759 -16.023  0.00  0.00    -0.299 N 
ATOM     27  C   UNL     1      35.314 -24.561 -14.887  0.00  0.00    +0.267 C 
ATOM     28  H   UNL     1      36.003 -23.691 -16.619  0.00  0.00    +0.150 HD
BRANCH  27  31
ATOM     29  O   UNL     1      38.090 -26.794 -14.667  0.00  0.00    -0.358 OA
ATOM     30  N   UNL     1      36.771 -26.502 -14.996  0.00  0.00    -0.073 NA
ATOM     31  C   UNL     1      36.612 -25.217 -14.670  0.00  0.00    +0.176 C 
ATOM     32  C   UNL     1      37.783 -24.651 -14.137  0.00  0.00    +0.063 C 
ATOM     33  C   UNL     1      38.681 -25.684 -14.156  0.00  0.00    +0.155 C 
ATOM     34  C   UNL     1      40.087 -25.816 -13.753  0.00  0.00    +0.075 C 
ENDBRANCH  27  31
ENDBRANCH  24  26
ENDBRANCH  23  24
ENDBRANCH   2  23
TORSDOF 7
ENDMDL
MODEL 5
REMARK VINA RESULT:     -11.6      2.435     11.741
REMARK  Name = 32778
REMARK  7 active torsions:
REMARK  status: ('A' for Active; 'I' for Inactive)
REMARK    1  A    between atoms: C_1  and  S_7
REMARK    2  A    between atoms: C_2  and  C_23
REMARK    3  A    between atoms: S_7  and  N_12
REMARK    4  A    between atoms: N_11  and  N_16
REMARK    5  A    between atoms: C_23  and  C_24
REMARK    6  A    between atoms: C_24  and  N_26
REMARK    7  A    between atoms: C_27  and  C_31
REMARK                            x       y       z     vdW  Elec       q    Type
REMARK                         _______ _______ _______ _____ _____    ______ ____
ROOT
ATOM      1  C   UNL     1      35.412 -19.811 -20.449  0.00  0.00    +0.125 C 
ATOM      2  C   UNL     1      33.874 -21.550 -18.903  0.00  0.00    -0.020 C 
ATOM      3  C   UNL     1      34.020 -19.777 -20.537  0.00  0.00    +0.020 C 
ATOM      4  C   UNL     1      36.035 -20.716 -19.590  0.00  0.00    +0.020 C 
ATOM      5  C   UNL     1      33.251 -20.645 -19.763  0.00  0.00    -0.003 C 
ATOM      6  C   UNL     1      35.266 -21.585 -18.816  0.00  0.00    -0.003 C 
ENDROOT
BRANCH   1   7
ATOM      7  S   UNL     1      36.386 -18.710 -21.432  0.00  0.00    +0.077 S 
ATOM      8  O   UNL     1      36.096 -18.973 -22.827  0.00  0.00    -0.150 OA
ATOM      9  O   UNL     1      37.747 -18.797 -20.934  0.00  0.00    -0.150 OA
BRANCH   7  12
ATOM     10  O   UNL     1      34.596 -16.695 -22.970  0.00  0.00    -0.250 OA
ATOM     11  N   UNL     1      34.514 -15.218 -21.190  0.00  0.00    -0.230 N 
ATOM     12  N   UNL     1      35.719 -17.201 -20.988  0.00  0.00    -0.168 N 
ATOM     13  C   UNL     1      34.901 -16.377 -21.824  0.00  0.00    +0.333 C 
ATOM     14  H   UNL     1      34.802 -15.035 -20.266  0.00  0.00    +0.171 HD
ATOM     15  H   UNL     1      35.915 -16.869 -20.081  0.00  0.00    +0.178 HD
BRANCH  11  16
ATOM     16  N   UNL     1      33.713 -14.312 -21.869  0.00  0.00    -0.205 NA
ATOM     17  C   UNL     1      33.345 -11.383 -23.101  0.00  0.00    +0.002 C 
ATOM     18  C   UNL     1      32.065 -11.463 -22.278  0.00  0.00    +0.002 C 
ATOM     19  C   UNL     1      33.738 -12.678 -23.801  0.00  0.00    +0.019 C 
ATOM     20  C   UNL     1      31.820 -12.752 -21.500  0.00  0.00    +0.019 C 
ATOM     21  C   UNL     1      34.513 -13.639 -22.894  0.00  0.00    +0.092 C 
ATOM     22  C   UNL     1      33.064 -13.413 -20.909  0.00  0.00    +0.092 C 
ENDBRANCH  11  16
ENDBRANCH   7  12
ENDBRANCH   1   7
BRANCH   2  23
ATOM     23  C   UNL     1      33.051 -22.479 -18.076  0.00  0.00    +0.048 C 
BRANCH  23  24
ATOM     24  C   UNL     1      33.816 -23.724 -17.607  0.00  0.00    +0.094 C 
BRANCH  24  26
ATOM     25  O   UNL     1      36.095 -23.283 -15.975  0.00  0.00    -0.268 OA
ATOM     26  N   UNL     1      33.863 -23.830 -16.174  0.00  0.00    -0.299 N 
ATOM     27  C   UNL     1      35.028 -23.596 -15.446  0.00  0.00    +0.267 C 
ATOM     28  H   UNL     1      33.043 -24.076 -15.689  0.00  0.00    +0.150 HD
BRANCH  27  31
ATOM     29  O   UNL     1      33.977 -24.029 -12.062  0.00  0.00    -0.358 OA
ATOM     30  N   UNL     1      33.717 -23.865 -13.419  0.00  0.00    -0.073 NA
ATOM     31  C   UNL     1      34.920 -23.776 -13.991  0.00  0.00    +0.176 C 
ATOM     32  C   UNL     1      35.966 -23.876 -13.057  0.00  0.00    +0.063 C 
ATOM     33  C   UNL     1      35.319 -24.033 -11.861  0.00  0.00    +0.155 C 
ATOM     34  C   UNL     1      35.773 -24.198 -10.474  0.00  0.00    +0.075 C 
ENDBRANCH  27  31
ENDBRANCH  24  26
ENDBRANCH  23  24
ENDBRANCH   2  23
TORSDOF 7
ENDMDL
MODEL 6
REMARK VINA RESULT:     -10.9      3.222      4.657
REMARK  Name = 32778
REMARK  7 active torsions:
REMARK  status: ('A' for Active; 'I' for Inactive)
REMARK    1  A    between atoms: C_1  and  S_7
REMARK    2  A    between atoms: C_2  and  C_23
REMARK    3  A    between atoms: S_7  and  N_12
REMARK    4  A    between atoms: N_11  and  N_16
REMARK    5  A    between atoms: C_23  and  C_24
REMARK    6  A    between atoms: C_24  and  N_26
REMARK    7  A    between atoms: C_27  and  C_31
REMARK                            x       y       z     vdW  Elec       q    Type
REMARK                         _______ _______ _______ _____ _____    ______ ____
ROOT
ATOM      1  C   UNL     1      36.059 -22.533 -16.426  0.00  0.00    +0.125 C 
ATOM      2  C   UNL     1      35.698 -21.224 -18.862  0.00  0.00    -0.020 C 
ATOM      3  C   UNL     1      34.920 -22.786 -17.191  0.00  0.00    +0.020 C 
ATOM      4  C   UNL     1      37.016 -21.626 -16.878  0.00  0.00    +0.020 C 
ATOM      5  C   UNL     1      34.740 -22.132 -18.410  0.00  0.00    -0.003 C 
ATOM      6  C   UNL     1      36.837 -20.972 -18.096  0.00  0.00    -0.003 C 
ENDROOT
BRANCH   1   7
ATOM      7  S   UNL     1      36.285 -23.362 -14.880  0.00  0.00    +0.077 S 
ATOM      8  O   UNL     1      37.436 -22.779 -14.219  0.00  0.00    -0.150 OA
ATOM      9  O   UNL     1      36.240 -24.786 -15.158  0.00  0.00    -0.150 OA
BRANCH   7  12
ATOM     10  O   UNL     1      33.327 -24.260 -15.172  0.00  0.00    -0.250 OA
ATOM     11  N   UNL     1      32.605 -22.856 -13.480  0.00  0.00    -0.230 N 
ATOM     12  N   UNL     1      34.862 -22.903 -14.053  0.00  0.00    -0.168 N 
ATOM     13  C   UNL     1      33.551 -23.416 -14.308  0.00  0.00    +0.333 C 
ATOM     14  H   UNL     1      32.864 -22.182 -12.810  0.00  0.00    +0.171 HD
ATOM     15  H   UNL     1      34.952 -22.229 -13.340  0.00  0.00    +0.178 HD
BRANCH  11  16
ATOM     16  N   UNL     1      31.281 -23.251 -13.602  0.00  0.00    -0.205 NA
ATOM     17  C   UNL     1      29.120 -25.164 -14.982  0.00  0.00    +0.002 C 
ATOM     18  C   UNL     1      28.443 -23.820 -15.220  0.00  0.00    +0.002 C 
ATOM     19  C   UNL     1      29.803 -25.305 -13.627  0.00  0.00    +0.019 C 
ATOM     20  C   UNL     1      29.157 -22.580 -14.693  0.00  0.00    +0.019 C 
ATOM     21  C   UNL     1      31.216 -24.713 -13.603  0.00  0.00    +0.092 C 
ATOM     22  C   UNL     1      30.682 -22.610 -14.777  0.00  0.00    +0.092 C 
ENDBRANCH  11  16
ENDBRANCH   7  12
ENDBRANCH   1   7
BRANCH   2  23
ATOM     23  C   UNL     1      35.506 -20.525 -20.165  0.00  0.00    +0.048 C 
BRANCH  23  24
ATOM     24  C   UNL     1      36.594 -19.488 -20.472  0.00  0.00    +0.094 C 
BRANCH  24  26
ATOM     25  O   UNL     1      35.731 -18.337 -22.917  0.00  0.00    -0.268 OA
ATOM     26  N   UNL     1      36.057 -18.165 -20.641  0.00  0.00    -0.299 N 
ATOM     27  C   UNL     1      35.655 -17.676 -21.882  0.00  0.00    +0.267 C 
ATOM     28  H   UNL     1      35.969 -17.584 -19.851  0.00  0.00    +0.150 HD
BRANCH  27  31
ATOM     29  O   UNL     1      34.407 -14.421 -21.113  0.00  0.00    -0.358 OA
ATOM     30  N   UNL     1      34.830 -15.694 -20.746  0.00  0.00    -0.073 NA
ATOM     31  C   UNL     1      35.158 -16.293 -21.893  0.00  0.00    +0.176 C 
ATOM     32  C   UNL     1      34.966 -15.457 -23.007  0.00  0.00    +0.063 C 
ATOM     33  C   UNL     1      34.493 -14.293 -22.462  0.00  0.00    +0.155 C 
ATOM     34  C   UNL     1      34.083 -13.000 -23.026  0.00  0.00    +0.075 C 
ENDBRANCH  27  31
ENDBRANCH  24  26
ENDBRANCH  23  24
ENDBRANCH   2  23
TORSDOF 7
ENDMDL
MODEL 7
REMARK VINA RESULT:     -10.9      3.409     11.877
REMARK  Name = 32778
REMARK  7 active torsions:
REMARK  status: ('A' for Active; 'I' for Inactive)
REMARK    1  A    between atoms: C_1  and  S_7
REMARK    2  A    between atoms: C_2  and  C_23
REMARK    3  A    between atoms: S_7  and  N_12
REMARK    4  A    between atoms: N_11  and  N_16
REMARK    5  A    between atoms: C_23  and  C_24
REMARK    6  A    between atoms: C_24  and  N_26
REMARK    7  A    between atoms: C_27  and  C_31
REMARK                            x       y       z     vdW  Elec       q    Type
REMARK                         _______ _______ _______ _____ _____    ______ ____
ROOT
ATOM      1  C   UNL     1      34.380 -16.339 -23.758  0.00  0.00    +0.125 C 
ATOM      2  C   UNL     1      35.329 -18.258 -21.970  0.00  0.00    -0.020 C 
ATOM      3  C   UNL     1      34.384 -17.687 -24.119  0.00  0.00    +0.020 C 
ATOM      4  C   UNL     1      34.851 -15.951 -22.504  0.00  0.00    +0.020 C 
ATOM      5  C   UNL     1      34.858 -18.646 -23.224  0.00  0.00    -0.003 C 
ATOM      6  C   UNL     1      35.325 -16.910 -21.609  0.00  0.00    -0.003 C 
ENDROOT
BRANCH   1   7
ATOM      7  S   UNL     1      33.781 -15.124 -24.894  0.00  0.00    +0.077 S 
ATOM      8  O   UNL     1      33.006 -15.803 -25.915  0.00  0.00    -0.150 OA
ATOM      9  O   UNL     1      34.915 -14.297 -25.260  0.00  0.00    -0.150 OA
BRANCH   7  12
ATOM     10  O   UNL     1      34.283 -12.766 -22.939  0.00  0.00    -0.250 OA
ATOM     11  N   UNL     1      32.053 -12.624 -22.340  0.00  0.00    -0.230 N 
ATOM     12  N   UNL     1      32.730 -14.227 -23.887  0.00  0.00    -0.168 N 
ATOM     13  C   UNL     1      33.121 -13.152 -23.028  0.00  0.00    +0.333 C 
ATOM     14  H   UNL     1      31.147 -12.990 -22.467  0.00  0.00    +0.171 HD
ATOM     15  H   UNL     1      31.775 -14.471 -23.899  0.00  0.00    +0.178 HD
BRANCH  11  16
ATOM     16  N   UNL     1      32.267 -11.569 -21.465  0.00  0.00    -0.205 NA
ATOM     17  C   UNL     1      31.184  -9.747 -19.069  0.00  0.00    +0.002 C 
ATOM     18  C   UNL     1      31.596  -8.650 -20.043  0.00  0.00    +0.002 C 
ATOM     19  C   UNL     1      32.127 -10.943 -19.018  0.00  0.00    +0.019 C 
ATOM     20  C   UNL     1      32.198  -9.091 -21.372  0.00  0.00    +0.019 C 
ATOM     21  C   UNL     1      31.853 -11.971 -20.120  0.00  0.00    +0.092 C 
ATOM     22  C   UNL     1      31.606 -10.364 -21.976  0.00  0.00    +0.092 C 
ENDBRANCH  11  16
ENDBRANCH   7  12
ENDBRANCH   1   7
BRANCH   2  23
ATOM     23  C   UNL     1      35.835 -19.284 -21.013  0.00  0.00    +0.048 C 
BRANCH  23  24
ATOM     24  C   UNL     1      34.866 -20.455 -20.800  0.00  0.00    +0.094 C 
BRANCH  24  26
ATOM     25  O   UNL     1      32.998 -22.093 -19.430  0.00  0.00    -0.268 OA
ATOM     26  N   UNL     1      35.090 -21.130 -19.551  0.00  0.00    -0.299 N 
ATOM     27  C   UNL     1      34.115 -21.919 -18.943  0.00  0.00    +0.267 C 
ATOM     28  H   UNL     1      35.964 -21.032 -19.108  0.00  0.00    +0.150 HD
BRANCH  27  31
ATOM     29  O   UNL     1      35.757 -23.112 -16.007  0.00  0.00    -0.358 OA
ATOM     30  N   UNL     1      35.757 -22.470 -17.240  0.00  0.00    -0.073 NA
ATOM     31  C   UNL     1      34.488 -22.516 -17.653  0.00  0.00    +0.176 C 
ATOM     32  C   UNL     1      33.649 -23.167 -16.732  0.00  0.00    +0.063 C 
ATOM     33  C   UNL     1      34.496 -23.523 -15.716  0.00  0.00    +0.155 C 
ATOM     34  C   UNL     1      34.313 -24.226 -14.440  0.00  0.00    +0.075 C 
ENDBRANCH  27  31
ENDBRANCH  24  26
ENDBRANCH  23  24
ENDBRANCH   2  23
TORSDOF 7
ENDMDL
MODEL 8
REMARK VINA RESULT:     -10.8      3.588     11.386
REMARK  Name = 32778
REMARK  7 active torsions:
REMARK  status: ('A' for Active; 'I' for Inactive)
REMARK    1  A    between atoms: C_1  and  S_7
REMARK    2  A    between atoms: C_2  and  C_23
REMARK    3  A    between atoms: S_7  and  N_12
REMARK    4  A    between atoms: N_11  and  N_16
REMARK    5  A    between atoms: C_23  and  C_24
REMARK    6  A    between atoms: C_24  and  N_26
REMARK    7  A    between atoms: C_27  and  C_31
REMARK                            x       y       z     vdW  Elec       q    Type
REMARK                         _______ _______ _______ _____ _____    ______ ____
ROOT
ATOM      1  C   UNL     1      35.480 -19.796 -20.514  0.00  0.00    +0.125 C 
ATOM      2  C   UNL     1      34.655 -21.976 -18.981  0.00  0.00    -0.020 C 
ATOM      3  C   UNL     1      34.124 -20.112 -20.424  0.00  0.00    +0.020 C 
ATOM      4  C   UNL     1      36.423 -20.570 -19.839  0.00  0.00    +0.020 C 
ATOM      5  C   UNL     1      33.712 -21.201 -19.657  0.00  0.00    -0.003 C 
ATOM      6  C   UNL     1      36.011 -21.660 -19.071  0.00  0.00    -0.003 C 
ENDROOT
BRANCH   1   7
ATOM      7  S   UNL     1      36.001 -18.416 -21.488  0.00  0.00    +0.077 S 
ATOM      8  O   UNL     1      35.553 -18.629 -22.850  0.00  0.00    -0.150 OA
ATOM      9  O   UNL     1      37.409 -18.208 -21.201  0.00  0.00    -0.150 OA
BRANCH   7  12
ATOM     10  O   UNL     1      35.336 -15.540 -22.448  0.00  0.00    -0.250 OA
ATOM     11  N   UNL     1      34.097 -15.060 -20.554  0.00  0.00    -0.230 N 
ATOM     12  N   UNL     1      35.090 -17.155 -20.782  0.00  0.00    -0.168 N 
ATOM     13  C   UNL     1      34.872 -15.864 -21.359  0.00  0.00    +0.333 C 
ATOM     14  H   UNL     1      33.762 -15.394 -19.691  0.00  0.00    +0.171 HD
ATOM     15  H   UNL     1      34.680 -17.331 -19.903  0.00  0.00    +0.178 HD
BRANCH  11  16
ATOM     16  N   UNL     1      33.794 -13.774 -20.975  0.00  0.00    -0.205 NA
ATOM     17  C   UNL     1      31.573 -11.629 -21.812  0.00  0.00    +0.002 C 
ATOM     18  C   UNL     1      32.504 -11.495 -23.010  0.00  0.00    +0.002 C 
ATOM     19  C   UNL     1      32.277 -11.812 -20.473  0.00  0.00    +0.019 C 
ATOM     20  C   UNL     1      33.753 -12.369 -23.020  0.00  0.00    +0.019 C 
ATOM     21  C   UNL     1      32.665 -13.268 -20.193  0.00  0.00    +0.092 C 
ATOM     22  C   UNL     1      33.586 -13.768 -22.427  0.00  0.00    +0.092 C 
ENDBRANCH  11  16
ENDBRANCH   7  12
ENDBRANCH   1   7
BRANCH   2  23
ATOM     23  C   UNL     1      34.214 -23.140 -18.160  0.00  0.00    +0.048 C 
BRANCH  23  24
ATOM     24  C   UNL     1      34.078 -22.820 -16.666  0.00  0.00    +0.094 C 
BRANCH  24  26
ATOM     25  O   UNL     1      31.403 -22.026 -17.178  0.00  0.00    -0.268 OA
ATOM     26  N   UNL     1      32.898 -23.401 -16.086  0.00  0.00    -0.299 N 
ATOM     27  C   UNL     1      31.616 -22.950 -16.393  0.00  0.00    +0.267 C 
ATOM     28  H   UNL     1      32.998 -24.146 -15.450  0.00  0.00    +0.150 HD
BRANCH  27  31
ATOM     29  O   UNL     1      28.513 -23.965 -14.947  0.00  0.00    -0.358 OA
ATOM     30  N   UNL     1      29.297 -23.080 -15.681  0.00  0.00    -0.073 NA
ATOM     31  C   UNL     1      30.515 -23.627 -15.693  0.00  0.00    +0.176 C 
ATOM     32  C   UNL     1      30.561 -24.845 -14.993  0.00  0.00    +0.063 C 
ATOM     33  C   UNL     1      29.279 -25.011 -14.543  0.00  0.00    +0.155 C 
ATOM     34  C   UNL     1      28.605 -26.048 -13.751  0.00  0.00    +0.075 C 
ENDBRANCH  27  31
ENDBRANCH  24  26
ENDBRANCH  23  24
ENDBRANCH   2  23
TORSDOF 7
ENDMDL
MODEL 9
REMARK VINA RESULT:     -10.8      2.798     12.496
REMARK  Name = 32778
REMARK  7 active torsions:
REMARK  status: ('A' for Active; 'I' for Inactive)
REMARK    1  A    between atoms: C_1  and  S_7
REMARK    2  A    between atoms: C_2  and  C_23
REMARK    3  A    between atoms: S_7  and  N_12
REMARK    4  A    between atoms: N_11  and  N_16
REMARK    5  A    between atoms: C_23  and  C_24
REMARK    6  A    between atoms: C_24  and  N_26
REMARK    7  A    between atoms: C_27  and  C_31
REMARK                            x       y       z     vdW  Elec       q    Type
REMARK                         _______ _______ _______ _____ _____    ______ ____
ROOT
ATOM      1  C   UNL     1      34.782 -17.413 -23.165  0.00  0.00    +0.125 C 
ATOM      2  C   UNL     1      35.500 -19.316 -21.256  0.00  0.00    -0.020 C 
ATOM      3  C   UNL     1      34.557 -18.767 -23.412  0.00  0.00    +0.020 C 
ATOM      4  C   UNL     1      35.366 -17.010 -21.964  0.00  0.00    +0.020 C 
ATOM      5  C   UNL     1      34.916 -19.719 -22.457  0.00  0.00    -0.003 C 
ATOM      6  C   UNL     1      35.724 -17.961 -21.009  0.00  0.00    -0.003 C 
ENDROOT
BRANCH   1   7
ATOM      7  S   UNL     1      34.328 -16.208 -24.376  0.00  0.00    +0.077 S 
ATOM      8  O   UNL     1      33.160 -16.695 -25.083  0.00  0.00    -0.150 OA
ATOM      9  O   UNL     1      35.537 -15.867 -25.102  0.00  0.00    -0.150 OA
BRANCH   7  12
ATOM     10  O   UNL     1      33.361 -13.332 -25.032  0.00  0.00    -0.250 OA
ATOM     11  N   UNL     1      33.159 -12.757 -22.800  0.00  0.00    -0.230 N 
ATOM     12  N   UNL     1      33.881 -14.895 -23.378  0.00  0.00    -0.168 N 
ATOM     13  C   UNL     1      33.451 -13.610 -23.839  0.00  0.00    +0.333 C 
ATOM     14  H   UNL     1      33.256 -13.056 -21.867  0.00  0.00    +0.171 HD
ATOM     15  H   UNL     1      33.923 -15.033 -22.403  0.00  0.00    +0.178 HD
BRANCH  11  16
ATOM     16  N   UNL     1      32.725 -11.471 -23.083  0.00  0.00    -0.205 NA
ATOM     17  C   UNL     1      33.023  -8.322 -22.602  0.00  0.00    +0.002 C 
ATOM     18  C   UNL     1      31.527  -8.465 -22.353  0.00  0.00    +0.002 C 
ATOM     19  C   UNL     1      33.567  -9.177 -23.740  0.00  0.00    +0.019 C 
ATOM     20  C   UNL     1      30.931  -9.862 -22.491  0.00  0.00    +0.019 C 
ATOM     21  C   UNL     1      33.888 -10.612 -23.312  0.00  0.00    +0.092 C 
ATOM     22  C   UNL     1      31.823 -11.011 -22.022  0.00  0.00    +0.092 C 
ENDBRANCH  11  16
ENDBRANCH   7  12
ENDBRANCH   1   7
BRANCH   2  23
ATOM     23  C   UNL     1      35.882 -20.334 -20.235  0.00  0.00    +0.048 C 
BRANCH  23  24
ATOM     24  C   UNL     1      34.771 -21.348 -19.934  0.00  0.00    +0.094 C 
BRANCH  24  26
ATOM     25  O   UNL     1      32.679 -22.394 -18.328  0.00  0.00    -0.268 OA
ATOM     26  N   UNL     1      34.922 -21.957 -18.640  0.00  0.00    -0.299 N 
ATOM     27  C   UNL     1      33.837 -22.447 -17.915  0.00  0.00    +0.267 C 
ATOM     28  H   UNL     1      35.824 -22.031 -18.252  0.00  0.00    +0.150 HD
BRANCH  27  31
ATOM     29  O   UNL     1      35.363 -23.769 -14.971  0.00  0.00    -0.358 OA
ATOM     30  N   UNL     1      35.424 -23.249 -16.259  0.00  0.00    -0.073 NA
ATOM     31  C   UNL     1      34.153 -23.010 -16.595  0.00  0.00    +0.176 C 
ATOM     32  C   UNL     1      33.256 -23.355 -15.569  0.00  0.00    +0.063 C 
ATOM     33  C   UNL     1      34.067 -23.826 -14.572  0.00  0.00    +0.155 C 
ATOM     34  C   UNL     1      33.818 -24.355 -13.224  0.00  0.00    +0.075 C 
ENDBRANCH  27  31
ENDBRANCH  24  26
ENDBRANCH  23  24
ENDBRANCH   2  23
TORSDOF 7
ENDMDL
