MODEL 1
REMARK VINA RESULT:     -11.3      0.000      0.000
REMARK  Name = 23725625
REMARK  4 active torsions:
REMARK  status: ('A' for Active; 'I' for Inactive)
REMARK    1  A    between atoms: C_2  and  C_17
REMARK    2  A    between atoms: C_4  and  C_21
REMARK    3  A    between atoms: C_12  and  C_18
REMARK    4  A    between atoms: C_21  and  C_25
REMARK                            x       y       z     vdW  Elec       q    Type
REMARK                         _______ _______ _______ _____ _____    ______ ____
ROOT
ATOM      1  F   UNL     1      31.260 -12.656 -21.168  0.00  0.00    -0.204 F 
ATOM      2  C   UNL     1      32.374 -10.721 -21.977  0.00  0.00    +0.081 C 
ATOM      3  C   UNL     1      32.759  -9.395 -21.794  0.00  0.00    +0.003 C 
ATOM      4  C   UNL     1      32.403  -8.724 -20.625  0.00  0.00    -0.016 C 
ATOM      5  C   UNL     1      31.636 -11.381 -20.998  0.00  0.00    +0.144 C 
ATOM      6  C   UNL     1      31.662  -9.381 -19.642  0.00  0.00    -0.002 C 
ATOM      7  C   UNL     1      31.279 -10.709 -19.828  0.00  0.00    +0.029 C 
ENDROOT
BRANCH   2  17
ATOM      8  O   UNL     1      35.177 -17.149 -23.923  0.00  0.00    -0.275 OA
ATOM      9  O   UNL     1      32.302 -10.964 -24.258  0.00  0.00    -0.270 OA
ATOM     10  N   UNL     1      34.203 -15.299 -22.898  0.00  0.00    -0.276 N 
ATOM     11  N   UNL     1      33.568 -12.551 -23.100  0.00  0.00    -0.273 N 
ATOM     12  C   UNL     1      34.945 -16.484 -22.917  0.00  0.00    +0.225 C 
ATOM     13  C   UNL     1      33.846 -14.548 -21.687  0.00  0.00    +0.115 C 
ATOM     14  C   UNL     1      33.639 -14.772 -24.144  0.00  0.00    +0.115 C 
ATOM     15  C   UNL     1      34.164 -13.064 -21.858  0.00  0.00    +0.115 C 
ATOM     16  C   UNL     1      33.956 -13.288 -24.303  0.00  0.00    +0.115 C 
ATOM     17  C   UNL     1      32.751 -11.424 -23.209  0.00  0.00    +0.251 C 
BRANCH  12  18
ATOM     18  C   UNL     1      35.496 -16.968 -21.615  0.00  0.00    +0.077 C 
ATOM     19  C   UNL     1      36.403 -18.150 -21.625  0.00  0.00    +0.010 C 
ATOM     20  C   UNL     1      35.009 -18.271 -21.083  0.00  0.00    +0.010 C 
ENDBRANCH  12  18
ENDBRANCH   2  17
BRANCH   4  21
ATOM     21  C   UNL     1      32.810  -7.303 -20.426  0.00  0.00    +0.074 C 
BRANCH  21  25
ATOM     22  O   UNL     1      30.413  -3.984 -24.096  0.00  0.00    -0.266 OA
ATOM     23  N   UNL     1      31.002  -5.950 -21.202  0.00  0.00    -0.174 NA
ATOM     24  N   UNL     1      30.421  -5.134 -22.112  0.00  0.00    -0.242 N 
ATOM     25  C   UNL     1      32.191  -6.404 -21.446  0.00  0.00    +0.083 A 
ATOM     26  C   UNL     1      32.949  -6.077 -22.671  0.00  0.00    +0.020 A 
ATOM     27  C   UNL     1      32.333  -5.235 -23.593  0.00  0.00    +0.059 A 
ATOM     28  C   UNL     1      34.231  -6.571 -22.927  0.00  0.00    +0.001 C 
ATOM     29  C   UNL     1      30.982  -4.727 -23.303  0.00  0.00    +0.273 A 
ATOM     30  C   UNL     1      32.988  -4.881 -24.776  0.00  0.00    +0.005 C 
ATOM     31  C   UNL     1      34.887  -6.217 -24.108  0.00  0.00    +0.000 C 
ATOM     32  C   UNL     1      34.268  -5.374 -25.030  0.00  0.00    +0.000 C 
ATOM     33  H   UNL     1      29.518  -4.802 -21.904  0.00  0.00    +0.192 HD
ENDBRANCH  21  25
ENDBRANCH   4  21
TORSDOF 4
ENDMDL
MODEL 2
REMARK VINA RESULT:     -11.0      4.529      8.182
REMARK  Name = 23725625
REMARK  4 active torsions:
REMARK  status: ('A' for Active; 'I' for Inactive)
REMARK    1  A    between atoms: C_2  and  C_17
REMARK    2  A    between atoms: C_4  and  C_21
REMARK    3  A    between atoms: C_12  and  C_18
REMARK    4  A    between atoms: C_21  and  C_25
REMARK                            x       y       z     vdW  Elec       q    Type
REMARK                         _______ _______ _______ _____ _____    ______ ____
ROOT
ATOM      1  F   UNL     1      35.089 -20.445 -23.116  0.00  0.00    -0.204 F 
ATOM      2  C   UNL     1      35.735 -18.266 -22.428  0.00  0.00    +0.081 C 
ATOM      3  C   UNL     1      35.644 -16.885 -22.579  0.00  0.00    +0.003 C 
ATOM      4  C   UNL     1      34.817 -16.348 -23.566  0.00  0.00    -0.016 C 
ATOM      5  C   UNL     1      35.005 -19.114 -23.255  0.00  0.00    +0.144 C 
ATOM      6  C   UNL     1      34.085 -17.195 -24.399  0.00  0.00    -0.002 C 
ATOM      7  C   UNL     1      34.178 -18.577 -24.243  0.00  0.00    +0.029 C 
ENDROOT
BRANCH   2  17
ATOM      8  O   UNL     1      35.300 -23.095 -17.001  0.00  0.00    -0.275 OA
ATOM      9  O   UNL     1      37.815 -18.656 -21.539  0.00  0.00    -0.270 OA
ATOM     10  N   UNL     1      35.050 -21.746 -18.882  0.00  0.00    -0.276 N 
ATOM     11  N   UNL     1      36.009 -19.514 -20.329  0.00  0.00    -0.273 N 
ATOM     12  C   UNL     1      34.584 -22.523 -17.817  0.00  0.00    +0.225 C 
ATOM     13  C   UNL     1      34.202 -21.134 -19.914  0.00  0.00    +0.115 C 
ATOM     14  C   UNL     1      36.491 -21.571 -19.079  0.00  0.00    +0.115 C 
ATOM     15  C   UNL     1      34.564 -19.662 -20.108  0.00  0.00    +0.115 C 
ATOM     16  C   UNL     1      36.843 -20.100 -19.279  0.00  0.00    +0.115 C 
ATOM     17  C   UNL     1      36.606 -18.827 -21.388  0.00  0.00    +0.251 C 
BRANCH  12  18
ATOM     18  C   UNL     1      33.103 -22.661 -17.667  0.00  0.00    +0.077 C 
ATOM     19  C   UNL     1      32.506 -22.462 -16.317  0.00  0.00    +0.010 C 
ATOM     20  C   UNL     1      32.575 -23.835 -16.919  0.00  0.00    +0.010 C 
ENDBRANCH  12  18
ENDBRANCH   2  17
BRANCH   4  21
ATOM     21  C   UNL     1      34.719 -14.869 -23.734  0.00  0.00    +0.074 C 
BRANCH  21  25
ATOM     22  O   UNL     1      32.051 -12.644 -19.472  0.00  0.00    -0.266 OA
ATOM     23  N   UNL     1      33.891 -14.905 -21.495  0.00  0.00    -0.174 NA
ATOM     24  N   UNL     1      33.233 -14.349 -20.452  0.00  0.00    -0.242 N 
ATOM     25  C   UNL     1      33.987 -14.232 -22.598  0.00  0.00    +0.083 A 
ATOM     26  C   UNL     1      33.412 -12.884 -22.778  0.00  0.00    +0.020 A 
ATOM     27  C   UNL     1      32.740 -12.329 -21.693  0.00  0.00    +0.059 A 
ATOM     28  C   UNL     1      33.521 -12.164 -23.972  0.00  0.00    +0.001 C 
ATOM     29  C   UNL     1      32.638 -13.106 -20.446  0.00  0.00    +0.273 A 
ATOM     30  C   UNL     1      32.169 -11.057 -21.788  0.00  0.00    +0.005 C 
ATOM     31  C   UNL     1      32.951 -10.892 -24.068  0.00  0.00    +0.000 C 
ATOM     32  C   UNL     1      32.278 -10.340 -22.979  0.00  0.00    +0.000 C 
ATOM     33  H   UNL     1      33.173 -14.879 -19.625  0.00  0.00    +0.192 HD
ENDBRANCH  21  25
ENDBRANCH   4  21
TORSDOF 4
ENDMDL
MODEL 3
REMARK VINA RESULT:     -10.8     10.528     14.468
REMARK  Name = 23725625
REMARK  4 active torsions:
REMARK  status: ('A' for Active; 'I' for Inactive)
REMARK    1  A    between atoms: C_2  and  C_17
REMARK    2  A    between atoms: C_4  and  C_21
REMARK    3  A    between atoms: C_12  and  C_18
REMARK    4  A    between atoms: C_21  and  C_25
REMARK                            x       y       z     vdW  Elec       q    Type
REMARK                         _______ _______ _______ _____ _____    ______ ____
ROOT
ATOM      1  F   UNL     1      36.154 -22.792 -12.600  0.00  0.00    -0.204 F 
ATOM      2  C   UNL     1      35.490 -23.498 -14.768  0.00  0.00    +0.081 C 
ATOM      3  C   UNL     1      35.601 -23.387 -16.151  0.00  0.00    +0.003 C 
ATOM      4  C   UNL     1      36.486 -22.462 -16.704  0.00  0.00    -0.016 C 
ATOM      5  C   UNL     1      36.257 -22.692 -13.933  0.00  0.00    +0.144 C 
ATOM      6  C   UNL     1      37.257 -21.650 -15.871  0.00  0.00    -0.002 C 
ATOM      7  C   UNL     1      37.143 -21.765 -14.486  0.00  0.00    +0.029 C 
ENDROOT
BRANCH   2  17
ATOM      8  O   UNL     1      28.324 -24.764 -14.666  0.00  0.00    -0.275 OA
ATOM      9  O   UNL     1      35.052 -25.523 -13.778  0.00  0.00    -0.270 OA
ATOM     10  N   UNL     1      30.517 -24.085 -15.053  0.00  0.00    -0.276 N 
ATOM     11  N   UNL     1      33.200 -24.149 -14.161  0.00  0.00    -0.273 N 
ATOM     12  C   UNL     1      29.130 -23.916 -15.041  0.00  0.00    +0.225 C 
ATOM     13  C   UNL     1      31.481 -23.111 -15.585  0.00  0.00    +0.115 C 
ATOM     14  C   UNL     1      31.102 -25.348 -14.594  0.00  0.00    +0.115 C 
ATOM     15  C   UNL     1      32.613 -22.872 -14.588  0.00  0.00    +0.115 C 
ATOM     16  C   UNL     1      32.236 -25.100 -13.605  0.00  0.00    +0.115 C 
ATOM     17  C   UNL     1      34.557 -24.474 -14.190  0.00  0.00    +0.251 C 
BRANCH  12  18
ATOM     18  C   UNL     1      28.595 -22.604 -15.518  0.00  0.00    +0.077 C 
ATOM     19  C   UNL     1      27.142 -22.326 -15.343  0.00  0.00    +0.010 C 
ATOM     20  C   UNL     1      27.701 -22.597 -16.709  0.00  0.00    +0.010 C 
ENDBRANCH  12  18
ENDBRANCH   2  17
BRANCH   4  21
ATOM     21  C   UNL     1      36.607 -22.337 -18.186  0.00  0.00    +0.074 C 
BRANCH  21  25
ATOM     22  O   UNL     1      31.990 -20.274 -20.346  0.00  0.00    -0.266 OA
ATOM     23  N   UNL     1      34.239 -22.298 -18.493  0.00  0.00    -0.174 NA
ATOM     24  N   UNL     1      33.109 -21.783 -19.030  0.00  0.00    -0.242 N 
ATOM     25  C   UNL     1      35.374 -21.749 -18.791  0.00  0.00    +0.083 A 
ATOM     26  C   UNL     1      35.500 -20.585 -19.693  0.00  0.00    +0.020 A 
ATOM     27  C   UNL     1      34.325 -20.070 -20.233  0.00  0.00    +0.059 A 
ATOM     28  C   UNL     1      36.728 -19.999 -20.009  0.00  0.00    +0.001 C 
ATOM     29  C   UNL     1      33.043 -20.705 -19.885  0.00  0.00    +0.273 A 
ATOM     30  C   UNL     1      34.365 -18.970 -21.094  0.00  0.00    +0.005 C 
ATOM     31  C   UNL     1      36.769 -18.899 -20.869  0.00  0.00    +0.000 C 
ATOM     32  C   UNL     1      35.591 -18.385 -21.409  0.00  0.00    +0.000 C 
ATOM     33  H   UNL     1      32.259 -22.217 -18.788  0.00  0.00    +0.192 HD
ENDBRANCH  21  25
ENDBRANCH   4  21
TORSDOF 4
ENDMDL
MODEL 4
REMARK VINA RESULT:     -10.8      5.858     13.415
REMARK  Name = 23725625
REMARK  4 active torsions:
REMARK  status: ('A' for Active; 'I' for Inactive)
REMARK    1  A    between atoms: C_2  and  C_17
REMARK    2  A    between atoms: C_4  and  C_21
REMARK    3  A    between atoms: C_12  and  C_18
REMARK    4  A    between atoms: C_21  and  C_25
REMARK                            x       y       z     vdW  Elec       q    Type
REMARK                         _______ _______ _______ _____ _____    ______ ____
ROOT
ATOM      1  F   UNL     1      37.720 -19.030 -20.675  0.00  0.00    -0.204 F 
ATOM      2  C   UNL     1      35.587 -20.054 -20.879  0.00  0.00    +0.081 C 
ATOM      3  C   UNL     1      34.616 -20.912 -20.369  0.00  0.00    +0.003 C 
ATOM      4  C   UNL     1      34.838 -21.572 -19.161  0.00  0.00    -0.016 C 
ATOM      5  C   UNL     1      36.779 -19.852 -20.190  0.00  0.00    +0.144 C 
ATOM      6  C   UNL     1      36.032 -21.374 -18.467  0.00  0.00    -0.002 C 
ATOM      7  C   UNL     1      37.002 -20.514 -18.981  0.00  0.00    +0.029 C 
ENDROOT
BRANCH   2  17
ATOM      8  O   UNL     1      34.097 -13.318 -23.196  0.00  0.00    -0.275 OA
ATOM      9  O   UNL     1      35.694 -19.957 -23.170  0.00  0.00    -0.270 OA
ATOM     10  N   UNL     1      34.693 -15.263 -22.064  0.00  0.00    -0.276 N 
ATOM     11  N   UNL     1      34.771 -18.090 -22.109  0.00  0.00    -0.273 N 
ATOM     12  C   UNL     1      34.199 -13.959 -22.154  0.00  0.00    +0.225 C 
ATOM     13  C   UNL     1      34.902 -16.002 -20.811  0.00  0.00    +0.115 C 
ATOM     14  C   UNL     1      35.134 -15.961 -23.275  0.00  0.00    +0.115 C 
ATOM     15  C   UNL     1      34.296 -17.401 -20.901  0.00  0.00    +0.115 C 
ATOM     16  C   UNL     1      34.530 -17.359 -23.354  0.00  0.00    +0.115 C 
ATOM     17  C   UNL     1      35.349 -19.360 -22.151  0.00  0.00    +0.251 C 
BRANCH  12  18
ATOM     18  C   UNL     1      33.762 -13.303 -20.883  0.00  0.00    +0.077 C 
ATOM     19  C   UNL     1      32.540 -13.817 -20.205  0.00  0.00    +0.010 C 
ATOM     20  C   UNL     1      32.516 -12.488 -20.901  0.00  0.00    +0.010 C 
ENDBRANCH  12  18
ENDBRANCH   2  17
BRANCH   4  21
ATOM     21  C   UNL     1      33.802 -22.494 -18.613  0.00  0.00    +0.074 C 
BRANCH  21  25
ATOM     22  O   UNL     1      34.871 -23.676 -13.350  0.00  0.00    -0.266 OA
ATOM     23  N   UNL     1      35.284 -22.980 -16.805  0.00  0.00    -0.174 NA
ATOM     24  N   UNL     1      35.536 -23.271 -15.508  0.00  0.00    -0.242 N 
ATOM     25  C   UNL     1      34.053 -22.814 -17.175  0.00  0.00    +0.083 A 
ATOM     26  C   UNL     1      32.906 -22.926 -16.252  0.00  0.00    +0.020 A 
ATOM     27  C   UNL     1      33.188 -23.225 -14.922  0.00  0.00    +0.059 A 
ATOM     28  C   UNL     1      31.581 -22.745 -16.659  0.00  0.00    +0.001 C 
ATOM     29  C   UNL     1      34.590 -23.411 -14.515  0.00  0.00    +0.273 A 
ATOM     30  C   UNL     1      32.153 -23.347 -13.989  0.00  0.00    +0.005 C 
ATOM     31  C   UNL     1      30.547 -22.866 -15.729  0.00  0.00    +0.000 C 
ATOM     32  C   UNL     1      30.833 -23.166 -14.397  0.00  0.00    +0.000 C 
ATOM     33  H   UNL     1      36.478 -23.392 -15.250  0.00  0.00    +0.192 HD
ENDBRANCH  21  25
ENDBRANCH   4  21
TORSDOF 4
ENDMDL
MODEL 5
REMARK VINA RESULT:     -10.5      1.778      2.439
REMARK  Name = 23725625
REMARK  4 active torsions:
REMARK  status: ('A' for Active; 'I' for Inactive)
REMARK    1  A    between atoms: C_2  and  C_17
REMARK    2  A    between atoms: C_4  and  C_21
REMARK    3  A    between atoms: C_12  and  C_18
REMARK    4  A    between atoms: C_21  and  C_25
REMARK                            x       y       z     vdW  Elec       q    Type
REMARK                         _______ _______ _______ _____ _____    ______ ____
ROOT
ATOM      1  F   UNL     1      30.070 -11.460 -22.233  0.00  0.00    -0.204 F 
ATOM      2  C   UNL     1      31.874 -10.398 -21.112  0.00  0.00    +0.081 C 
ATOM      3  C   UNL     1      32.700  -9.288 -20.953  0.00  0.00    +0.003 C 
ATOM      4  C   UNL     1      32.518  -8.167 -21.762  0.00  0.00    -0.016 C 
ATOM      5  C   UNL     1      30.868 -10.394 -22.073  0.00  0.00    +0.144 C 
ATOM      6  C   UNL     1      31.511  -8.159 -22.728  0.00  0.00    -0.002 C 
ATOM      7  C   UNL     1      30.686  -9.272 -22.883  0.00  0.00    +0.029 C 
ENDROOT
BRANCH   2  17
ATOM      8  O   UNL     1      35.230 -16.847 -21.438  0.00  0.00    -0.275 OA
ATOM      9  O   UNL     1      31.816 -11.431 -19.063  0.00  0.00    -0.270 OA
ATOM     10  N   UNL     1      34.420 -14.679 -21.694  0.00  0.00    -0.276 N 
ATOM     11  N   UNL     1      32.529 -12.752 -20.854  0.00  0.00    -0.273 N 
ATOM     12  C   UNL     1      34.954 -15.887 -22.152  0.00  0.00    +0.225 C 
ATOM     13  C   UNL     1      34.173 -13.496 -22.529  0.00  0.00    +0.115 C 
ATOM     14  C   UNL     1      34.152 -14.497 -20.265  0.00  0.00    +0.115 C 
ATOM     15  C   UNL     1      32.767 -12.951 -22.291  0.00  0.00    +0.115 C 
ATOM     16  C   UNL     1      32.748 -13.946 -20.037  0.00  0.00    +0.115 C 
ATOM     17  C   UNL     1      32.068 -11.577 -20.258  0.00  0.00    +0.251 C 
BRANCH  12  18
ATOM     18  C   UNL     1      35.202 -16.013 -23.621  0.00  0.00    +0.077 C 
ATOM     19  C   UNL     1      34.053 -15.831 -24.551  0.00  0.00    +0.010 C 
ATOM     20  C   UNL     1      34.642 -17.194 -24.334  0.00  0.00    +0.010 C 
ENDBRANCH  12  18
ENDBRANCH   2  17
BRANCH   4  21
ATOM     21  C   UNL     1      33.403  -6.977 -21.597  0.00  0.00    +0.074 C 
BRANCH  21  25
ATOM     22  O   UNL     1      30.764  -2.323 -22.868  0.00  0.00    -0.266 OA
ATOM     23  N   UNL     1      31.925  -5.169 -21.096  0.00  0.00    -0.174 NA
ATOM     24  N   UNL     1      31.280  -4.024 -21.418  0.00  0.00    -0.242 N 
ATOM     25  C   UNL     1      32.703  -5.713 -21.978  0.00  0.00    +0.083 A 
ATOM     26  C   UNL     1      32.923  -5.146 -23.325  0.00  0.00    +0.020 A 
ATOM     27  C   UNL     1      32.251  -3.967 -23.635  0.00  0.00    +0.059 A 
ATOM     28  C   UNL     1      33.764  -5.739 -24.270  0.00  0.00    +0.001 C 
ATOM     29  C   UNL     1      31.370  -3.361 -22.623  0.00  0.00    +0.273 A 
ATOM     30  C   UNL     1      32.410  -3.372 -24.890  0.00  0.00    +0.005 C 
ATOM     31  C   UNL     1      33.924  -5.145 -25.524  0.00  0.00    +0.000 C 
ATOM     32  C   UNL     1      33.249  -3.964 -25.833  0.00  0.00    +0.000 C 
ATOM     33  H   UNL     1      30.695  -3.630 -20.732  0.00  0.00    +0.192 HD
ENDBRANCH  21  25
ENDBRANCH   4  21
TORSDOF 4
ENDMDL
MODEL 6
REMARK VINA RESULT:     -10.5      2.746      9.378
REMARK  Name = 23725625
REMARK  4 active torsions:
REMARK  status: ('A' for Active; 'I' for Inactive)
REMARK    1  A    between atoms: C_2  and  C_17
REMARK    2  A    between atoms: C_4  and  C_21
REMARK    3  A    between atoms: C_12  and  C_18
REMARK    4  A    between atoms: C_21  and  C_25
REMARK                            x       y       z     vdW  Elec       q    Type
REMARK                         _______ _______ _______ _____ _____    ______ ____
ROOT
ATOM      1  F   UNL     1      33.441  -6.620 -21.220  0.00  0.00    -0.204 F 
ATOM      2  C   UNL     1      33.471  -8.547 -22.608  0.00  0.00    +0.081 C 
ATOM      3  C   UNL     1      33.010  -9.831 -22.885  0.00  0.00    +0.003 C 
ATOM      4  C   UNL     1      32.072 -10.429 -22.044  0.00  0.00    -0.016 C 
ATOM      5  C   UNL     1      33.000  -7.856 -21.495  0.00  0.00    +0.144 C 
ATOM      6  C   UNL     1      31.598  -9.740 -20.927  0.00  0.00    -0.002 C 
ATOM      7  C   UNL     1      32.062  -8.453 -20.653  0.00  0.00    +0.029 C 
ENDROOT
BRANCH   2  17
ATOM      8  O   UNL     1      33.770  -3.085 -27.408  0.00  0.00    -0.275 OA
ATOM      9  O   UNL     1      35.638  -8.186 -23.270  0.00  0.00    -0.270 OA
ATOM     10  N   UNL     1      33.284  -4.632 -25.736  0.00  0.00    -0.276 N 
ATOM     11  N   UNL     1      33.994  -7.077 -24.506  0.00  0.00    -0.273 N 
ATOM     12  C   UNL     1      32.955  -3.705 -26.730  0.00  0.00    +0.225 C 
ATOM     13  C   UNL     1      32.318  -5.308 -24.860  0.00  0.00    +0.115 C 
ATOM     14  C   UNL     1      34.692  -4.920 -25.446  0.00  0.00    +0.115 C 
ATOM     15  C   UNL     1      32.583  -6.812 -24.823  0.00  0.00    +0.115 C 
ATOM     16  C   UNL     1      34.946  -6.423 -25.404  0.00  0.00    +0.115 C 
ATOM     17  C   UNL     1      34.458  -7.921 -23.496  0.00  0.00    +0.251 C 
BRANCH  12  18
ATOM     18  C   UNL     1      31.502  -3.457 -26.981  0.00  0.00    +0.077 C 
ATOM     19  C   UNL     1      31.110  -2.760 -28.237  0.00  0.00    +0.010 C 
ATOM     20  C   UNL     1      31.004  -2.056 -26.916  0.00  0.00    +0.010 C 
ENDBRANCH  12  18
ENDBRANCH   2  17
BRANCH   4  21
ATOM     21  C   UNL     1      31.577 -11.805 -22.336  0.00  0.00    +0.074 C 
BRANCH  21  25
ATOM     22  O   UNL     1      34.925 -15.594 -20.175  0.00  0.00    -0.266 OA
ATOM     23  N   UNL     1      32.669 -12.876 -20.501  0.00  0.00    -0.174 NA
ATOM     24  N   UNL     1      33.494 -13.812 -19.980  0.00  0.00    -0.242 N 
ATOM     25  C   UNL     1      32.494 -12.849 -21.785  0.00  0.00    +0.083 A 
ATOM     26  C   UNL     1      33.152 -13.790 -22.713  0.00  0.00    +0.020 A 
ATOM     27  C   UNL     1      33.997 -14.746 -22.156  0.00  0.00    +0.059 A 
ATOM     28  C   UNL     1      32.958 -13.755 -24.097  0.00  0.00    +0.001 C 
ATOM     29  C   UNL     1      34.186 -14.764 -20.696  0.00  0.00    +0.273 A 
ATOM     30  C   UNL     1      34.655 -15.671 -22.971  0.00  0.00    +0.005 C 
ATOM     31  C   UNL     1      33.615 -14.679 -24.913  0.00  0.00    +0.000 C 
ATOM     32  C   UNL     1      34.460 -15.635 -24.351  0.00  0.00    +0.000 C 
ATOM     33  H   UNL     1      33.611 -13.812 -19.002  0.00  0.00    +0.192 HD
ENDBRANCH  21  25
ENDBRANCH   4  21
TORSDOF 4
ENDMDL
MODEL 7
REMARK VINA RESULT:     -10.4      2.699      8.611
REMARK  Name = 23725625
REMARK  4 active torsions:
REMARK  status: ('A' for Active; 'I' for Inactive)
REMARK    1  A    between atoms: C_2  and  C_17
REMARK    2  A    between atoms: C_4  and  C_21
REMARK    3  A    between atoms: C_12  and  C_18
REMARK    4  A    between atoms: C_21  and  C_25
REMARK                            x       y       z     vdW  Elec       q    Type
REMARK                         _______ _______ _______ _____ _____    ______ ____
ROOT
ATOM      1  F   UNL     1      33.061  -5.143 -20.472  0.00  0.00    -0.204 F 
ATOM      2  C   UNL     1      31.777  -6.555 -21.885  0.00  0.00    +0.081 C 
ATOM      3  C   UNL     1      31.247  -7.812 -22.161  0.00  0.00    +0.003 C 
ATOM      4  C   UNL     1      31.489  -8.874 -21.289  0.00  0.00    -0.016 C 
ATOM      5  C   UNL     1      32.546  -6.350 -20.744  0.00  0.00    +0.144 C 
ATOM      6  C   UNL     1      32.261  -8.674 -20.144  0.00  0.00    -0.002 C 
ATOM      7  C   UNL     1      32.789  -7.412 -19.871  0.00  0.00    +0.029 C 
ENDROOT
BRANCH   2  17
ATOM      8  O   UNL     1      34.205  -4.140 -28.306  0.00  0.00    -0.275 OA
ATOM      9  O   UNL     1      30.473  -4.818 -22.629  0.00  0.00    -0.270 OA
ATOM     10  N   UNL     1      33.637  -5.304 -26.372  0.00  0.00    -0.276 N 
ATOM     11  N   UNL     1      32.461  -5.179 -23.803  0.00  0.00    -0.273 N 
ATOM     12  C   UNL     1      34.457  -4.993 -27.460  0.00  0.00    +0.225 C 
ATOM     13  C   UNL     1      33.887  -6.384 -25.408  0.00  0.00    +0.115 C 
ATOM     14  C   UNL     1      32.373  -4.585 -26.183  0.00  0.00    +0.115 C 
ATOM     15  C   UNL     1      33.745  -5.874 -23.975  0.00  0.00    +0.115 C 
ATOM     16  C   UNL     1      32.236  -4.085 -24.748  0.00  0.00    +0.115 C 
ATOM     17  C   UNL     1      31.520  -5.440 -22.805  0.00  0.00    +0.251 C 
BRANCH  12  18
ATOM     18  C   UNL     1      35.734  -5.759 -27.596  0.00  0.00    +0.077 C 
ATOM     19  C   UNL     1      36.708  -5.331 -28.638  0.00  0.00    +0.010 C 
ATOM     20  C   UNL     1      35.927  -6.601 -28.809  0.00  0.00    +0.010 C 
ENDBRANCH  12  18
ENDBRANCH   2  17
BRANCH   4  21
ATOM     21  C   UNL     1      30.926 -10.224 -21.582  0.00  0.00    +0.074 C 
BRANCH  21  25
ATOM     22  O   UNL     1      34.669 -13.437 -24.011  0.00  0.00    -0.266 OA
ATOM     23  N   UNL     1      32.386 -10.794 -23.383  0.00  0.00    -0.174 NA
ATOM     24  N   UNL     1      33.307 -11.592 -23.972  0.00  0.00    -0.242 N 
ATOM     25  C   UNL     1      31.942 -11.121 -22.210  0.00  0.00    +0.083 A 
ATOM     26  C   UNL     1      32.390 -12.324 -21.479  0.00  0.00    +0.020 A 
ATOM     27  C   UNL     1      33.339 -13.129 -22.103  0.00  0.00    +0.059 A 
ATOM     28  C   UNL     1      31.906 -12.668 -20.214  0.00  0.00    +0.001 C 
ATOM     29  C   UNL     1      33.834 -12.746 -23.435  0.00  0.00    +0.273 A 
ATOM     30  C   UNL     1      33.810 -14.285 -21.472  0.00  0.00    +0.005 C 
ATOM     31  C   UNL     1      32.377 -13.822 -19.583  0.00  0.00    +0.000 C 
ATOM     32  C   UNL     1      33.327 -14.627 -20.210  0.00  0.00    +0.000 C 
ATOM     33  H   UNL     1      33.629 -11.323 -24.863  0.00  0.00    +0.192 HD
ENDBRANCH  21  25
ENDBRANCH   4  21
TORSDOF 4
ENDMDL
MODEL 8
REMARK VINA RESULT:     -10.4      1.650      2.113
REMARK  Name = 23725625
REMARK  4 active torsions:
REMARK  status: ('A' for Active; 'I' for Inactive)
REMARK    1  A    between atoms: C_2  and  C_17
REMARK    2  A    between atoms: C_4  and  C_21
REMARK    3  A    between atoms: C_12  and  C_18
REMARK    4  A    between atoms: C_21  and  C_25
REMARK                            x       y       z     vdW  Elec       q    Type
REMARK                         _______ _______ _______ _____ _____    ______ ____
ROOT
ATOM      1  F   UNL     1      31.199 -12.626 -21.674  0.00  0.00    -0.204 F 
ATOM      2  C   UNL     1      32.531 -10.823 -22.458  0.00  0.00    +0.081 C 
ATOM      3  C   UNL     1      33.011  -9.527 -22.292  0.00  0.00    +0.003 C 
ATOM      4  C   UNL     1      32.624  -8.782 -21.179  0.00  0.00    -0.016 C 
ATOM      5  C   UNL     1      31.667 -11.380 -21.520  0.00  0.00    +0.144 C 
ATOM      6  C   UNL     1      31.757  -9.334 -20.235  0.00  0.00    -0.002 C 
ATOM      7  C   UNL     1      31.279 -10.633 -20.406  0.00  0.00    +0.029 C 
ENDROOT
BRANCH   2  17
ATOM      8  O   UNL     1      35.214 -17.429 -23.917  0.00  0.00    -0.275 OA
ATOM      9  O   UNL     1      32.553 -11.193 -24.723  0.00  0.00    -0.270 OA
ATOM     10  N   UNL     1      34.254 -15.498 -23.040  0.00  0.00    -0.276 N 
ATOM     11  N   UNL     1      33.716 -12.748 -23.423  0.00  0.00    -0.273 N 
ATOM     12  C   UNL     1      34.959 -16.702 -22.961  0.00  0.00    +0.225 C 
ATOM     13  C   UNL     1      33.867 -14.669 -21.891  0.00  0.00    +0.115 C 
ATOM     14  C   UNL     1      33.764 -15.025 -24.338  0.00  0.00    +0.115 C 
ATOM     15  C   UNL     1      34.239 -13.207 -22.128  0.00  0.00    +0.115 C 
ATOM     16  C   UNL     1      34.134 -13.562 -24.565  0.00  0.00    +0.115 C 
ATOM     17  C   UNL     1      32.941 -11.606 -23.631  0.00  0.00    +0.251 C 
BRANCH  12  18
ATOM     18  C   UNL     1      35.435 -17.128 -21.609  0.00  0.00    +0.077 C 
ATOM     19  C   UNL     1      36.471 -18.196 -21.528  0.00  0.00    +0.010 C 
ATOM     20  C   UNL     1      35.055 -18.483 -21.121  0.00  0.00    +0.010 C 
ENDBRANCH  12  18
ENDBRANCH   2  17
BRANCH   4  21
ATOM     21  C   UNL     1      33.134  -7.391 -20.998  0.00  0.00    +0.074 C 
BRANCH  21  25
ATOM     22  O   UNL     1      35.473  -5.481 -25.593  0.00  0.00    -0.266 OA
ATOM     23  N   UNL     1      34.986  -7.111 -22.479  0.00  0.00    -0.174 NA
ATOM     24  N   UNL     1      35.552  -6.636 -23.613  0.00  0.00    -0.242 N 
ATOM     25  C   UNL     1      33.735  -6.856 -22.257  0.00  0.00    +0.083 A 
ATOM     26  C   UNL     1      32.890  -6.070 -23.179  0.00  0.00    +0.020 A 
ATOM     27  C   UNL     1      33.492  -5.592 -24.340  0.00  0.00    +0.059 A 
ATOM     28  C   UNL     1      31.542  -5.800 -22.931  0.00  0.00    +0.001 C 
ATOM     29  C   UNL     1      34.914  -5.889 -24.579  0.00  0.00    +0.273 A 
ATOM     30  C   UNL     1      32.756  -4.840 -25.261  0.00  0.00    +0.005 C 
ATOM     31  C   UNL     1      30.805  -5.050 -23.851  0.00  0.00    +0.000 C 
ATOM     32  C   UNL     1      31.411  -4.572 -25.013  0.00  0.00    +0.000 C 
ATOM     33  H   UNL     1      36.503  -6.843 -23.760  0.00  0.00    +0.192 HD
ENDBRANCH  21  25
ENDBRANCH   4  21
TORSDOF 4
ENDMDL
MODEL 9
REMARK VINA RESULT:     -10.2      2.317      3.162
REMARK  Name = 23725625
REMARK  4 active torsions:
REMARK  status: ('A' for Active; 'I' for Inactive)
REMARK    1  A    between atoms: C_2  and  C_17
REMARK    2  A    between atoms: C_4  and  C_21
REMARK    3  A    between atoms: C_12  and  C_18
REMARK    4  A    between atoms: C_21  and  C_25
REMARK                            x       y       z     vdW  Elec       q    Type
REMARK                         _______ _______ _______ _____ _____    ______ ____
ROOT
ATOM      1  F   UNL     1      30.007 -11.474 -22.236  0.00  0.00    -0.204 F 
ATOM      2  C   UNL     1      31.732 -10.301 -21.101  0.00  0.00    +0.081 C 
ATOM      3  C   UNL     1      32.480  -9.140 -20.931  0.00  0.00    +0.003 C 
ATOM      4  C   UNL     1      32.225  -8.027 -21.732  0.00  0.00    -0.016 C 
ATOM      5  C   UNL     1      30.730 -10.359 -22.066  0.00  0.00    +0.144 C 
ATOM      6  C   UNL     1      31.223  -8.080 -22.702  0.00  0.00    -0.002 C 
ATOM      7  C   UNL     1      30.475  -9.245 -22.868  0.00  0.00    +0.029 C 
ENDROOT
BRANCH   2  17
ATOM      8  O   UNL     1      35.244 -16.657 -21.583  0.00  0.00    -0.275 OA
ATOM      9  O   UNL     1      31.808 -11.328 -19.049  0.00  0.00    -0.270 OA
ATOM     10  N   UNL     1      34.363 -14.513 -21.803  0.00  0.00    -0.276 N 
ATOM     11  N   UNL     1      32.464 -12.636 -20.871  0.00  0.00    -0.273 N 
ATOM     12  C   UNL     1      34.905 -15.708 -22.285  0.00  0.00    +0.225 C 
ATOM     13  C   UNL     1      34.040 -13.340 -22.627  0.00  0.00    +0.115 C 
ATOM     14  C   UNL     1      34.164 -14.332 -20.362  0.00  0.00    +0.115 C 
ATOM     15  C   UNL     1      32.632 -12.834 -22.318  0.00  0.00    +0.115 C 
ATOM     16  C   UNL     1      32.759 -13.819 -20.063  0.00  0.00    +0.115 C 
ATOM     17  C   UNL     1      32.003 -11.471 -20.255  0.00  0.00    +0.251 C 
BRANCH  12  18
ATOM     18  C   UNL     1      35.080 -15.833 -23.764  0.00  0.00    +0.077 C 
ATOM     19  C   UNL     1      33.863 -15.835 -24.623  0.00  0.00    +0.010 C 
ATOM     20  C   UNL     1      34.650 -17.097 -24.422  0.00  0.00    +0.010 C 
ENDBRANCH  12  18
ENDBRANCH   2  17
BRANCH   4  21
ATOM     21  C   UNL     1      33.027  -6.781 -21.556  0.00  0.00    +0.074 C 
BRANCH  21  25
ATOM     22  O   UNL     1      35.607  -5.373 -26.203  0.00  0.00    -0.266 OA
ATOM     23  N   UNL     1      34.824  -6.943 -23.119  0.00  0.00    -0.174 NA
ATOM     24  N   UNL     1      35.451  -6.589 -24.265  0.00  0.00    -0.242 N 
ATOM     25  C   UNL     1      33.698  -6.373 -22.827  0.00  0.00    +0.083 A 
ATOM     26  C   UNL     1      33.060  -5.352 -23.682  0.00  0.00    +0.020 A 
ATOM     27  C   UNL     1      33.721  -5.004 -24.857  0.00  0.00    +0.059 A 
ATOM     28  C   UNL     1      31.844  -4.742 -23.360  0.00  0.00    +0.001 C 
ATOM     29  C   UNL     1      35.000  -5.659 -25.175  0.00  0.00    +0.273 A 
ATOM     30  C   UNL     1      33.178  -4.045 -25.717  0.00  0.00    +0.005 C 
ATOM     31  C   UNL     1      31.300  -3.784 -24.219  0.00  0.00    +0.000 C 
ATOM     32  C   UNL     1      31.965  -3.437 -25.394  0.00  0.00    +0.000 C 
ATOM     33  H   UNL     1      36.305  -7.036 -24.465  0.00  0.00    +0.192 HD
ENDBRANCH  21  25
ENDBRANCH   4  21
TORSDOF 4
ENDMDL
