MODEL 1
REMARK VINA RESULT:     -11.0      0.000      0.000
REMARK  Name = 11270783
REMARK  7 active torsions:
REMARK  status: ('A' for Active; 'I' for Inactive)
REMARK    1  A    between atoms: N_3  and  C_30
REMARK    2  A    between atoms: N_4  and  C_32
REMARK    3  A    between atoms: C_11  and  C_16
REMARK    4  A    between atoms: N_14  and  C_19
REMARK    5  A    between atoms: C_19  and  C_20
REMARK    6  A    between atoms: C_23  and  C_29
REMARK    7  A    between atoms: C_32  and  C_33
REMARK                            x       y       z     vdW  Elec       q    Type
REMARK                         _______ _______ _______ _____ _____    ______ ____
ROOT
ATOM      1  O   UNL     1      38.093 -22.610 -15.700  0.00  0.00    -0.265 OA
ATOM      2  O   UNL     1      34.267 -24.785 -14.061  0.00  0.00    -0.246 OA
ATOM      3  N   UNL     1      34.063 -23.509 -15.996  0.00  0.00    -0.269 N 
ATOM      4  N   UNL     1      36.191 -23.711 -14.856  0.00  0.00    -0.248 N 
ATOM      5  N   UNL     1      36.319 -21.598 -17.876  0.00  0.00    -0.309 N 
ATOM      6  N   UNL     1      34.150 -22.098 -18.011  0.00  0.00    -0.301 N 
ATOM      7  C   UNL     1      34.713 -22.697 -16.916  0.00  0.00    +0.132 A 
ATOM      8  C   UNL     1      36.046 -22.406 -16.809  0.00  0.00    +0.133 A 
ATOM      9  C   UNL     1      36.899 -22.887 -15.772  0.00  0.00    +0.280 A 
ATOM     10  C   UNL     1      34.792 -24.056 -14.911  0.00  0.00    +0.335 A 
ATOM     11  C   UNL     1      35.147 -21.442 -18.569  0.00  0.00    +0.172 C 
ATOM     12  H   UNL     1      37.191 -21.203 -18.103  0.00  0.00    +0.149 HD
ATOM     13  H   UNL     1      33.214 -22.147 -18.312  0.00  0.00    +0.150 HD
ENDROOT
BRANCH  11  16
ATOM     14  N   UNL     1      35.465 -19.341 -21.490  0.00  0.00    -0.206 N 
ATOM     15  N   UNL     1      34.156 -19.612 -21.634  0.00  0.00    -0.176 NA
ATOM     16  C   UNL     1      35.024 -20.632 -19.796  0.00  0.00    +0.051 C 
ATOM     17  C   UNL     1      36.032 -19.932 -20.399  0.00  0.00    +0.085 C 
ATOM     18  C   UNL     1      33.892 -20.404 -20.592  0.00  0.00    +0.118 C 
BRANCH  14  19
ATOM     19  C   UNL     1      36.130 -18.494 -22.450  0.00  0.00    +0.143 C 
BRANCH  19  20
ATOM     20  C   UNL     1      35.376 -17.211 -22.667  0.00  0.00    -0.000 C 
ATOM     21  C   UNL     1      35.125 -16.373 -21.590  0.00  0.00    +0.001 C 
ATOM     22  C   UNL     1      34.941 -16.881 -23.944  0.00  0.00    -0.003 C 
ATOM     23  C   UNL     1      34.426 -15.183 -21.791  0.00  0.00    +0.071 C 
ATOM     24  C   UNL     1      34.242 -15.691 -24.147  0.00  0.00    -0.000 C 
ATOM     25  C   UNL     1      33.985 -14.842 -23.071  0.00  0.00    +0.004 C 
BRANCH  23  29
ATOM     26  F   UNL     1      35.280 -13.780 -20.052  0.00  0.00    -0.166 F 
ATOM     27  F   UNL     1      33.415 -13.174 -20.977  0.00  0.00    -0.166 F 
ATOM     28  F   UNL     1      33.456 -14.889 -19.641  0.00  0.00    -0.166 F 
ATOM     29  C   UNL     1      34.151 -14.275 -20.641  0.00  0.00    +0.419 C 
ENDBRANCH  23  29
ENDBRANCH  19  20
ENDBRANCH  14  19
ENDBRANCH  11  16
BRANCH   3  30
ATOM     30  C   UNL     1      32.641 -23.795 -16.145  0.00  0.00    +0.112 C 
ATOM     31  C   UNL     1      31.797 -22.874 -15.289  0.00  0.00    +0.027 C 
ENDBRANCH   3  30
BRANCH   4  32
ATOM     32  C   UNL     1      36.939 -24.277 -13.739  0.00  0.00    +0.114 C 
BRANCH  32  33
ATOM     33  C   UNL     1      37.610 -25.598 -14.100  0.00  0.00    +0.025 C 
ATOM     34  C   UNL     1      39.074 -25.645 -13.688  0.00  0.00    +0.002 C 
ENDBRANCH  32  33
ENDBRANCH   4  32
TORSDOF 7
ENDMDL
MODEL 2
REMARK VINA RESULT:     -10.9      6.421     11.757
REMARK  Name = 11270783
REMARK  7 active torsions:
REMARK  status: ('A' for Active; 'I' for Inactive)
REMARK    1  A    between atoms: N_3  and  C_30
REMARK    2  A    between atoms: N_4  and  C_32
REMARK    3  A    between atoms: C_11  and  C_16
REMARK    4  A    between atoms: N_14  and  C_19
REMARK    5  A    between atoms: C_19  and  C_20
REMARK    6  A    between atoms: C_23  and  C_29
REMARK    7  A    between atoms: C_32  and  C_33
REMARK                            x       y       z     vdW  Elec       q    Type
REMARK                         _______ _______ _______ _____ _____    ______ ____
ROOT
ATOM      1  O   UNL     1      35.059  -9.957 -24.322  0.00  0.00    -0.265 OA
ATOM      2  O   UNL     1      31.003  -8.531 -22.434  0.00  0.00    -0.246 OA
ATOM      3  N   UNL     1      31.766 -10.667 -21.917  0.00  0.00    -0.269 N 
ATOM      4  N   UNL     1      33.029  -9.216 -23.389  0.00  0.00    -0.248 N 
ATOM      5  N   UNL     1      34.601 -12.507 -22.842  0.00  0.00    -0.309 N 
ATOM      6  N   UNL     1      32.817 -12.863 -21.552  0.00  0.00    -0.301 N 
ATOM      7  C   UNL     1      32.767 -11.612 -22.106  0.00  0.00    +0.132 A 
ATOM      8  C   UNL     1      33.851 -11.368 -22.903  0.00  0.00    +0.133 A 
ATOM      9  C   UNL     1      34.076 -10.150 -23.613  0.00  0.00    +0.280 A 
ATOM     10  C   UNL     1      31.862  -9.410 -22.564  0.00  0.00    +0.335 A 
ATOM     11  C   UNL     1      33.937 -13.378 -22.017  0.00  0.00    +0.172 C 
ATOM     12  H   UNL     1      35.455 -12.672 -23.302  0.00  0.00    +0.149 HD
ATOM     13  H   UNL     1      32.164 -13.283 -20.946  0.00  0.00    +0.150 HD
ENDROOT
BRANCH  11  16
ATOM     14  N   UNL     1      35.173 -16.767 -21.850  0.00  0.00    -0.206 N 
ATOM     15  N   UNL     1      35.078 -16.570 -20.524  0.00  0.00    -0.176 NA
ATOM     16  C   UNL     1      34.426 -14.731 -21.692  0.00  0.00    +0.051 C 
ATOM     17  C   UNL     1      34.793 -15.689 -22.596  0.00  0.00    +0.085 C 
ATOM     18  C   UNL     1      34.619 -15.319 -20.434  0.00  0.00    +0.118 C 
BRANCH  14  19
ATOM     19  C   UNL     1      35.647 -18.034 -22.354  0.00  0.00    +0.143 C 
BRANCH  19  20
ATOM     20  C   UNL     1      35.734 -19.062 -21.260  0.00  0.00    -0.000 C 
ATOM     21  C   UNL     1      34.605 -19.792 -20.914  0.00  0.00    +0.001 C 
ATOM     22  C   UNL     1      36.944 -19.270 -20.611  0.00  0.00    -0.003 C 
ATOM     23  C   UNL     1      34.686 -20.747 -19.901  0.00  0.00    +0.071 C 
ATOM     24  C   UNL     1      37.026 -20.224 -19.598  0.00  0.00    -0.000 C 
ATOM     25  C   UNL     1      35.898 -20.963 -19.242  0.00  0.00    +0.004 C 
BRANCH  23  29
ATOM     26  F   UNL     1      33.668 -22.888 -19.587  0.00  0.00    -0.166 F 
ATOM     27  F   UNL     1      33.049 -21.300 -18.247  0.00  0.00    -0.166 F 
ATOM     28  F   UNL     1      32.408 -21.277 -20.324  0.00  0.00    -0.166 F 
ATOM     29  C   UNL     1      33.480 -21.537 -19.521  0.00  0.00    +0.419 C 
ENDBRANCH  23  29
ENDBRANCH  19  20
ENDBRANCH  14  19
ENDBRANCH  11  16
BRANCH   3  30
ATOM     30  C   UNL     1      30.626 -10.967 -21.059  0.00  0.00    +0.112 C 
ATOM     31  C   UNL     1      30.870 -10.517 -19.634  0.00  0.00    +0.027 C 
ENDBRANCH   3  30
BRANCH   4  32
ATOM     32  C   UNL     1      33.126  -7.921 -24.054  0.00  0.00    +0.114 C 
BRANCH  32  33
ATOM     33  C   UNL     1      33.837  -6.881 -23.195  0.00  0.00    +0.025 C 
ATOM     34  C   UNL     1      35.280  -6.655 -23.623  0.00  0.00    +0.002 C 
ENDBRANCH  32  33
ENDBRANCH   4  32
TORSDOF 7
ENDMDL
MODEL 3
REMARK VINA RESULT:     -10.7      1.366      1.837
REMARK  Name = 11270783
REMARK  7 active torsions:
REMARK  status: ('A' for Active; 'I' for Inactive)
REMARK    1  A    between atoms: N_3  and  C_30
REMARK    2  A    between atoms: N_4  and  C_32
REMARK    3  A    between atoms: C_11  and  C_16
REMARK    4  A    between atoms: N_14  and  C_19
REMARK    5  A    between atoms: C_19  and  C_20
REMARK    6  A    between atoms: C_23  and  C_29
REMARK    7  A    between atoms: C_32  and  C_33
REMARK                            x       y       z     vdW  Elec       q    Type
REMARK                         _______ _______ _______ _____ _____    ______ ____
ROOT
ATOM      1  O   UNL     1      38.287 -22.505 -15.714  0.00  0.00    -0.265 OA
ATOM      2  O   UNL     1      34.565 -24.860 -14.087  0.00  0.00    -0.246 OA
ATOM      3  N   UNL     1      34.295 -23.562 -15.998  0.00  0.00    -0.269 N 
ATOM      4  N   UNL     1      36.438 -23.696 -14.876  0.00  0.00    -0.248 N 
ATOM      5  N   UNL     1      36.459 -21.530 -17.860  0.00  0.00    -0.309 N 
ATOM      6  N   UNL     1      34.311 -22.115 -17.989  0.00  0.00    -0.301 N 
ATOM      7  C   UNL     1      34.906 -22.709 -16.909  0.00  0.00    +0.132 A 
ATOM      8  C   UNL     1      36.226 -22.365 -16.806  0.00  0.00    +0.133 A 
ATOM      9  C   UNL     1      37.105 -22.828 -15.782  0.00  0.00    +0.280 A 
ATOM     10  C   UNL     1      35.053 -24.097 -14.927  0.00  0.00    +0.335 A 
ATOM     11  C   UNL     1      35.276 -21.409 -18.543  0.00  0.00    +0.172 C 
ATOM     12  H   UNL     1      37.312 -21.096 -18.087  0.00  0.00    +0.149 HD
ATOM     13  H   UNL     1      33.375 -22.197 -18.286  0.00  0.00    +0.150 HD
ENDROOT
BRANCH  11  16
ATOM     14  N   UNL     1      35.440 -19.150 -21.356  0.00  0.00    -0.206 N 
ATOM     15  N   UNL     1      34.241 -19.682 -21.652  0.00  0.00    -0.176 NA
ATOM     16  C   UNL     1      35.111 -20.585 -19.755  0.00  0.00    +0.051 C 
ATOM     17  C   UNL     1      36.004 -19.661 -20.224  0.00  0.00    +0.085 C 
ATOM     18  C   UNL     1      34.046 -20.561 -20.666  0.00  0.00    +0.118 C 
BRANCH  14  19
ATOM     19  C   UNL     1      36.005 -18.136 -22.213  0.00  0.00    +0.143 C 
BRANCH  19  20
ATOM     20  C   UNL     1      35.319 -16.811 -22.025  0.00  0.00    -0.000 C 
ATOM     21  C   UNL     1      34.859 -16.115 -23.135  0.00  0.00    +0.001 C 
ATOM     22  C   UNL     1      35.153 -16.302 -20.745  0.00  0.00    -0.003 C 
ATOM     23  C   UNL     1      34.221 -14.887 -22.961  0.00  0.00    +0.071 C 
ATOM     24  C   UNL     1      34.515 -15.074 -20.570  0.00  0.00    -0.000 C 
ATOM     25  C   UNL     1      34.049 -14.366 -21.677  0.00  0.00    +0.004 C 
BRANCH  23  29
ATOM     26  F   UNL     1      34.329 -12.919 -24.316  0.00  0.00    -0.166 F 
ATOM     27  F   UNL     1      33.902 -14.787 -25.329  0.00  0.00    -0.166 F 
ATOM     28  F   UNL     1      32.386 -13.865 -24.074  0.00  0.00    -0.166 F 
ATOM     29  C   UNL     1      33.722 -14.131 -24.145  0.00  0.00    +0.419 C 
ENDBRANCH  23  29
ENDBRANCH  19  20
ENDBRANCH  14  19
ENDBRANCH  11  16
BRANCH   3  30
ATOM     30  C   UNL     1      32.885 -23.903 -16.143  0.00  0.00    +0.112 C 
ATOM     31  C   UNL     1      32.005 -22.980 -15.326  0.00  0.00    +0.027 C 
ENDBRANCH   3  30
BRANCH   4  32
ATOM     32  C   UNL     1      37.217 -24.250 -13.774  0.00  0.00    +0.114 C 
BRANCH  32  33
ATOM     33  C   UNL     1      37.865 -25.582 -14.133  0.00  0.00    +0.025 C 
ATOM     34  C   UNL     1      39.382 -25.546 -14.021  0.00  0.00    +0.002 C 
ENDBRANCH  32  33
ENDBRANCH   4  32
TORSDOF 7
ENDMDL
MODEL 4
REMARK VINA RESULT:     -10.2      1.678      3.477
REMARK  Name = 11270783
REMARK  7 active torsions:
REMARK  status: ('A' for Active; 'I' for Inactive)
REMARK    1  A    between atoms: N_3  and  C_30
REMARK    2  A    between atoms: N_4  and  C_32
REMARK    3  A    between atoms: C_11  and  C_16
REMARK    4  A    between atoms: N_14  and  C_19
REMARK    5  A    between atoms: C_19  and  C_20
REMARK    6  A    between atoms: C_23  and  C_29
REMARK    7  A    between atoms: C_32  and  C_33
REMARK                            x       y       z     vdW  Elec       q    Type
REMARK                         _______ _______ _______ _____ _____    ______ ____
ROOT
ATOM      1  O   UNL     1      30.266 -23.062 -15.912  0.00  0.00    -0.265 OA
ATOM      2  O   UNL     1      33.862 -25.008 -13.602  0.00  0.00    -0.246 OA
ATOM      3  N   UNL     1      34.326 -23.766 -15.514  0.00  0.00    -0.269 N 
ATOM      4  N   UNL     1      32.050 -24.049 -14.734  0.00  0.00    -0.248 N 
ATOM      5  N   UNL     1      32.328 -22.010 -17.794  0.00  0.00    -0.309 N 
ATOM      6  N   UNL     1      34.510 -22.405 -17.556  0.00  0.00    -0.301 N 
ATOM      7  C   UNL     1      33.801 -23.008 -16.553  0.00  0.00    +0.132 A 
ATOM      8  C   UNL     1      32.458 -22.782 -16.676  0.00  0.00    +0.133 A 
ATOM      9  C   UNL     1      31.467 -23.281 -15.778  0.00  0.00    +0.280 A 
ATOM     10  C   UNL     1      33.453 -24.325 -14.548  0.00  0.00    +0.335 A 
ATOM     11  C   UNL     1      33.591 -21.811 -18.290  0.00  0.00    +0.172 C 
ATOM     12  H   UNL     1      31.489 -21.663 -18.174  0.00  0.00    +0.149 HD
ATOM     13  H   UNL     1      35.484 -22.414 -17.698  0.00  0.00    +0.150 HD
ENDROOT
BRANCH  11  16
ATOM     14  N   UNL     1      34.898 -19.884 -21.051  0.00  0.00    -0.206 N 
ATOM     15  N   UNL     1      33.616 -19.888 -21.456  0.00  0.00    -0.176 NA
ATOM     16  C   UNL     1      33.879 -21.021 -19.502  0.00  0.00    +0.051 C 
ATOM     17  C   UNL     1      35.107 -20.553 -19.880  0.00  0.00    +0.085 C 
ATOM     18  C   UNL     1      32.997 -20.587 -20.501  0.00  0.00    +0.118 C 
BRANCH  14  19
ATOM     19  C   UNL     1      35.898 -19.210 -21.844  0.00  0.00    +0.143 C 
BRANCH  19  20
ATOM     20  C   UNL     1      35.368 -17.927 -22.423  0.00  0.00    -0.000 C 
ATOM     21  C   UNL     1      35.159 -16.836 -21.590  0.00  0.00    +0.001 C 
ATOM     22  C   UNL     1      35.096 -17.850 -23.782  0.00  0.00    -0.003 C 
ATOM     23  C   UNL     1      34.669 -15.645 -22.126  0.00  0.00    +0.071 C 
ATOM     24  C   UNL     1      34.606 -16.659 -24.318  0.00  0.00    -0.000 C 
ATOM     25  C   UNL     1      34.392 -15.557 -23.491  0.00  0.00    +0.004 C 
BRANCH  23  29
ATOM     26  F   UNL     1      34.991 -14.601 -19.998  0.00  0.00    -0.166 F 
ATOM     27  F   UNL     1      34.958 -13.304 -21.735  0.00  0.00    -0.166 F 
ATOM     28  F   UNL     1      33.116 -14.217 -21.030  0.00  0.00    -0.166 F 
ATOM     29  C   UNL     1      34.441 -14.467 -21.241  0.00  0.00    +0.419 C 
ENDBRANCH  23  29
ENDBRANCH  19  20
ENDBRANCH  14  19
ENDBRANCH  11  16
BRANCH   3  30
ATOM     30  C   UNL     1      35.764 -23.985 -15.419  0.00  0.00    +0.112 C 
ATOM     31  C   UNL     1      36.443 -22.879 -14.639  0.00  0.00    +0.027 C 
ENDBRANCH   3  30
BRANCH   4  32
ATOM     32  C   UNL     1      31.154 -24.624 -13.737  0.00  0.00    +0.114 C 
BRANCH  32  33
ATOM     33  C   UNL     1      30.286 -25.739 -14.312  0.00  0.00    +0.025 C 
ATOM     34  C   UNL     1      28.798 -25.434 -14.214  0.00  0.00    +0.002 C 
ENDBRANCH  32  33
ENDBRANCH   4  32
TORSDOF 7
ENDMDL
MODEL 5
REMARK VINA RESULT:     -10.2      2.010      3.508
REMARK  Name = 11270783
REMARK  7 active torsions:
REMARK  status: ('A' for Active; 'I' for Inactive)
REMARK    1  A    between atoms: N_3  and  C_30
REMARK    2  A    between atoms: N_4  and  C_32
REMARK    3  A    between atoms: C_11  and  C_16
REMARK    4  A    between atoms: N_14  and  C_19
REMARK    5  A    between atoms: C_19  and  C_20
REMARK    6  A    between atoms: C_23  and  C_29
REMARK    7  A    between atoms: C_32  and  C_33
REMARK                            x       y       z     vdW  Elec       q    Type
REMARK                         _______ _______ _______ _____ _____    ______ ____
ROOT
ATOM      1  O   UNL     1      31.617 -22.290 -17.921  0.00  0.00    -0.265 OA
ATOM      2  O   UNL     1      35.495 -23.605 -15.624  0.00  0.00    -0.246 OA
ATOM      3  N   UNL     1      35.728 -22.183 -17.450  0.00  0.00    -0.269 N 
ATOM      4  N   UNL     1      33.544 -22.965 -16.751  0.00  0.00    -0.248 N 
ATOM      5  N   UNL     1      33.452 -20.733 -19.684  0.00  0.00    -0.309 N 
ATOM      6  N   UNL     1      35.665 -20.694 -19.408  0.00  0.00    -0.301 N 
ATOM      7  C   UNL     1      35.077 -21.486 -18.460  0.00  0.00    +0.132 A 
ATOM      8  C   UNL     1      33.717 -21.528 -18.607  0.00  0.00    +0.133 A 
ATOM      9  C   UNL     1      32.835 -22.270 -17.767  0.00  0.00    +0.280 A 
ATOM     10  C   UNL     1      34.971 -22.964 -16.541  0.00  0.00    +0.335 A 
ATOM     11  C   UNL     1      34.656 -20.254 -20.133  0.00  0.00    +0.172 C 
ATOM     12  H   UNL     1      32.566 -20.541 -20.067  0.00  0.00    +0.149 HD
ATOM     13  H   UNL     1      36.622 -20.497 -19.524  0.00  0.00    +0.150 HD
ENDROOT
BRANCH  11  16
ATOM     14  N   UNL     1      35.255 -17.638 -22.550  0.00  0.00    -0.206 N 
ATOM     15  N   UNL     1      34.711 -18.520 -23.406  0.00  0.00    -0.176 NA
ATOM     16  C   UNL     1      34.797 -19.351 -21.291  0.00  0.00    +0.051 C 
ATOM     17  C   UNL     1      35.329 -18.092 -21.266  0.00  0.00    +0.085 C 
ATOM     18  C   UNL     1      34.432 -19.568 -22.627  0.00  0.00    +0.118 C 
BRANCH  14  19
ATOM     19  C   UNL     1      35.697 -16.351 -23.032  0.00  0.00    +0.143 C 
BRANCH  19  20
ATOM     20  C   UNL     1      34.576 -15.348 -23.027  0.00  0.00    -0.000 C 
ATOM     21  C   UNL     1      34.066 -14.897 -21.817  0.00  0.00    +0.001 C 
ATOM     22  C   UNL     1      34.067 -14.886 -24.233  0.00  0.00    -0.003 C 
ATOM     23  C   UNL     1      33.027 -13.967 -21.812  0.00  0.00    +0.071 C 
ATOM     24  C   UNL     1      33.029 -13.955 -24.229  0.00  0.00    -0.000 C 
ATOM     25  C   UNL     1      32.508 -13.495 -23.020  0.00  0.00    +0.004 C 
BRANCH  23  29
ATOM     26  F   UNL     1      33.294 -12.600 -19.868  0.00  0.00    -0.166 F 
ATOM     27  F   UNL     1      31.283 -12.815 -20.650  0.00  0.00    -0.166 F 
ATOM     28  F   UNL     1      32.234 -14.483 -19.632  0.00  0.00    -0.166 F 
ATOM     29  C   UNL     1      32.472 -13.475 -20.519  0.00  0.00    +0.419 C 
ENDBRANCH  23  29
ENDBRANCH  19  20
ENDBRANCH  14  19
ENDBRANCH  11  16
BRANCH   3  30
ATOM     30  C   UNL     1      37.179 -22.113 -17.327  0.00  0.00    +0.112 C 
ATOM     31  C   UNL     1      37.596 -21.204 -16.190  0.00  0.00    +0.027 C 
ENDBRANCH   3  30
BRANCH   4  32
ATOM     32  C   UNL     1      32.768 -23.768 -15.813  0.00  0.00    +0.114 C 
BRANCH  32  33
ATOM     33  C   UNL     1      32.263 -22.951 -14.629  0.00  0.00    +0.025 C 
ATOM     34  C   UNL     1      30.767 -23.110 -14.401  0.00  0.00    +0.002 C 
ENDBRANCH  32  33
ENDBRANCH   4  32
TORSDOF 7
ENDMDL
MODEL 6
REMARK VINA RESULT:      -9.9      1.859      2.402
REMARK  Name = 11270783
REMARK  7 active torsions:
REMARK  status: ('A' for Active; 'I' for Inactive)
REMARK    1  A    between atoms: N_3  and  C_30
REMARK    2  A    between atoms: N_4  and  C_32
REMARK    3  A    between atoms: C_11  and  C_16
REMARK    4  A    between atoms: N_14  and  C_19
REMARK    5  A    between atoms: C_19  and  C_20
REMARK    6  A    between atoms: C_23  and  C_29
REMARK    7  A    between atoms: C_32  and  C_33
REMARK                            x       y       z     vdW  Elec       q    Type
REMARK                         _______ _______ _______ _____ _____    ______ ____
ROOT
ATOM      1  O   UNL     1      37.331 -23.240 -15.027  0.00  0.00    -0.265 OA
ATOM      2  O   UNL     1      33.336 -24.977 -13.274  0.00  0.00    -0.246 OA
ATOM      3  N   UNL     1      33.234 -23.782 -15.267  0.00  0.00    -0.269 N 
ATOM      4  N   UNL     1      35.343 -24.122 -14.126  0.00  0.00    -0.248 N 
ATOM      5  N   UNL     1      35.640 -22.176 -17.244  0.00  0.00    -0.309 N 
ATOM      6  N   UNL     1      33.434 -22.483 -17.348  0.00  0.00    -0.301 N 
ATOM      7  C   UNL     1      33.949 -23.077 -16.227  0.00  0.00    +0.132 A 
ATOM      8  C   UNL     1      35.302 -22.903 -16.139  0.00  0.00    +0.133 A 
ATOM      9  C   UNL     1      36.116 -23.410 -15.082  0.00  0.00    +0.280 A 
ATOM     10  C   UNL     1      33.918 -24.341 -14.159  0.00  0.00    +0.335 A 
ATOM     11  C   UNL     1      34.482 -21.947 -17.940  0.00  0.00    +0.172 C 
ATOM     12  H   UNL     1      36.543 -21.874 -17.493  0.00  0.00    +0.149 HD
ATOM     13  H   UNL     1      32.495 -22.460 -17.644  0.00  0.00    +0.150 HD
ENDROOT
BRANCH  11  16
ATOM     14  N   UNL     1      34.969 -20.040 -20.969  0.00  0.00    -0.206 N 
ATOM     15  N   UNL     1      33.635 -20.166 -21.077  0.00  0.00    -0.176 NA
ATOM     16  C   UNL     1      34.424 -21.189 -19.205  0.00  0.00    +0.051 C 
ATOM     17  C   UNL     1      35.491 -20.639 -19.859  0.00  0.00    +0.085 C 
ATOM     18  C   UNL     1      33.307 -20.872 -19.991  0.00  0.00    +0.118 C 
BRANCH  14  19
ATOM     19  C   UNL     1      35.705 -19.323 -21.982  0.00  0.00    +0.143 C 
BRANCH  19  20
ATOM     20  C   UNL     1      35.296 -17.876 -22.037  0.00  0.00    -0.000 C 
ATOM     21  C   UNL     1      34.877 -17.328 -23.241  0.00  0.00    +0.001 C 
ATOM     22  C   UNL     1      35.342 -17.108 -20.881  0.00  0.00    -0.003 C 
ATOM     23  C   UNL     1      34.498 -15.987 -23.293  0.00  0.00    +0.071 C 
ATOM     24  C   UNL     1      34.962 -15.767 -20.931  0.00  0.00    -0.000 C 
ATOM     25  C   UNL     1      34.540 -15.206 -22.136  0.00  0.00    +0.004 C 
BRANCH  23  29
ATOM     26  F   UNL     1      35.002 -15.403 -25.557  0.00  0.00    -0.166 F 
ATOM     27  F   UNL     1      32.967 -16.021 -25.130  0.00  0.00    -0.166 F 
ATOM     28  F   UNL     1      33.676 -14.081 -24.452  0.00  0.00    -0.166 F 
ATOM     29  C   UNL     1      34.046 -15.388 -24.581  0.00  0.00    +0.419 C 
ENDBRANCH  23  29
ENDBRANCH  19  20
ENDBRANCH  14  19
ENDBRANCH  11  16
BRANCH   3  30
ATOM     30  C   UNL     1      31.791 -23.944 -15.398  0.00  0.00    +0.112 C 
ATOM     31  C   UNL     1      31.042 -22.841 -14.680  0.00  0.00    +0.027 C 
ENDBRANCH   3  30
BRANCH   4  32
ATOM     32  C   UNL     1      36.046 -24.700 -12.985  0.00  0.00    +0.114 C 
BRANCH  32  33
ATOM     33  C   UNL     1      36.163 -23.722 -11.820  0.00  0.00    +0.025 C 
ATOM     34  C   UNL     1      36.009 -24.401 -10.467  0.00  0.00    +0.002 C 
ENDBRANCH  32  33
ENDBRANCH   4  32
TORSDOF 7
ENDMDL
MODEL 7
REMARK VINA RESULT:      -9.8      1.398      3.137
REMARK  Name = 11270783
REMARK  7 active torsions:
REMARK  status: ('A' for Active; 'I' for Inactive)
REMARK    1  A    between atoms: N_3  and  C_30
REMARK    2  A    between atoms: N_4  and  C_32
REMARK    3  A    between atoms: C_11  and  C_16
REMARK    4  A    between atoms: N_14  and  C_19
REMARK    5  A    between atoms: C_19  and  C_20
REMARK    6  A    between atoms: C_23  and  C_29
REMARK    7  A    between atoms: C_32  and  C_33
REMARK                            x       y       z     vdW  Elec       q    Type
REMARK                         _______ _______ _______ _____ _____    ______ ____
ROOT
ATOM      1  O   UNL     1      32.366 -23.089 -17.598  0.00  0.00    -0.265 OA
ATOM      2  O   UNL     1      35.673 -23.712 -14.322  0.00  0.00    -0.246 OA
ATOM      3  N   UNL     1      36.189 -22.394 -16.170  0.00  0.00    -0.269 N 
ATOM      4  N   UNL     1      34.005 -23.418 -15.941  0.00  0.00    -0.248 N 
ATOM      5  N   UNL     1      34.391 -21.417 -19.014  0.00  0.00    -0.309 N 
ATOM      6  N   UNL     1      36.444 -21.059 -18.221  0.00  0.00    -0.301 N 
ATOM      7  C   UNL     1      35.734 -21.860 -17.368  0.00  0.00    +0.132 A 
ATOM      8  C   UNL     1      34.469 -22.096 -17.832  0.00  0.00    +0.133 A 
ATOM      9  C   UNL     1      33.496 -22.895 -17.159  0.00  0.00    +0.280 A 
ATOM     10  C   UNL     1      35.324 -23.209 -15.397  0.00  0.00    +0.335 A 
ATOM     11  C   UNL     1      35.605 -20.809 -19.206  0.00  0.00    +0.172 C 
ATOM     12  H   UNL     1      33.613 -21.373 -19.614  0.00  0.00    +0.149 HD
ATOM     13  H   UNL     1      37.371 -20.743 -18.123  0.00  0.00    +0.150 HD
ENDROOT
BRANCH  11  16
ATOM     14  N   UNL     1      35.799 -18.902 -22.266  0.00  0.00    -0.206 N 
ATOM     15  N   UNL     1      37.044 -18.635 -21.837  0.00  0.00    -0.176 NA
ATOM     16  C   UNL     1      35.926 -19.974 -20.378  0.00  0.00    +0.051 C 
ATOM     17  C   UNL     1      35.086 -19.703 -21.423  0.00  0.00    +0.085 C 
ATOM     18  C   UNL     1      37.115 -19.296 -20.678  0.00  0.00    +0.118 C 
BRANCH  14  19
ATOM     19  C   UNL     1      35.338 -18.347 -23.516  0.00  0.00    +0.143 C 
BRANCH  19  20
ATOM     20  C   UNL     1      34.864 -16.929 -23.347  0.00  0.00    -0.000 C 
ATOM     21  C   UNL     1      34.857 -16.356 -22.083  0.00  0.00    +0.001 C 
ATOM     22  C   UNL     1      34.441 -16.212 -24.457  0.00  0.00    -0.003 C 
ATOM     23  C   UNL     1      34.419 -15.042 -21.925  0.00  0.00    +0.071 C 
ATOM     24  C   UNL     1      34.002 -14.898 -24.301  0.00  0.00    -0.000 C 
ATOM     25  C   UNL     1      33.991 -14.312 -23.036  0.00  0.00    +0.004 C 
BRANCH  23  29
ATOM     26  F   UNL     1      34.781 -15.267 -19.572  0.00  0.00    -0.166 F 
ATOM     27  F   UNL     1      35.246 -13.344 -20.458  0.00  0.00    -0.166 F 
ATOM     28  F   UNL     1      33.173 -13.954 -20.217  0.00  0.00    -0.166 F 
ATOM     29  C   UNL     1      34.407 -14.416 -20.572  0.00  0.00    +0.419 C 
ENDBRANCH  23  29
ENDBRANCH  19  20
ENDBRANCH  14  19
ENDBRANCH  11  16
BRANCH   3  30
ATOM     30  C   UNL     1      37.545 -22.120 -15.711  0.00  0.00    +0.112 C 
ATOM     31  C   UNL     1      38.317 -23.399 -15.466  0.00  0.00    +0.027 C 
ENDBRANCH   3  30
BRANCH   4  32
ATOM     32  C   UNL     1      33.117 -24.256 -15.142  0.00  0.00    +0.114 C 
BRANCH  32  33
ATOM     33  C   UNL     1      32.330 -23.451 -14.114  0.00  0.00    +0.025 C 
ATOM     34  C   UNL     1      30.847 -23.364 -14.447  0.00  0.00    +0.002 C 
ENDBRANCH  32  33
ENDBRANCH   4  32
TORSDOF 7
ENDMDL
MODEL 8
REMARK VINA RESULT:      -9.8      4.613      9.843
REMARK  Name = 11270783
REMARK  7 active torsions:
REMARK  status: ('A' for Active; 'I' for Inactive)
REMARK    1  A    between atoms: N_3  and  C_30
REMARK    2  A    between atoms: N_4  and  C_32
REMARK    3  A    between atoms: C_11  and  C_16
REMARK    4  A    between atoms: N_14  and  C_19
REMARK    5  A    between atoms: C_19  and  C_20
REMARK    6  A    between atoms: C_23  and  C_29
REMARK    7  A    between atoms: C_32  and  C_33
REMARK                            x       y       z     vdW  Elec       q    Type
REMARK                         _______ _______ _______ _____ _____    ______ ____
ROOT
ATOM      1  O   UNL     1      35.094 -15.414 -20.570  0.00  0.00    -0.265 OA
ATOM      2  O   UNL     1      34.458 -16.286 -25.140  0.00  0.00    -0.246 OA
ATOM      3  N   UNL     1      34.568 -18.094 -23.680  0.00  0.00    -0.269 N 
ATOM      4  N   UNL     1      34.776 -15.822 -22.866  0.00  0.00    -0.248 N 
ATOM      5  N   UNL     1      35.007 -18.376 -20.216  0.00  0.00    -0.309 N 
ATOM      6  N   UNL     1      34.722 -19.797 -21.910  0.00  0.00    -0.301 N 
ATOM      7  C   UNL     1      34.722 -18.505 -22.363  0.00  0.00    +0.132 A 
ATOM      8  C   UNL     1      34.895 -17.612 -21.342  0.00  0.00    +0.133 A 
ATOM      9  C   UNL     1      34.937 -16.195 -21.505  0.00  0.00    +0.280 A 
ATOM     10  C   UNL     1      34.590 -16.711 -23.987  0.00  0.00    +0.335 A 
ATOM     11  C   UNL     1      34.897 -19.685 -20.609  0.00  0.00    +0.172 C 
ATOM     12  H   UNL     1      35.141 -18.050 -19.297  0.00  0.00    +0.149 HD
ATOM     13  H   UNL     1      34.617 -20.623 -22.437  0.00  0.00    +0.150 HD
ENDROOT
BRANCH  11  16
ATOM     14  N   UNL     1      34.469 -22.598 -18.518  0.00  0.00    -0.206 N 
ATOM     15  N   UNL     1      35.730 -22.321 -18.144  0.00  0.00    -0.176 NA
ATOM     16  C   UNL     1      34.966 -20.827 -19.679  0.00  0.00    +0.051 C 
ATOM     17  C   UNL     1      33.965 -21.728 -19.440  0.00  0.00    +0.085 C 
ATOM     18  C   UNL     1      36.028 -21.234 -18.859  0.00  0.00    +0.118 C 
BRANCH  14  19
ATOM     19  C   UNL     1      33.786 -23.734 -17.947  0.00  0.00    +0.143 C 
BRANCH  19  20
ATOM     20  C   UNL     1      33.131 -23.381 -16.640  0.00  0.00    -0.000 C 
ATOM     21  C   UNL     1      31.748 -23.269 -16.576  0.00  0.00    +0.001 C 
ATOM     22  C   UNL     1      33.916 -23.174 -15.515  0.00  0.00    -0.003 C 
ATOM     23  C   UNL     1      31.140 -22.944 -15.364  0.00  0.00    +0.071 C 
ATOM     24  C   UNL     1      33.308 -22.849 -14.302  0.00  0.00    -0.000 C 
ATOM     25  C   UNL     1      31.921 -22.733 -14.226  0.00  0.00    +0.004 C 
BRANCH  23  29
ATOM     26  F   UNL     1      29.230 -21.966 -14.307  0.00  0.00    -0.166 F 
ATOM     27  F   UNL     1      29.081 -22.361 -16.433  0.00  0.00    -0.166 F 
ATOM     28  F   UNL     1      29.044 -24.011 -15.019  0.00  0.00    -0.166 F 
ATOM     29  C   UNL     1      29.656 -22.821 -15.283  0.00  0.00    +0.419 C 
ENDBRANCH  23  29
ENDBRANCH  19  20
ENDBRANCH  14  19
ENDBRANCH  11  16
BRANCH   3  30
ATOM     30  C   UNL     1      34.386 -19.079 -24.740  0.00  0.00    +0.112 C 
ATOM     31  C   UNL     1      32.918 -19.355 -24.994  0.00  0.00    +0.027 C 
ENDBRANCH   3  30
BRANCH   4  32
ATOM     32  C   UNL     1      34.797 -14.399 -23.184  0.00  0.00    +0.114 C 
BRANCH  32  33
ATOM     33  C   UNL     1      33.409 -13.771 -23.126  0.00  0.00    +0.025 C 
ATOM     34  C   UNL     1      33.339 -12.431 -23.845  0.00  0.00    +0.002 C 
ENDBRANCH  32  33
ENDBRANCH   4  32
TORSDOF 7
ENDMDL
MODEL 9
REMARK VINA RESULT:      -9.7      5.529     10.753
REMARK  Name = 11270783
REMARK  7 active torsions:
REMARK  status: ('A' for Active; 'I' for Inactive)
REMARK    1  A    between atoms: N_3  and  C_30
REMARK    2  A    between atoms: N_4  and  C_32
REMARK    3  A    between atoms: C_11  and  C_16
REMARK    4  A    between atoms: N_14  and  C_19
REMARK    5  A    between atoms: C_19  and  C_20
REMARK    6  A    between atoms: C_23  and  C_29
REMARK    7  A    between atoms: C_32  and  C_33
REMARK                            x       y       z     vdW  Elec       q    Type
REMARK                         _______ _______ _______ _____ _____    ______ ____
ROOT
ATOM      1  O   UNL     1      31.988 -12.887 -18.849  0.00  0.00    -0.265 OA
ATOM      2  O   UNL     1      31.867  -9.902 -22.472  0.00  0.00    -0.246 OA
ATOM      3  N   UNL     1      33.002 -11.915 -22.742  0.00  0.00    -0.269 N 
ATOM      4  N   UNL     1      31.912 -11.372 -20.649  0.00  0.00    -0.248 N 
ATOM      5  N   UNL     1      33.588 -14.656 -20.641  0.00  0.00    -0.309 N 
ATOM      6  N   UNL     1      34.120 -14.107 -22.736  0.00  0.00    -0.301 N 
ATOM      7  C   UNL     1      33.385 -13.112 -22.151  0.00  0.00    +0.132 A 
ATOM      8  C   UNL     1      33.045 -13.423 -20.863  0.00  0.00    +0.133 A 
ATOM      9  C   UNL     1      32.280 -12.582 -20.002  0.00  0.00    +0.280 A 
ATOM     10  C   UNL     1      32.236 -10.982 -21.999  0.00  0.00    +0.335 A 
ATOM     11  C   UNL     1      34.226 -15.026 -21.797  0.00  0.00    +0.172 C 
ATOM     12  H   UNL     1      33.533 -15.180 -19.810  0.00  0.00    +0.149 HD
ATOM     13  H   UNL     1      34.488 -14.131 -23.649  0.00  0.00    +0.150 HD
ENDROOT
BRANCH  11  16
ATOM     14  N   UNL     1      36.104 -18.103 -21.583  0.00  0.00    -0.206 N 
ATOM     15  N   UNL     1      35.829 -18.179 -22.897  0.00  0.00    -0.176 NA
ATOM     16  C   UNL     1      34.943 -16.304 -21.964  0.00  0.00    +0.051 C 
ATOM     17  C   UNL     1      35.593 -16.993 -20.977  0.00  0.00    +0.085 C 
ATOM     18  C   UNL     1      35.116 -17.073 -23.123  0.00  0.00    +0.118 C 
BRANCH  14  19
ATOM     19  C   UNL     1      36.875 -19.147 -20.951  0.00  0.00    +0.143 C 
BRANCH  19  20
ATOM     20  C   UNL     1      36.003 -20.050 -20.123  0.00  0.00    -0.000 C 
ATOM     21  C   UNL     1      36.519 -20.635 -18.975  0.00  0.00    +0.001 C 
ATOM     22  C   UNL     1      34.693 -20.285 -20.516  0.00  0.00    -0.003 C 
ATOM     23  C   UNL     1      35.711 -21.472 -18.206  0.00  0.00    +0.071 C 
ATOM     24  C   UNL     1      33.883 -21.121 -19.748  0.00  0.00    -0.000 C 
ATOM     25  C   UNL     1      34.392 -21.715 -18.593  0.00  0.00    +0.004 C 
BRANCH  23  29
ATOM     26  F   UNL     1      35.543 -23.196 -16.557  0.00  0.00    -0.166 F 
ATOM     27  F   UNL     1      37.539 -22.548 -17.102  0.00  0.00    -0.166 F 
ATOM     28  F   UNL     1      36.269 -21.253 -15.905  0.00  0.00    -0.166 F 
ATOM     29  C   UNL     1      36.254 -22.105 -16.971  0.00  0.00    +0.419 C 
ENDBRANCH  23  29
ENDBRANCH  19  20
ENDBRANCH  14  19
ENDBRANCH  11  16
BRANCH   3  30
ATOM     30  C   UNL     1      33.385 -11.619 -24.118  0.00  0.00    +0.112 C 
ATOM     31  C   UNL     1      34.687 -10.849 -24.178  0.00  0.00    +0.027 C 
ENDBRANCH   3  30
BRANCH   4  32
ATOM     32  C   UNL     1      31.122 -10.411 -19.886  0.00  0.00    +0.114 C 
BRANCH  32  33
ATOM     33  C   UNL     1      31.988  -9.520 -19.002  0.00  0.00    +0.025 C 
ATOM     34  C   UNL     1      32.168  -8.122 -19.576  0.00  0.00    +0.002 C 
ENDBRANCH  32  33
ENDBRANCH   4  32
TORSDOF 7
ENDMDL
