MODEL 1
REMARK VINA RESULT:     -10.9      0.000      0.000
REMARK  Name = 1944
REMARK  8 active torsions:
REMARK  status: ('A' for Active; 'I' for Inactive)
REMARK    1  A    between atoms: C_1  and  S_21
REMARK    2  A    between atoms: C_4  and  N_10
REMARK    3  A    between atoms: C_11  and  C_13
REMARK    4  A    between atoms: C_13  and  C_14
REMARK    5  A    between atoms: S_21  and  N_24
REMARK    6  A    between atoms: N_24  and  C_26
REMARK    7  A    between atoms: C_26  and  C_28
REMARK    8  A    between atoms: C_28  and  O_29
REMARK                            x       y       z     vdW  Elec       q    Type
REMARK                         _______ _______ _______ _____ _____    ______ ____
ROOT
ATOM      1  C   UNL     1      35.183 -22.833 -16.309  0.00  0.00    +0.114 C 
ATOM      2  C   UNL     1      34.099 -22.812 -17.187  0.00  0.00    -0.002 C 
ATOM      3  C   UNL     1      36.388 -22.234 -16.674  0.00  0.00    -0.002 C 
ATOM      4  C   UNL     1      35.424 -21.601 -18.777  0.00  0.00    +0.050 C 
ATOM      5  C   UNL     1      34.221 -22.191 -18.430  0.00  0.00    +0.012 C 
ATOM      6  C   UNL     1      36.511 -21.614 -17.917  0.00  0.00    +0.012 C 
ATOM      7  C   UNL     1      32.792 -23.442 -16.829  0.00  0.00    +0.032 C 
ATOM      8  C   UNL     1      37.570 -22.238 -15.760  0.00  0.00    +0.032 C 
ENDROOT
BRANCH   4  10
ATOM      9  O   UNL     1      33.526 -19.796 -20.242  0.00  0.00    -0.274 OA
ATOM     10  N   UNL     1      35.549 -20.971 -20.038  0.00  0.00    -0.284 N 
ATOM     11  C   UNL     1      34.625 -20.139 -20.666  0.00  0.00    +0.231 C 
ATOM     12  H   UNL     1      36.385 -21.140 -20.529  0.00  0.00    +0.155 HD
BRANCH  11  13
ATOM     13  C   UNL     1      35.149 -19.667 -22.019  0.00  0.00    +0.111 C 
BRANCH  13  14
ATOM     14  C   UNL     1      35.040 -18.193 -22.229  0.00  0.00    -0.017 C 
ATOM     15  C   UNL     1      34.679 -17.669 -23.472  0.00  0.00    -0.025 C 
ATOM     16  C   UNL     1      35.306 -17.336 -21.162  0.00  0.00    -0.004 C 
ATOM     17  C   UNL     1      34.584 -16.288 -23.645  0.00  0.00    -0.005 C 
ATOM     18  C   UNL     1      34.389 -18.568 -24.629  0.00  0.00    +0.031 C 
ATOM     19  C   UNL     1      35.211 -15.955 -21.336  0.00  0.00    -0.000 C 
ATOM     20  C   UNL     1      34.851 -15.432 -22.578  0.00  0.00    -0.000 C 
ENDBRANCH  13  14
ENDBRANCH  11  13
ENDBRANCH   4  10
BRANCH   1  21
ATOM     21  S   UNL     1      35.029 -23.614 -14.744  0.00  0.00    +0.060 S 
ATOM     22  O   UNL     1      35.891 -22.923 -13.799  0.00  0.00    -0.153 OA
ATOM     23  O   UNL     1      33.609 -23.746 -14.460  0.00  0.00    -0.153 OA
BRANCH  21  24
ATOM     24  N   UNL     1      35.676 -25.164 -15.051  0.00  0.00    -0.168 NA
ATOM     25  H   UNL     1      36.258 -25.081 -15.886  0.00  0.00    +0.149 HD
BRANCH  24  26
ATOM     26  C   UNL     1      36.493 -25.835 -14.031  0.00  0.00    +0.200 C 
BRANCH  26  28
ATOM     27  O   UNL     1      38.416 -27.300 -14.297  0.00  0.00    -0.249 OA
ATOM     28  C   UNL     1      37.348 -26.866 -14.703  0.00  0.00    +0.332 C 
BRANCH  28  29
ATOM     29  O   UNL     1      36.764 -27.269 -15.861  0.00  0.00    -0.479 OA
ATOM     30  H   UNL     1      35.859 -27.509 -15.870  0.00  0.00    +0.295 HD
ENDBRANCH  28  29
ENDBRANCH  26  28
ENDBRANCH  24  26
ENDBRANCH  21  24
ENDBRANCH   1  21
TORSDOF 8
ENDMDL
MODEL 2
REMARK VINA RESULT:     -10.7      0.276      1.775
REMARK  Name = 1944
REMARK  8 active torsions:
REMARK  status: ('A' for Active; 'I' for Inactive)
REMARK    1  A    between atoms: C_1  and  S_21
REMARK    2  A    between atoms: C_4  and  N_10
REMARK    3  A    between atoms: C_11  and  C_13
REMARK    4  A    between atoms: C_13  and  C_14
REMARK    5  A    between atoms: S_21  and  N_24
REMARK    6  A    between atoms: N_24  and  C_26
REMARK    7  A    between atoms: C_26  and  C_28
REMARK    8  A    between atoms: C_28  and  O_29
REMARK                            x       y       z     vdW  Elec       q    Type
REMARK                         _______ _______ _______ _____ _____    ______ ____
ROOT
ATOM      1  C   UNL     1      35.157 -22.800 -16.203  0.00  0.00    +0.114 C 
ATOM      2  C   UNL     1      36.367 -22.233 -16.605  0.00  0.00    -0.002 C 
ATOM      3  C   UNL     1      34.063 -22.795 -17.068  0.00  0.00    -0.002 C 
ATOM      4  C   UNL     1      35.387 -21.664 -18.718  0.00  0.00    +0.050 C 
ATOM      5  C   UNL     1      36.482 -21.661 -17.871  0.00  0.00    +0.012 C 
ATOM      6  C   UNL     1      34.178 -22.223 -18.334  0.00  0.00    +0.012 C 
ATOM      7  C   UNL     1      37.561 -22.221 -15.705  0.00  0.00    +0.032 C 
ATOM      8  C   UNL     1      32.752 -23.391 -16.672  0.00  0.00    +0.032 C 
ENDROOT
BRANCH   4  10
ATOM      9  O   UNL     1      33.503 -19.872 -20.216  0.00  0.00    -0.274 OA
ATOM     10  N   UNL     1      35.503 -21.084 -20.004  0.00  0.00    -0.284 N 
ATOM     11  C   UNL     1      34.586 -20.255 -20.646  0.00  0.00    +0.231 C 
ATOM     12  H   UNL     1      36.325 -21.290 -20.502  0.00  0.00    +0.155 HD
BRANCH  11  13
ATOM     13  C   UNL     1      35.096 -19.846 -22.025  0.00  0.00    +0.111 C 
BRANCH  13  14
ATOM     14  C   UNL     1      35.032 -18.376 -22.281  0.00  0.00    -0.017 C 
ATOM     15  C   UNL     1      34.633 -17.880 -23.523  0.00  0.00    -0.025 C 
ATOM     16  C   UNL     1      35.380 -17.495 -21.257  0.00  0.00    -0.004 C 
ATOM     17  C   UNL     1      34.582 -16.503 -23.741  0.00  0.00    -0.005 C 
ATOM     18  C   UNL     1      34.255 -18.805 -24.634  0.00  0.00    +0.031 C 
ATOM     19  C   UNL     1      35.328 -16.118 -21.476  0.00  0.00    -0.000 C 
ATOM     20  C   UNL     1      34.931 -15.623 -22.718  0.00  0.00    -0.000 C 
ENDBRANCH  13  14
ENDBRANCH  11  13
ENDBRANCH   4  10
BRANCH   1  21
ATOM     21  S   UNL     1      35.012 -23.519 -14.608  0.00  0.00    +0.060 S 
ATOM     22  O   UNL     1      36.034 -22.944 -13.749  0.00  0.00    -0.153 OA
ATOM     23  O   UNL     1      33.613 -23.436 -14.219  0.00  0.00    -0.153 OA
BRANCH  21  24
ATOM     24  N   UNL     1      35.403 -25.153 -14.914  0.00  0.00    -0.168 NA
ATOM     25  H   UNL     1      35.689 -25.209 -15.892  0.00  0.00    +0.149 HD
BRANCH  24  26
ATOM     26  C   UNL     1      36.450 -25.818 -14.126  0.00  0.00    +0.200 C 
BRANCH  26  28
ATOM     27  O   UNL     1      36.768 -27.544 -15.810  0.00  0.00    -0.249 OA
ATOM     28  C   UNL     1      37.229 -26.722 -15.032  0.00  0.00    +0.332 C 
BRANCH  28  29
ATOM     29  O   UNL     1      38.560 -26.504 -14.871  0.00  0.00    -0.479 OA
ATOM     30  H   UNL     1      39.002 -26.839 -14.115  0.00  0.00    +0.295 HD
ENDBRANCH  28  29
ENDBRANCH  26  28
ENDBRANCH  24  26
ENDBRANCH  21  24
ENDBRANCH   1  21
TORSDOF 8
ENDMDL
MODEL 3
REMARK VINA RESULT:     -10.1      6.321     11.450
REMARK  Name = 1944
REMARK  8 active torsions:
REMARK  status: ('A' for Active; 'I' for Inactive)
REMARK    1  A    between atoms: C_1  and  S_21
REMARK    2  A    between atoms: C_4  and  N_10
REMARK    3  A    between atoms: C_11  and  C_13
REMARK    4  A    between atoms: C_13  and  C_14
REMARK    5  A    between atoms: S_21  and  N_24
REMARK    6  A    between atoms: N_24  and  C_26
REMARK    7  A    between atoms: C_26  and  C_28
REMARK    8  A    between atoms: C_28  and  O_29
REMARK                            x       y       z     vdW  Elec       q    Type
REMARK                         _______ _______ _______ _____ _____    ______ ____
ROOT
ATOM      1  C   UNL     1      33.083 -12.944 -21.868  0.00  0.00    +0.114 C 
ATOM      2  C   UNL     1      33.038 -13.438 -20.564  0.00  0.00    -0.002 C 
ATOM      3  C   UNL     1      33.783 -13.640 -22.854  0.00  0.00    -0.002 C 
ATOM      4  C   UNL     1      34.384 -15.306 -21.236  0.00  0.00    +0.050 C 
ATOM      5  C   UNL     1      33.694 -14.627 -20.247  0.00  0.00    +0.012 C 
ATOM      6  C   UNL     1      34.438 -14.829 -22.537  0.00  0.00    +0.012 C 
ATOM      7  C   UNL     1      32.297 -12.721 -19.483  0.00  0.00    +0.032 C 
ATOM      8  C   UNL     1      33.853 -13.142 -24.261  0.00  0.00    +0.032 C 
ENDROOT
BRANCH   4  10
ATOM      9  O   UNL     1      35.068 -17.665 -22.961  0.00  0.00    -0.274 OA
ATOM     10  N   UNL     1      35.050 -16.513 -20.914  0.00  0.00    -0.284 N 
ATOM     11  C   UNL     1      35.339 -17.576 -21.767  0.00  0.00    +0.231 C 
ATOM     12  H   UNL     1      35.343 -16.613 -19.981  0.00  0.00    +0.155 HD
BRANCH  11  13
ATOM     13  C   UNL     1      36.070 -18.688 -21.022  0.00  0.00    +0.111 C 
BRANCH  13  14
ATOM     14  C   UNL     1      35.163 -19.712 -20.424  0.00  0.00    -0.017 C 
ATOM     15  C   UNL     1      35.667 -20.742 -19.628  0.00  0.00    -0.025 C 
ATOM     16  C   UNL     1      33.793 -19.629 -20.672  0.00  0.00    -0.004 C 
ATOM     17  C   UNL     1      34.800 -21.688 -19.081  0.00  0.00    -0.005 C 
ATOM     18  C   UNL     1      37.130 -20.849 -19.348  0.00  0.00    +0.031 C 
ATOM     19  C   UNL     1      32.927 -20.577 -20.125  0.00  0.00    -0.000 C 
ATOM     20  C   UNL     1      33.431 -21.606 -19.330  0.00  0.00    -0.000 C 
ENDBRANCH  13  14
ENDBRANCH  11  13
ENDBRANCH   4  10
BRANCH   1  21
ATOM     21  S   UNL     1      32.258 -11.448 -22.269  0.00  0.00    +0.060 S 
ATOM     22  O   UNL     1      33.024 -10.761 -23.296  0.00  0.00    -0.153 OA
ATOM     23  O   UNL     1      30.860 -11.771 -22.509  0.00  0.00    -0.153 OA
BRANCH  21  24
ATOM     24  N   UNL     1      32.377 -10.570 -20.810  0.00  0.00    -0.168 NA
ATOM     25  H   UNL     1      33.342 -10.661 -20.489  0.00  0.00    +0.149 HD
BRANCH  24  26
ATOM     26  C   UNL     1      32.057  -9.136 -20.786  0.00  0.00    +0.200 C 
BRANCH  26  28
ATOM     27  O   UNL     1      31.810  -8.913 -18.377  0.00  0.00    -0.249 OA
ATOM     28  C   UNL     1      32.362  -8.599 -19.421  0.00  0.00    +0.332 C 
BRANCH  28  29
ATOM     29  O   UNL     1      33.364  -7.685 -19.496  0.00  0.00    -0.479 OA
ATOM     30  H   UNL     1      33.959  -7.701 -20.220  0.00  0.00    +0.295 HD
ENDBRANCH  28  29
ENDBRANCH  26  28
ENDBRANCH  24  26
ENDBRANCH  21  24
ENDBRANCH   1  21
TORSDOF 8
ENDMDL
MODEL 4
REMARK VINA RESULT:     -10.1      1.684      3.038
REMARK  Name = 1944
REMARK  8 active torsions:
REMARK  status: ('A' for Active; 'I' for Inactive)
REMARK    1  A    between atoms: C_1  and  S_21
REMARK    2  A    between atoms: C_4  and  N_10
REMARK    3  A    between atoms: C_11  and  C_13
REMARK    4  A    between atoms: C_13  and  C_14
REMARK    5  A    between atoms: S_21  and  N_24
REMARK    6  A    between atoms: N_24  and  C_26
REMARK    7  A    between atoms: C_26  and  C_28
REMARK    8  A    between atoms: C_28  and  O_29
REMARK                            x       y       z     vdW  Elec       q    Type
REMARK                         _______ _______ _______ _____ _____    ______ ____
ROOT
ATOM      1  C   UNL     1      35.203 -22.835 -16.226  0.00  0.00    +0.114 C 
ATOM      2  C   UNL     1      36.407 -22.242 -16.608  0.00  0.00    -0.002 C 
ATOM      3  C   UNL     1      34.113 -22.823 -17.095  0.00  0.00    -0.002 C 
ATOM      4  C   UNL     1      35.427 -21.634 -18.711  0.00  0.00    +0.050 C 
ATOM      5  C   UNL     1      36.519 -21.637 -17.860  0.00  0.00    +0.012 C 
ATOM      6  C   UNL     1      34.224 -22.218 -18.347  0.00  0.00    +0.012 C 
ATOM      7  C   UNL     1      37.597 -22.237 -15.704  0.00  0.00    +0.032 C 
ATOM      8  C   UNL     1      32.808 -23.447 -16.720  0.00  0.00    +0.032 C 
ENDROOT
BRANCH   4  10
ATOM      9  O   UNL     1      33.517 -19.845 -20.180  0.00  0.00    -0.274 OA
ATOM     10  N   UNL     1      35.540 -21.020 -19.981  0.00  0.00    -0.284 N 
ATOM     11  C   UNL     1      34.611 -20.194 -20.611  0.00  0.00    +0.231 C 
ATOM     12  H   UNL     1      36.371 -21.197 -20.478  0.00  0.00    +0.155 HD
BRANCH  11  13
ATOM     13  C   UNL     1      35.123 -19.742 -21.975  0.00  0.00    +0.111 C 
BRANCH  13  14
ATOM     14  C   UNL     1      35.038 -18.267 -22.193  0.00  0.00    -0.017 C 
ATOM     15  C   UNL     1      34.680 -17.743 -23.436  0.00  0.00    -0.025 C 
ATOM     16  C   UNL     1      35.326 -17.409 -21.131  0.00  0.00    -0.004 C 
ATOM     17  C   UNL     1      34.609 -16.362 -23.617  0.00  0.00    -0.005 C 
ATOM     18  C   UNL     1      34.368 -18.643 -24.587  0.00  0.00    +0.031 C 
ATOM     19  C   UNL     1      35.255 -16.027 -21.313  0.00  0.00    -0.000 C 
ATOM     20  C   UNL     1      34.897 -15.504 -22.555  0.00  0.00    -0.000 C 
ENDBRANCH  13  14
ENDBRANCH  11  13
ENDBRANCH   4  10
BRANCH   1  21
ATOM     21  S   UNL     1      35.061 -23.596 -14.650  0.00  0.00    +0.060 S 
ATOM     22  O   UNL     1      35.147 -25.037 -14.826  0.00  0.00    -0.153 OA
ATOM     23  O   UNL     1      35.990 -22.923 -13.756  0.00  0.00    -0.153 OA
BRANCH  21  24
ATOM     24  N   UNL     1      33.467 -23.189 -14.197  0.00  0.00    -0.168 NA
ATOM     25  H   UNL     1      32.845 -23.629 -14.876  0.00  0.00    +0.149 HD
BRANCH  24  26
ATOM     26  C   UNL     1      32.965 -23.554 -12.865  0.00  0.00    +0.200 C 
BRANCH  26  28
ATOM     27  O   UNL     1      30.738 -24.509 -12.658  0.00  0.00    -0.249 OA
ATOM     28  C   UNL     1      31.901 -24.597 -13.022  0.00  0.00    +0.332 C 
BRANCH  28  29
ATOM     29  O   UNL     1      32.414 -25.691 -13.644  0.00  0.00    -0.479 OA
ATOM     30  H   UNL     1      33.342 -25.802 -13.708  0.00  0.00    +0.295 HD
ENDBRANCH  28  29
ENDBRANCH  26  28
ENDBRANCH  24  26
ENDBRANCH  21  24
ENDBRANCH   1  21
TORSDOF 8
ENDMDL
MODEL 5
REMARK VINA RESULT:     -10.0      6.416     11.533
REMARK  Name = 1944
REMARK  8 active torsions:
REMARK  status: ('A' for Active; 'I' for Inactive)
REMARK    1  A    between atoms: C_1  and  S_21
REMARK    2  A    between atoms: C_4  and  N_10
REMARK    3  A    between atoms: C_11  and  C_13
REMARK    4  A    between atoms: C_13  and  C_14
REMARK    5  A    between atoms: S_21  and  N_24
REMARK    6  A    between atoms: N_24  and  C_26
REMARK    7  A    between atoms: C_26  and  C_28
REMARK    8  A    between atoms: C_28  and  O_29
REMARK                            x       y       z     vdW  Elec       q    Type
REMARK                         _______ _______ _______ _____ _____    ______ ____
ROOT
ATOM      1  C   UNL     1      33.062 -12.837 -21.934  0.00  0.00    +0.114 C 
ATOM      2  C   UNL     1      33.768 -13.498 -22.940  0.00  0.00    -0.002 C 
ATOM      3  C   UNL     1      33.021 -13.371 -20.646  0.00  0.00    -0.002 C 
ATOM      4  C   UNL     1      34.379 -15.209 -21.375  0.00  0.00    +0.050 C 
ATOM      5  C   UNL     1      34.430 -14.692 -22.658  0.00  0.00    +0.012 C 
ATOM      6  C   UNL     1      33.683 -14.565 -20.363  0.00  0.00    +0.012 C 
ATOM      7  C   UNL     1      33.835 -12.955 -24.331  0.00  0.00    +0.032 C 
ATOM      8  C   UNL     1      32.275 -12.692 -19.543  0.00  0.00    +0.032 C 
ENDROOT
BRANCH   4  10
ATOM      9  O   UNL     1      34.941 -17.579 -23.127  0.00  0.00    -0.274 OA
ATOM     10  N   UNL     1      35.051 -16.420 -21.087  0.00  0.00    -0.284 N 
ATOM     11  C   UNL     1      35.281 -17.489 -21.952  0.00  0.00    +0.231 C 
ATOM     12  H   UNL     1      35.397 -16.521 -20.172  0.00  0.00    +0.155 HD
BRANCH  11  13
ATOM     13  C   UNL     1      36.045 -18.605 -21.245  0.00  0.00    +0.111 C 
BRANCH  13  14
ATOM     14  C   UNL     1      35.165 -19.609 -20.576  0.00  0.00    -0.017 C 
ATOM     15  C   UNL     1      35.694 -20.557 -19.699  0.00  0.00    -0.025 C 
ATOM     16  C   UNL     1      33.795 -19.591 -20.841  0.00  0.00    -0.004 C 
ATOM     17  C   UNL     1      34.853 -21.486 -19.087  0.00  0.00    -0.005 C 
ATOM     18  C   UNL     1      37.157 -20.594 -19.401  0.00  0.00    +0.031 C 
ATOM     19  C   UNL     1      32.955 -20.521 -20.228  0.00  0.00    -0.000 C 
ATOM     20  C   UNL     1      33.484 -21.469 -19.352  0.00  0.00    -0.000 C 
ENDBRANCH  13  14
ENDBRANCH  11  13
ENDBRANCH   4  10
BRANCH   1  21
ATOM     21  S   UNL     1      32.228 -11.334 -22.288  0.00  0.00    +0.060 S 
ATOM     22  O   UNL     1      32.805 -10.760 -23.493  0.00  0.00    -0.153 OA
ATOM     23  O   UNL     1      30.800 -11.605 -22.233  0.00  0.00    -0.153 OA
BRANCH  21  24
ATOM     24  N   UNL     1      32.656 -10.361 -20.952  0.00  0.00    -0.168 NA
ATOM     25  H   UNL     1      33.675 -10.296 -20.950  0.00  0.00    +0.149 HD
BRANCH  24  26
ATOM     26  C   UNL     1      32.143  -8.988 -20.848  0.00  0.00    +0.200 C 
BRANCH  26  28
ATOM     27  O   UNL     1      31.835  -8.858 -18.439  0.00  0.00    -0.249 OA
ATOM     28  C   UNL     1      32.396  -8.486 -19.459  0.00  0.00    +0.332 C 
BRANCH  28  29
ATOM     29  O   UNL     1      33.362  -7.531 -19.481  0.00  0.00    -0.479 OA
ATOM     30  H   UNL     1      33.776  -7.302 -20.289  0.00  0.00    +0.295 HD
ENDBRANCH  28  29
ENDBRANCH  26  28
ENDBRANCH  24  26
ENDBRANCH  21  24
ENDBRANCH   1  21
TORSDOF 8
ENDMDL
MODEL 6
REMARK VINA RESULT:      -9.9      6.359     11.632
REMARK  Name = 1944
REMARK  8 active torsions:
REMARK  status: ('A' for Active; 'I' for Inactive)
REMARK    1  A    between atoms: C_1  and  S_21
REMARK    2  A    between atoms: C_4  and  N_10
REMARK    3  A    between atoms: C_11  and  C_13
REMARK    4  A    between atoms: C_13  and  C_14
REMARK    5  A    between atoms: S_21  and  N_24
REMARK    6  A    between atoms: N_24  and  C_26
REMARK    7  A    between atoms: C_26  and  C_28
REMARK    8  A    between atoms: C_28  and  O_29
REMARK                            x       y       z     vdW  Elec       q    Type
REMARK                         _______ _______ _______ _____ _____    ______ ____
ROOT
ATOM      1  C   UNL     1      33.188 -12.852 -21.763  0.00  0.00    +0.114 C 
ATOM      2  C   UNL     1      33.096 -13.425 -20.495  0.00  0.00    -0.002 C 
ATOM      3  C   UNL     1      33.916 -13.491 -22.766  0.00  0.00    -0.002 C 
ATOM      4  C   UNL     1      34.451 -15.259 -21.236  0.00  0.00    +0.050 C 
ATOM      5  C   UNL     1      33.732 -14.637 -20.230  0.00  0.00    +0.012 C 
ATOM      6  C   UNL     1      34.552 -14.704 -22.502  0.00  0.00    +0.012 C 
ATOM      7  C   UNL     1      32.324 -12.769 -19.396  0.00  0.00    +0.032 C 
ATOM      8  C   UNL     1      34.038 -12.907 -24.136  0.00  0.00    +0.032 C 
ENDROOT
BRANCH   4  10
ATOM      9  O   UNL     1      34.971 -17.609 -23.029  0.00  0.00    -0.274 OA
ATOM     10  N   UNL     1      35.097 -16.490 -20.968  0.00  0.00    -0.284 N 
ATOM     11  C   UNL     1      35.308 -17.547 -21.851  0.00  0.00    +0.231 C 
ATOM     12  H   UNL     1      35.436 -16.614 -20.053  0.00  0.00    +0.155 HD
BRANCH  11  13
ATOM     13  C   UNL     1      36.045 -18.691 -21.161  0.00  0.00    +0.111 C 
BRANCH  13  14
ATOM     14  C   UNL     1      35.141 -19.689 -20.514  0.00  0.00    -0.017 C 
ATOM     15  C   UNL     1      35.649 -20.677 -19.669  0.00  0.00    -0.025 C 
ATOM     16  C   UNL     1      33.771 -19.624 -20.767  0.00  0.00    -0.004 C 
ATOM     17  C   UNL     1      34.786 -21.599 -19.077  0.00  0.00    -0.005 C 
ATOM     18  C   UNL     1      37.113 -20.765 -19.384  0.00  0.00    +0.031 C 
ATOM     19  C   UNL     1      32.909 -20.546 -20.174  0.00  0.00    -0.000 C 
ATOM     20  C   UNL     1      33.417 -21.534 -19.331  0.00  0.00    -0.000 C 
ENDBRANCH  13  14
ENDBRANCH  11  13
ENDBRANCH   4  10
BRANCH   1  21
ATOM     21  S   UNL     1      32.388 -11.326 -22.097  0.00  0.00    +0.060 S 
ATOM     22  O   UNL     1      31.119 -11.605 -22.751  0.00  0.00    -0.153 OA
ATOM     23  O   UNL     1      32.409 -10.545 -20.870  0.00  0.00    -0.153 OA
BRANCH  21  24
ATOM     24  N   UNL     1      33.445 -10.605 -23.227  0.00  0.00    -0.168 NA
ATOM     25  H   UNL     1      33.204 -10.988 -24.142  0.00  0.00    +0.149 HD
BRANCH  24  26
ATOM     26  C   UNL     1      33.478  -9.143 -23.376  0.00  0.00    +0.200 C 
BRANCH  26  28
ATOM     27  O   UNL     1      35.315  -7.556 -23.239  0.00  0.00    -0.249 OA
ATOM     28  C   UNL     1      34.907  -8.696 -23.405  0.00  0.00    +0.332 C 
BRANCH  28  29
ATOM     29  O   UNL     1      35.720  -9.757 -23.648  0.00  0.00    -0.479 OA
ATOM     30  H   UNL     1      36.467  -9.657 -24.203  0.00  0.00    +0.295 HD
ENDBRANCH  28  29
ENDBRANCH  26  28
ENDBRANCH  24  26
ENDBRANCH  21  24
ENDBRANCH   1  21
TORSDOF 8
ENDMDL
MODEL 7
REMARK VINA RESULT:      -9.9      6.300     11.606
REMARK  Name = 1944
REMARK  8 active torsions:
REMARK  status: ('A' for Active; 'I' for Inactive)
REMARK    1  A    between atoms: C_1  and  S_21
REMARK    2  A    between atoms: C_4  and  N_10
REMARK    3  A    between atoms: C_11  and  C_13
REMARK    4  A    between atoms: C_13  and  C_14
REMARK    5  A    between atoms: S_21  and  N_24
REMARK    6  A    between atoms: N_24  and  C_26
REMARK    7  A    between atoms: C_26  and  C_28
REMARK    8  A    between atoms: C_28  and  O_29
REMARK                            x       y       z     vdW  Elec       q    Type
REMARK                         _______ _______ _______ _____ _____    ______ ____
ROOT
ATOM      1  C   UNL     1      33.210 -12.930 -21.730  0.00  0.00    +0.114 C 
ATOM      2  C   UNL     1      33.952 -13.567 -22.725  0.00  0.00    -0.002 C 
ATOM      3  C   UNL     1      33.102 -13.505 -20.464  0.00  0.00    -0.002 C 
ATOM      4  C   UNL     1      34.468 -15.337 -21.191  0.00  0.00    +0.050 C 
ATOM      5  C   UNL     1      34.585 -14.779 -22.453  0.00  0.00    +0.012 C 
ATOM      6  C   UNL     1      33.735 -14.717 -20.192  0.00  0.00    +0.012 C 
ATOM      7  C   UNL     1      34.090 -12.980 -24.092  0.00  0.00    +0.032 C 
ATOM      8  C   UNL     1      32.315 -12.853 -19.374  0.00  0.00    +0.032 C 
ENDROOT
BRANCH   4  10
ATOM      9  O   UNL     1      34.993 -17.696 -22.971  0.00  0.00    -0.274 OA
ATOM     10  N   UNL     1      35.111 -16.567 -20.915  0.00  0.00    -0.284 N 
ATOM     11  C   UNL     1      35.325 -17.629 -21.792  0.00  0.00    +0.231 C 
ATOM     12  H   UNL     1      35.447 -16.688 -19.998  0.00  0.00    +0.155 HD
BRANCH  11  13
ATOM     13  C   UNL     1      36.058 -18.771 -21.094  0.00  0.00    +0.111 C 
BRANCH  13  14
ATOM     14  C   UNL     1      35.150 -19.765 -20.447  0.00  0.00    -0.017 C 
ATOM     15  C   UNL     1      35.657 -20.779 -19.634  0.00  0.00    -0.025 C 
ATOM     16  C   UNL     1      33.775 -19.668 -20.666  0.00  0.00    -0.004 C 
ATOM     17  C   UNL     1      34.791 -21.698 -19.041  0.00  0.00    -0.005 C 
ATOM     18  C   UNL     1      37.126 -20.901 -19.385  0.00  0.00    +0.031 C 
ATOM     19  C   UNL     1      32.909 -20.587 -20.072  0.00  0.00    -0.000 C 
ATOM     20  C   UNL     1      33.417 -21.602 -19.261  0.00  0.00    -0.000 C 
ENDBRANCH  13  14
ENDBRANCH  11  13
ENDBRANCH   4  10
BRANCH   1  21
ATOM     21  S   UNL     1      32.412 -11.404 -22.071  0.00  0.00    +0.060 S 
ATOM     22  O   UNL     1      31.194 -11.679 -22.817  0.00  0.00    -0.153 OA
ATOM     23  O   UNL     1      32.339 -10.662 -20.822  0.00  0.00    -0.153 OA
BRANCH  21  24
ATOM     24  N   UNL     1      33.532 -10.636 -23.104  0.00  0.00    -0.168 NA
ATOM     25  H   UNL     1      33.351 -10.984 -24.047  0.00  0.00    +0.149 HD
BRANCH  24  26
ATOM     26  C   UNL     1      33.565  -9.169 -23.193  0.00  0.00    +0.200 C 
BRANCH  26  28
ATOM     27  O   UNL     1      35.385  -7.587 -23.503  0.00  0.00    -0.249 OA
ATOM     28  C   UNL     1      34.973  -8.736 -23.466  0.00  0.00    +0.332 C 
BRANCH  28  29
ATOM     29  O   UNL     1      35.760  -9.824 -23.675  0.00  0.00    -0.479 OA
ATOM     30  H   UNL     1      36.046 -10.341 -22.948  0.00  0.00    +0.295 HD
ENDBRANCH  28  29
ENDBRANCH  26  28
ENDBRANCH  24  26
ENDBRANCH  21  24
ENDBRANCH   1  21
TORSDOF 8
ENDMDL
MODEL 8
REMARK VINA RESULT:      -9.7      6.778     12.168
REMARK  Name = 1944
REMARK  8 active torsions:
REMARK  status: ('A' for Active; 'I' for Inactive)
REMARK    1  A    between atoms: C_1  and  S_21
REMARK    2  A    between atoms: C_4  and  N_10
REMARK    3  A    between atoms: C_11  and  C_13
REMARK    4  A    between atoms: C_13  and  C_14
REMARK    5  A    between atoms: S_21  and  N_24
REMARK    6  A    between atoms: N_24  and  C_26
REMARK    7  A    between atoms: C_26  and  C_28
REMARK    8  A    between atoms: C_28  and  O_29
REMARK                            x       y       z     vdW  Elec       q    Type
REMARK                         _______ _______ _______ _____ _____    ______ ____
ROOT
ATOM      1  C   UNL     1      32.799 -11.803 -22.119  0.00  0.00    +0.114 C 
ATOM      2  C   UNL     1      33.642 -12.087 -23.194  0.00  0.00    -0.002 C 
ATOM      3  C   UNL     1      32.494 -12.797 -21.190  0.00  0.00    -0.002 C 
ATOM      4  C   UNL     1      33.867 -14.341 -22.408  0.00  0.00    +0.050 C 
ATOM      5  C   UNL     1      34.179 -13.365 -23.339  0.00  0.00    +0.012 C 
ATOM      6  C   UNL     1      33.031 -14.076 -21.335  0.00  0.00    +0.012 C 
ATOM      7  C   UNL     1      33.992 -11.046 -24.208  0.00  0.00    +0.032 C 
ATOM      8  C   UNL     1      31.593 -12.531 -20.028  0.00  0.00    +0.032 C 
ENDROOT
BRANCH   4  10
ATOM      9  O   UNL     1      35.023 -16.204 -20.359  0.00  0.00    -0.274 OA
ATOM     10  N   UNL     1      34.412 -15.639 -22.555  0.00  0.00    -0.284 N 
ATOM     11  C   UNL     1      34.936 -16.457 -21.556  0.00  0.00    +0.231 C 
ATOM     12  H   UNL     1      34.424 -16.007 -23.467  0.00  0.00    +0.155 HD
BRANCH  11  13
ATOM     13  C   UNL     1      35.421 -17.782 -22.137  0.00  0.00    +0.111 C 
BRANCH  13  14
ATOM     14  C   UNL     1      35.281 -18.939 -21.203  0.00  0.00    -0.017 C 
ATOM     15  C   UNL     1      36.400 -19.518 -20.603  0.00  0.00    -0.025 C 
ATOM     16  C   UNL     1      34.007 -19.440 -20.933  0.00  0.00    -0.004 C 
ATOM     17  C   UNL     1      36.245 -20.599 -19.736  0.00  0.00    -0.005 C 
ATOM     18  C   UNL     1      37.773 -18.997 -20.877  0.00  0.00    +0.031 C 
ATOM     19  C   UNL     1      33.853 -20.521 -20.065  0.00  0.00    -0.000 C 
ATOM     20  C   UNL     1      34.973 -21.101 -19.467  0.00  0.00    -0.000 C 
ENDBRANCH  13  14
ENDBRANCH  11  13
ENDBRANCH   4  10
BRANCH   1  21
ATOM     21  S   UNL     1      32.121 -10.194 -21.936  0.00  0.00    +0.060 S 
ATOM     22  O   UNL     1      32.936  -9.262 -22.699  0.00  0.00    -0.153 OA
ATOM     23  O   UNL     1      30.694 -10.289 -22.204  0.00  0.00    -0.153 OA
BRANCH  21  24
ATOM     24  N   UNL     1      32.351  -9.894 -20.271  0.00  0.00    -0.168 NA
ATOM     25  H   UNL     1      33.342  -9.685 -20.144  0.00  0.00    +0.149 HD
BRANCH  24  26
ATOM     26  C   UNL     1      31.601  -8.819 -19.607  0.00  0.00    +0.200 C 
BRANCH  26  28
ATOM     27  O   UNL     1      31.841  -6.586 -20.539  0.00  0.00    -0.249 OA
ATOM     28  C   UNL     1      32.286  -7.515 -19.883  0.00  0.00    +0.332 C 
BRANCH  28  29
ATOM     29  O   UNL     1      33.508  -7.500 -19.290  0.00  0.00    -0.479 OA
ATOM     30  H   UNL     1      33.655  -7.991 -18.506  0.00  0.00    +0.295 HD
ENDBRANCH  28  29
ENDBRANCH  26  28
ENDBRANCH  24  26
ENDBRANCH  21  24
ENDBRANCH   1  21
TORSDOF 8
ENDMDL
MODEL 9
REMARK VINA RESULT:      -9.6      8.296     12.496
REMARK  Name = 1944
REMARK  8 active torsions:
REMARK  status: ('A' for Active; 'I' for Inactive)
REMARK    1  A    between atoms: C_1  and  S_21
REMARK    2  A    between atoms: C_4  and  N_10
REMARK    3  A    between atoms: C_11  and  C_13
REMARK    4  A    between atoms: C_13  and  C_14
REMARK    5  A    between atoms: S_21  and  N_24
REMARK    6  A    between atoms: N_24  and  C_26
REMARK    7  A    between atoms: C_26  and  C_28
REMARK    8  A    between atoms: C_28  and  O_29
REMARK                            x       y       z     vdW  Elec       q    Type
REMARK                         _______ _______ _______ _____ _____    ______ ____
ROOT
ATOM      1  C   UNL     1      32.321 -11.371 -21.941  0.00  0.00    +0.114 C 
ATOM      2  C   UNL     1      32.862 -11.394 -23.227  0.00  0.00    -0.002 C 
ATOM      3  C   UNL     1      32.450 -12.484 -21.110  0.00  0.00    -0.002 C 
ATOM      4  C   UNL     1      33.652 -13.626 -22.843  0.00  0.00    +0.050 C 
ATOM      5  C   UNL     1      33.532 -12.530 -23.680  0.00  0.00    +0.012 C 
ATOM      6  C   UNL     1      33.120 -13.620 -21.563  0.00  0.00    +0.012 C 
ATOM      7  C   UNL     1      32.745 -10.221 -24.144  0.00  0.00    +0.032 C 
ATOM      8  C   UNL     1      31.882 -12.497 -19.728  0.00  0.00    +0.032 C 
ENDROOT
BRANCH   4  10
ATOM      9  O   UNL     1      33.069 -15.422 -25.176  0.00  0.00    -0.274 OA
ATOM     10  N   UNL     1      34.332 -14.779 -23.303  0.00  0.00    -0.284 N 
ATOM     11  C   UNL     1      34.008 -15.574 -24.401  0.00  0.00    +0.231 C 
ATOM     12  H   UNL     1      35.125 -15.051 -22.789  0.00  0.00    +0.155 HD
BRANCH  11  13
ATOM     13  C   UNL     1      35.000 -16.723 -24.551  0.00  0.00    +0.111 C 
BRANCH  13  14
ATOM     14  C   UNL     1      35.076 -17.615 -23.356  0.00  0.00    -0.017 C 
ATOM     15  C   UNL     1      34.468 -18.871 -23.357  0.00  0.00    -0.025 C 
ATOM     16  C   UNL     1      35.766 -17.175 -22.226  0.00  0.00    -0.004 C 
ATOM     17  C   UNL     1      34.550 -19.687 -22.228  0.00  0.00    -0.005 C 
ATOM     18  C   UNL     1      33.724 -19.363 -24.555  0.00  0.00    +0.031 C 
ATOM     19  C   UNL     1      35.848 -17.992 -21.098  0.00  0.00    -0.000 C 
ATOM     20  C   UNL     1      35.239 -19.247 -21.099  0.00  0.00    -0.000 C 
ENDBRANCH  13  14
ENDBRANCH  11  13
ENDBRANCH   4  10
BRANCH   1  21
ATOM     21  S   UNL     1      31.477  -9.942 -21.369  0.00  0.00    +0.060 S 
ATOM     22  O   UNL     1      30.855  -9.289 -22.509  0.00  0.00    -0.153 OA
ATOM     23  O   UNL     1      30.660 -10.344 -20.234  0.00  0.00    -0.153 OA
BRANCH  21  24
ATOM     24  N   UNL     1      32.761  -8.968 -20.806  0.00  0.00    -0.168 NA
ATOM     25  H   UNL     1      33.612  -9.524 -20.892  0.00  0.00    +0.149 HD
BRANCH  24  26
ATOM     26  C   UNL     1      33.035  -7.673 -21.444  0.00  0.00    +0.200 C 
BRANCH  26  28
ATOM     27  O   UNL     1      32.511  -5.474 -20.548  0.00  0.00    -0.249 OA
ATOM     28  C   UNL     1      32.962  -6.600 -20.401  0.00  0.00    +0.332 C 
BRANCH  28  29
ATOM     29  O   UNL     1      33.481  -7.055 -19.231  0.00  0.00    -0.479 OA
ATOM     30  H   UNL     1      34.385  -7.298 -19.182  0.00  0.00    +0.295 HD
ENDBRANCH  28  29
ENDBRANCH  26  28
ENDBRANCH  24  26
ENDBRANCH  21  24
ENDBRANCH   1  21
TORSDOF 8
ENDMDL
