MODEL 1
REMARK VINA RESULT:     -11.4      0.000      0.000
REMARK  Name = 9963057
REMARK  12 active torsions:
REMARK  status: ('A' for Active; 'I' for Inactive)
REMARK    1  A    between atoms: N_1  and  C_4
REMARK    2  A    between atoms: N_1  and  C_21
REMARK    3  A    between atoms: C_12  and  O_14
REMARK    4  A    between atoms: O_14  and  C_15
REMARK    5  A    between atoms: C_15  and  C_18
REMARK    6  A    between atoms: C_21  and  C_22
REMARK    7  A    between atoms: C_22  and  C_23
REMARK    8  A    between atoms: C_22  and  O_35
REMARK    9  A    between atoms: C_26  and  C_31
REMARK   10  A    between atoms: C_28  and  O_29
REMARK   11  A    between atoms: C_31  and  C_32
REMARK   12  A    between atoms: C_32  and  O_33
REMARK                            x       y       z     vdW  Elec       q    Type
REMARK                         _______ _______ _______ _____ _____    ______ ____
ROOT
ATOM      1  N   UNL     1      33.081 -22.764 -18.052  0.00  0.00    +0.387 N 
ATOM      2  H   UNL     1      32.986 -23.428 -18.820  0.00  0.00    -0.084 HD
ATOM      3  H   UNL     1      32.175 -22.354 -17.822  0.00  0.00    -0.084 HD
ENDROOT
BRANCH   1   4
ATOM      4  C   UNL     1      33.991 -21.692 -18.453  0.00  0.00    -0.057 C 
ATOM      5  C   UNL     1      35.439 -22.185 -18.399  0.00  0.00    -0.016 C 
ATOM      6  C   UNL     1      33.656 -21.207 -19.870  0.00  0.00    +0.005 C 
ATOM      7  C   UNL     1      36.402 -21.039 -18.708  0.00  0.00    +0.024 C 
ATOM      8  C   UNL     1      34.701 -20.281 -20.441  0.00  0.00    -0.025 C 
ATOM      9  C   UNL     1      36.006 -20.232 -19.919  0.00  0.00    -0.026 C 
ATOM     10  C   UNL     1      34.376 -19.493 -21.557  0.00  0.00    +0.032 C 
ATOM     11  C   UNL     1      36.950 -19.372 -20.501  0.00  0.00    -0.001 C 
ATOM     12  C   UNL     1      35.326 -18.649 -22.133  0.00  0.00    +0.139 C 
ATOM     13  C   UNL     1      36.611 -18.588 -21.602  0.00  0.00    +0.037 C 
BRANCH  12  14
ATOM     14  O   UNL     1      34.996 -17.889 -23.211  0.00  0.00    -0.466 OA
BRANCH  14  15
ATOM     15  C   UNL     1      35.327 -16.502 -23.154  0.00  0.00    +0.290 C 
BRANCH  15  18
ATOM     16  O   UNL     1      34.095 -16.216 -25.158  0.00  0.00    -0.271 OA
ATOM     17  N   UNL     1      33.958 -14.478 -23.623  0.00  0.00    -0.273 N 
ATOM     18  C   UNL     1      34.408 -15.721 -24.070  0.00  0.00    +0.270 C 
ATOM     19  C   UNL     1      33.066 -13.693 -24.466  0.00  0.00    +0.115 C 
ATOM     20  C   UNL     1      34.296 -13.868 -22.339  0.00  0.00    +0.115 C 
ENDBRANCH  15  18
ENDBRANCH  14  15
ENDBRANCH  12  14
ENDBRANCH   1   4
BRANCH   1  21
ATOM     21  C   UNL     1      33.589 -23.460 -16.879  0.00  0.00    -0.047 C 
BRANCH  21  22
ATOM     22  C   UNL     1      33.028 -22.842 -15.593  0.00  0.00    +0.112 C 
BRANCH  22  23
ATOM     23  C   UNL     1      31.826 -23.611 -15.088  0.00  0.00    +0.002 C 
ATOM     24  C   UNL     1      30.584 -23.440 -15.698  0.00  0.00    -0.003 C 
ATOM     25  C   UNL     1      31.961 -24.489 -14.013  0.00  0.00    +0.001 C 
ATOM     26  C   UNL     1      29.476 -24.149 -15.232  0.00  0.00    +0.014 C 
ATOM     27  C   UNL     1      30.854 -25.196 -13.546  0.00  0.00    +0.036 C 
ATOM     28  C   UNL     1      29.611 -25.026 -14.156  0.00  0.00    +0.130 C 
BRANCH  28  29
ATOM     29  O   UNL     1      28.539 -25.726 -13.690  0.00  0.00    -0.506 OA
ATOM     30  H   UNL     1      27.816 -25.911 -14.258  0.00  0.00    +0.292 HD
ENDBRANCH  28  29
BRANCH  26  31
ATOM     31  C   UNL     1      28.153 -23.956 -15.897  0.00  0.00    +0.061 C 
BRANCH  31  32
ATOM     32  C   UNL     1      27.478 -22.638 -15.507  0.00  0.00    +0.142 C 
BRANCH  32  33
ATOM     33  O   UNL     1      27.505 -21.744 -16.613  0.00  0.00    -0.382 OA
ATOM     34  H   UNL     1      28.246 -21.974 -17.197  0.00  0.00    +0.210 HD
ENDBRANCH  32  33
ENDBRANCH  31  32
ENDBRANCH  26  31
ENDBRANCH  22  23
BRANCH  22  35
ATOM     35  O   UNL     1      34.021 -22.843 -14.568  0.00  0.00    -0.382 OA
ATOM     36  H   UNL     1      34.838 -23.236 -14.911  0.00  0.00    +0.211 HD
ENDBRANCH  22  35
ENDBRANCH  21  22
ENDBRANCH   1  21
TORSDOF 12
ENDMDL
MODEL 2
REMARK VINA RESULT:     -10.9      2.645     10.571
REMARK  Name = 9963057
REMARK  12 active torsions:
REMARK  status: ('A' for Active; 'I' for Inactive)
REMARK    1  A    between atoms: N_1  and  C_4
REMARK    2  A    between atoms: N_1  and  C_21
REMARK    3  A    between atoms: C_12  and  O_14
REMARK    4  A    between atoms: O_14  and  C_15
REMARK    5  A    between atoms: C_15  and  C_18
REMARK    6  A    between atoms: C_21  and  C_22
REMARK    7  A    between atoms: C_22  and  C_23
REMARK    8  A    between atoms: C_22  and  O_35
REMARK    9  A    between atoms: C_26  and  C_31
REMARK   10  A    between atoms: C_28  and  O_29
REMARK   11  A    between atoms: C_31  and  C_32
REMARK   12  A    between atoms: C_32  and  O_33
REMARK                            x       y       z     vdW  Elec       q    Type
REMARK                         _______ _______ _______ _____ _____    ______ ____
ROOT
ATOM      1  N   UNL     1      35.708 -17.481 -22.787  0.00  0.00    +0.387 N 
ATOM      2  H   UNL     1      35.593 -17.709 -23.774  0.00  0.00    -0.084 HD
ATOM      3  H   UNL     1      36.540 -16.906 -22.650  0.00  0.00    -0.084 HD
ENDROOT
BRANCH   1   4
ATOM      4  C   UNL     1      35.864 -18.719 -22.024  0.00  0.00    -0.057 C 
ATOM      5  C   UNL     1      37.040 -18.593 -21.053  0.00  0.00    -0.016 C 
ATOM      6  C   UNL     1      34.578 -19.038 -21.251  0.00  0.00    +0.005 C 
ATOM      7  C   UNL     1      37.280 -19.921 -20.334  0.00  0.00    +0.024 C 
ATOM      8  C   UNL     1      34.748 -20.159 -20.255  0.00  0.00    -0.025 C 
ATOM      9  C   UNL     1      36.019 -20.546 -19.793  0.00  0.00    -0.026 C 
ATOM     10  C   UNL     1      33.606 -20.788 -19.736  0.00  0.00    +0.032 C 
ATOM     11  C   UNL     1      36.124 -21.578 -18.849  0.00  0.00    -0.001 C 
ATOM     12  C   UNL     1      33.723 -21.806 -18.789  0.00  0.00    +0.139 C 
ATOM     13  C   UNL     1      34.982 -22.202 -18.348  0.00  0.00    +0.037 C 
BRANCH  12  14
ATOM     14  O   UNL     1      32.608 -22.410 -18.298  0.00  0.00    -0.466 OA
BRANCH  14  15
ATOM     15  C   UNL     1      32.722 -23.054 -17.030  0.00  0.00    +0.290 C 
BRANCH  15  18
ATOM     16  O   UNL     1      30.462 -22.376 -16.817  0.00  0.00    -0.271 OA
ATOM     17  N   UNL     1      31.437 -23.276 -14.911  0.00  0.00    -0.273 N 
ATOM     18  C   UNL     1      31.440 -22.868 -16.246  0.00  0.00    +0.270 C 
ATOM     19  C   UNL     1      30.224 -23.125 -14.118  0.00  0.00    +0.115 C 
ATOM     20  C   UNL     1      32.569 -23.873 -14.207  0.00  0.00    +0.115 C 
ENDBRANCH  15  18
ENDBRANCH  14  15
ENDBRANCH  12  14
ENDBRANCH   1   4
BRANCH   1  21
ATOM     21  C   UNL     1      34.544 -16.737 -22.330  0.00  0.00    -0.047 C 
BRANCH  21  22
ATOM     22  C   UNL     1      34.966 -15.542 -21.466  0.00  0.00    +0.112 C 
BRANCH  22  23
ATOM     23  C   UNL     1      34.010 -14.380 -21.625  0.00  0.00    +0.002 C 
ATOM     24  C   UNL     1      34.162 -13.493 -22.690  0.00  0.00    -0.003 C 
ATOM     25  C   UNL     1      32.978 -14.195 -20.704  0.00  0.00    +0.001 C 
ATOM     26  C   UNL     1      33.280 -12.422 -22.836  0.00  0.00    +0.014 C 
ATOM     27  C   UNL     1      32.098 -13.123 -20.849  0.00  0.00    +0.036 C 
ATOM     28  C   UNL     1      32.250 -12.237 -21.915  0.00  0.00    +0.130 C 
BRANCH  28  29
ATOM     29  O   UNL     1      31.380 -11.195 -22.043  0.00  0.00    -0.506 OA
ATOM     30  H   UNL     1      31.675 -10.317 -21.899  0.00  0.00    +0.292 HD
ENDBRANCH  28  29
BRANCH  26  31
ATOM     31  C   UNL     1      33.456 -11.482 -23.983  0.00  0.00    +0.061 C 
BRANCH  31  32
ATOM     32  C   UNL     1      34.304 -10.258 -23.625  0.00  0.00    +0.142 C 
BRANCH  32  33
ATOM     33  O   UNL     1      33.468  -9.239 -23.093  0.00  0.00    -0.382 OA
ATOM     34  H   UNL     1      33.541  -9.233 -22.125  0.00  0.00    +0.210 HD
ENDBRANCH  32  33
ENDBRANCH  31  32
ENDBRANCH  26  31
ENDBRANCH  22  23
BRANCH  22  35
ATOM     35  O   UNL     1      34.996 -15.912 -20.088  0.00  0.00    -0.382 OA
ATOM     36  H   UNL     1      35.699 -15.420 -19.637  0.00  0.00    +0.211 HD
ENDBRANCH  22  35
ENDBRANCH  21  22
ENDBRANCH   1  21
TORSDOF 12
ENDMDL
MODEL 3
REMARK VINA RESULT:     -10.9      3.554     10.892
REMARK  Name = 9963057
REMARK  12 active torsions:
REMARK  status: ('A' for Active; 'I' for Inactive)
REMARK    1  A    between atoms: N_1  and  C_4
REMARK    2  A    between atoms: N_1  and  C_21
REMARK    3  A    between atoms: C_12  and  O_14
REMARK    4  A    between atoms: O_14  and  C_15
REMARK    5  A    between atoms: C_15  and  C_18
REMARK    6  A    between atoms: C_21  and  C_22
REMARK    7  A    between atoms: C_22  and  C_23
REMARK    8  A    between atoms: C_22  and  O_35
REMARK    9  A    between atoms: C_26  and  C_31
REMARK   10  A    between atoms: C_28  and  O_29
REMARK   11  A    between atoms: C_31  and  C_32
REMARK   12  A    between atoms: C_32  and  O_33
REMARK                            x       y       z     vdW  Elec       q    Type
REMARK                         _______ _______ _______ _____ _____    ______ ____
ROOT
ATOM      1  N   UNL     1      35.642 -21.380 -19.628  0.00  0.00    +0.387 N 
ATOM      2  H   UNL     1      35.616 -22.191 -20.246  0.00  0.00    -0.084 HD
ATOM      3  H   UNL     1      36.608 -21.139 -19.400  0.00  0.00    -0.084 HD
ENDROOT
BRANCH   1   4
ATOM      4  C   UNL     1      34.934 -21.698 -18.388  0.00  0.00    -0.057 C 
ATOM      5  C   UNL     1      33.917 -22.814 -18.636  0.00  0.00    -0.016 C 
ATOM      6  C   UNL     1      35.927 -22.127 -17.299  0.00  0.00    +0.005 C 
ATOM      7  C   UNL     1      33.095 -23.074 -17.374  0.00  0.00    +0.024 C 
ATOM      8  C   UNL     1      35.253 -22.703 -16.078  0.00  0.00    -0.025 C 
ATOM      9  C   UNL     1      33.932 -23.187 -16.125  0.00  0.00    -0.026 C 
ATOM     10  C   UNL     1      35.983 -22.812 -14.885  0.00  0.00    +0.032 C 
ATOM     11  C   UNL     1      33.358 -23.736 -14.969  0.00  0.00    -0.001 C 
ATOM     12  C   UNL     1      35.404 -23.369 -13.744  0.00  0.00    +0.139 C 
ATOM     13  C   UNL     1      34.091 -23.828 -13.787  0.00  0.00    +0.037 C 
BRANCH  12  14
ATOM     14  O   UNL     1      36.123 -23.464 -12.593  0.00  0.00    -0.466 OA
BRANCH  14  15
ATOM     15  C   UNL     1      36.670 -24.741 -12.272  0.00  0.00    +0.290 C 
BRANCH  15  18
ATOM     16  O   UNL     1      38.919 -24.057 -11.973  0.00  0.00    -0.271 OA
ATOM     17  N   UNL     1      38.544 -25.608 -13.660  0.00  0.00    -0.273 N 
ATOM     18  C   UNL     1      38.144 -24.767 -12.621  0.00  0.00    +0.270 C 
ATOM     19  C   UNL     1      39.953 -25.673 -14.027  0.00  0.00    +0.115 C 
ATOM     20  C   UNL     1      37.660 -26.472 -14.439  0.00  0.00    +0.115 C 
ENDBRANCH  15  18
ENDBRANCH  14  15
ENDBRANCH  12  14
ENDBRANCH   1   4
BRANCH   1  21
ATOM     21  C   UNL     1      35.023 -20.247 -20.298  0.00  0.00    -0.047 C 
BRANCH  21  22
ATOM     22  C   UNL     1      36.066 -19.443 -21.084  0.00  0.00    +0.112 C 
BRANCH  22  23
ATOM     23  C   UNL     1      35.429 -18.671 -22.219  0.00  0.00    +0.002 C 
ATOM     24  C   UNL     1      35.478 -17.277 -22.227  0.00  0.00    -0.003 C 
ATOM     25  C   UNL     1      34.794 -19.352 -23.257  0.00  0.00    +0.001 C 
ATOM     26  C   UNL     1      34.892 -16.565 -23.273  0.00  0.00    +0.014 C 
ATOM     27  C   UNL     1      34.206 -18.640 -24.302  0.00  0.00    +0.036 C 
ATOM     28  C   UNL     1      34.255 -17.247 -24.310  0.00  0.00    +0.130 C 
BRANCH  28  29
ATOM     29  O   UNL     1      33.677 -16.566 -25.340  0.00  0.00    -0.506 OA
ATOM     30  H   UNL     1      33.636 -16.953 -26.192  0.00  0.00    +0.292 HD
ENDBRANCH  28  29
BRANCH  26  31
ATOM     31  C   UNL     1      34.953 -15.073 -23.267  0.00  0.00    +0.061 C 
BRANCH  31  32
ATOM     32  C   UNL     1      33.660 -14.426 -22.766  0.00  0.00    +0.142 C 
BRANCH  32  33
ATOM     33  O   UNL     1      32.875 -14.008 -23.876  0.00  0.00    -0.382 OA
ATOM     34  H   UNL     1      32.013 -14.453 -23.848  0.00  0.00    +0.210 HD
ENDBRANCH  32  33
ENDBRANCH  31  32
ENDBRANCH  26  31
ENDBRANCH  22  23
BRANCH  22  35
ATOM     35  O   UNL     1      36.725 -18.513 -20.226  0.00  0.00    -0.382 OA
ATOM     36  H   UNL     1      37.044 -18.974 -19.434  0.00  0.00    +0.211 HD
ENDBRANCH  22  35
ENDBRANCH  21  22
ENDBRANCH   1  21
TORSDOF 12
ENDMDL
MODEL 4
REMARK VINA RESULT:     -10.6      3.517     10.843
REMARK  Name = 9963057
REMARK  12 active torsions:
REMARK  status: ('A' for Active; 'I' for Inactive)
REMARK    1  A    between atoms: N_1  and  C_4
REMARK    2  A    between atoms: N_1  and  C_21
REMARK    3  A    between atoms: C_12  and  O_14
REMARK    4  A    between atoms: O_14  and  C_15
REMARK    5  A    between atoms: C_15  and  C_18
REMARK    6  A    between atoms: C_21  and  C_22
REMARK    7  A    between atoms: C_22  and  C_23
REMARK    8  A    between atoms: C_22  and  O_35
REMARK    9  A    between atoms: C_26  and  C_31
REMARK   10  A    between atoms: C_28  and  O_29
REMARK   11  A    between atoms: C_31  and  C_32
REMARK   12  A    between atoms: C_32  and  O_33
REMARK                            x       y       z     vdW  Elec       q    Type
REMARK                         _______ _______ _______ _____ _____    ______ ____
ROOT
ATOM      1  N   UNL     1      36.495 -19.194 -21.063  0.00  0.00    +0.387 N 
ATOM      2  H   UNL     1      37.072 -19.944 -21.442  0.00  0.00    -0.084 HD
ATOM      3  H   UNL     1      37.077 -18.506 -20.584  0.00  0.00    -0.084 HD
ENDROOT
BRANCH   1   4
ATOM      4  C   UNL     1      35.548 -19.758 -20.100  0.00  0.00    -0.057 C 
ATOM      5  C   UNL     1      34.339 -20.341 -20.833  0.00  0.00    -0.016 C 
ATOM      6  C   UNL     1      36.225 -20.846 -19.258  0.00  0.00    +0.005 C 
ATOM      7  C   UNL     1      33.294 -20.829 -19.830  0.00  0.00    +0.024 C 
ATOM      8  C   UNL     1      35.251 -21.637 -18.420  0.00  0.00    -0.025 C 
ATOM      9  C   UNL     1      33.876 -21.661 -18.715  0.00  0.00    -0.026 C 
ATOM     10  C   UNL     1      35.740 -22.413 -17.357  0.00  0.00    +0.032 C 
ATOM     11  C   UNL     1      33.013 -22.431 -17.920  0.00  0.00    -0.001 C 
ATOM     12  C   UNL     1      34.874 -23.183 -16.580  0.00  0.00    +0.139 C 
ATOM     13  C   UNL     1      33.511 -23.189 -16.861  0.00  0.00    +0.037 C 
BRANCH  12  14
ATOM     14  O   UNL     1      35.361 -23.926 -15.551  0.00  0.00    -0.466 OA
BRANCH  14  15
ATOM     15  C   UNL     1      36.021 -23.225 -14.498  0.00  0.00    +0.290 C 
BRANCH  15  18
ATOM     16  O   UNL     1      38.325 -23.377 -15.030  0.00  0.00    -0.271 OA
ATOM     17  N   UNL     1      37.588 -24.744 -13.303  0.00  0.00    -0.273 N 
ATOM     18  C   UNL     1      37.414 -23.789 -14.305  0.00  0.00    +0.270 C 
ATOM     19  C   UNL     1      38.912 -25.309 -13.074  0.00  0.00    +0.115 C 
ATOM     20  C   UNL     1      36.539 -25.244 -12.419  0.00  0.00    +0.115 C 
ENDBRANCH  15  18
ENDBRANCH  14  15
ENDBRANCH  12  14
ENDBRANCH   1   4
BRANCH   1  21
ATOM     21  C   UNL     1      35.791 -18.535 -22.152  0.00  0.00    -0.047 C 
BRANCH  21  22
ATOM     22  C   UNL     1      35.746 -17.018 -21.933  0.00  0.00    +0.112 C 
BRANCH  22  23
ATOM     23  C   UNL     1      34.913 -16.330 -22.991  0.00  0.00    +0.002 C 
ATOM     24  C   UNL     1      34.561 -14.989 -22.838  0.00  0.00    -0.003 C 
ATOM     25  C   UNL     1      34.496 -17.036 -24.119  0.00  0.00    +0.001 C 
ATOM     26  C   UNL     1      33.792 -14.354 -23.814  0.00  0.00    +0.014 C 
ATOM     27  C   UNL     1      33.726 -16.402 -25.094  0.00  0.00    +0.036 C 
ATOM     28  C   UNL     1      33.374 -15.061 -24.941  0.00  0.00    +0.130 C 
BRANCH  28  29
ATOM     29  O   UNL     1      32.623 -14.456 -25.904  0.00  0.00    -0.506 OA
ATOM     30  H   UNL     1      32.698 -13.532 -26.045  0.00  0.00    +0.292 HD
ENDBRANCH  28  29
BRANCH  26  31
ATOM     31  C   UNL     1      33.425 -12.918 -23.635  0.00  0.00    +0.061 C 
BRANCH  31  32
ATOM     32  C   UNL     1      32.947 -12.598 -22.216  0.00  0.00    +0.142 C 
BRANCH  32  33
ATOM     33  O   UNL     1      31.563 -12.905 -22.098  0.00  0.00    -0.382 OA
ATOM     34  H   UNL     1      31.277 -12.763 -21.182  0.00  0.00    +0.210 HD
ENDBRANCH  32  33
ENDBRANCH  31  32
ENDBRANCH  26  31
ENDBRANCH  22  23
BRANCH  22  35
ATOM     35  O   UNL     1      35.184 -16.718 -20.656  0.00  0.00    -0.382 OA
ATOM     36  H   UNL     1      35.484 -17.374 -20.008  0.00  0.00    +0.211 HD
ENDBRANCH  22  35
ENDBRANCH  21  22
ENDBRANCH   1  21
TORSDOF 12
ENDMDL
MODEL 5
REMARK VINA RESULT:     -10.6      4.189      7.974
REMARK  Name = 9963057
REMARK  12 active torsions:
REMARK  status: ('A' for Active; 'I' for Inactive)
REMARK    1  A    between atoms: N_1  and  C_4
REMARK    2  A    between atoms: N_1  and  C_21
REMARK    3  A    between atoms: C_12  and  O_14
REMARK    4  A    between atoms: O_14  and  C_15
REMARK    5  A    between atoms: C_15  and  C_18
REMARK    6  A    between atoms: C_21  and  C_22
REMARK    7  A    between atoms: C_22  and  C_23
REMARK    8  A    between atoms: C_22  and  O_35
REMARK    9  A    between atoms: C_26  and  C_31
REMARK   10  A    between atoms: C_28  and  O_29
REMARK   11  A    between atoms: C_31  and  C_32
REMARK   12  A    between atoms: C_32  and  O_33
REMARK                            x       y       z     vdW  Elec       q    Type
REMARK                         _______ _______ _______ _____ _____    ______ ____
ROOT
ATOM      1  N   UNL     1      35.683 -16.553 -22.363  0.00  0.00    +0.387 N 
ATOM      2  H   UNL     1      36.504 -15.961 -22.487  0.00  0.00    -0.084 HD
ATOM      3  H   UNL     1      35.437 -17.006 -23.244  0.00  0.00    -0.084 HD
ENDROOT
BRANCH   1   4
ATOM      4  C   UNL     1      34.557 -15.727 -21.930  0.00  0.00    -0.057 C 
ATOM      5  C   UNL     1      34.650 -15.460 -20.427  0.00  0.00    -0.016 C 
ATOM      6  C   UNL     1      34.539 -14.400 -22.699  0.00  0.00    +0.005 C 
ATOM      7  C   UNL     1      33.417 -14.693 -19.947  0.00  0.00    +0.024 C 
ATOM      8  C   UNL     1      33.558 -13.402 -22.134  0.00  0.00    -0.025 C 
ATOM      9  C   UNL     1      33.062 -13.518 -20.823  0.00  0.00    -0.026 C 
ATOM     10  C   UNL     1      33.179 -12.301 -22.918  0.00  0.00    +0.032 C 
ATOM     11  C   UNL     1      32.170 -12.552 -20.335  0.00  0.00    -0.001 C 
ATOM     12  C   UNL     1      32.300 -11.340 -22.417  0.00  0.00    +0.139 C 
ATOM     13  C   UNL     1      31.794 -11.468 -21.127  0.00  0.00    +0.037 C 
BRANCH  12  14
ATOM     14  O   UNL     1      31.938 -10.280 -23.189  0.00  0.00    -0.466 OA
BRANCH  14  15
ATOM     15  C   UNL     1      32.677  -9.072 -23.021  0.00  0.00    +0.290 C 
BRANCH  15  18
ATOM     16  O   UNL     1      30.712  -7.796 -23.372  0.00  0.00    -0.271 OA
ATOM     17  N   UNL     1      32.066  -7.115 -21.612  0.00  0.00    -0.273 N 
ATOM     18  C   UNL     1      31.731  -7.937 -22.689  0.00  0.00    +0.270 C 
ATOM     19  C   UNL     1      31.182  -6.016 -21.248  0.00  0.00    +0.115 C 
ATOM     20  C   UNL     1      33.253  -7.260 -20.774  0.00  0.00    +0.115 C 
ENDBRANCH  15  18
ENDBRANCH  14  15
ENDBRANCH  12  14
ENDBRANCH   1   4
BRANCH   1  21
ATOM     21  C   UNL     1      35.979 -17.580 -21.376  0.00  0.00    -0.047 C 
BRANCH  21  22
ATOM     22  C   UNL     1      35.689 -18.977 -21.939  0.00  0.00    +0.112 C 
BRANCH  22  23
ATOM     23  C   UNL     1      34.879 -19.808 -20.968  0.00  0.00    +0.002 C 
ATOM     24  C   UNL     1      35.527 -20.630 -20.046  0.00  0.00    -0.003 C 
ATOM     25  C   UNL     1      33.486 -19.752 -20.994  0.00  0.00    +0.001 C 
ATOM     26  C   UNL     1      34.780 -21.396 -19.150  0.00  0.00    +0.014 C 
ATOM     27  C   UNL     1      32.739 -20.519 -20.100  0.00  0.00    +0.036 C 
ATOM     28  C   UNL     1      33.387 -21.341 -19.178  0.00  0.00    +0.130 C 
BRANCH  28  29
ATOM     29  O   UNL     1      32.643 -22.082 -18.310  0.00  0.00    -0.506 OA
ATOM     30  H   UNL     1      32.905 -22.157 -17.413  0.00  0.00    +0.292 HD
ENDBRANCH  28  29
BRANCH  26  31
ATOM     31  C   UNL     1      35.489 -22.270 -18.169  0.00  0.00    +0.061 C 
BRANCH  31  32
ATOM     32  C   UNL     1      36.731 -21.606 -17.567  0.00  0.00    +0.142 C 
BRANCH  32  33
ATOM     33  O   UNL     1      37.294 -22.457 -16.578  0.00  0.00    -0.382 OA
ATOM     34  H   UNL     1      37.366 -23.359 -16.930  0.00  0.00    +0.210 HD
ENDBRANCH  32  33
ENDBRANCH  31  32
ENDBRANCH  26  31
ENDBRANCH  22  23
BRANCH  22  35
ATOM     35  O   UNL     1      34.957 -18.877 -23.160  0.00  0.00    -0.382 OA
ATOM     36  H   UNL     1      34.068 -18.535 -22.976  0.00  0.00    +0.211 HD
ENDBRANCH  22  35
ENDBRANCH  21  22
ENDBRANCH   1  21
TORSDOF 12
ENDMDL
MODEL 6
REMARK VINA RESULT:     -10.6      4.000      7.775
REMARK  Name = 9963057
REMARK  12 active torsions:
REMARK  status: ('A' for Active; 'I' for Inactive)
REMARK    1  A    between atoms: N_1  and  C_4
REMARK    2  A    between atoms: N_1  and  C_21
REMARK    3  A    between atoms: C_12  and  O_14
REMARK    4  A    between atoms: O_14  and  C_15
REMARK    5  A    between atoms: C_15  and  C_18
REMARK    6  A    between atoms: C_21  and  C_22
REMARK    7  A    between atoms: C_22  and  C_23
REMARK    8  A    between atoms: C_22  and  O_35
REMARK    9  A    between atoms: C_26  and  C_31
REMARK   10  A    between atoms: C_28  and  O_29
REMARK   11  A    between atoms: C_31  and  C_32
REMARK   12  A    between atoms: C_32  and  O_33
REMARK                            x       y       z     vdW  Elec       q    Type
REMARK                         _______ _______ _______ _____ _____    ______ ____
ROOT
ATOM      1  N   UNL     1      35.991 -16.997 -22.454  0.00  0.00    +0.387 N 
ATOM      2  H   UNL     1      36.958 -16.802 -22.196  0.00  0.00    -0.084 HD
ATOM      3  H   UNL     1      35.955 -17.532 -23.322  0.00  0.00    -0.084 HD
ENDROOT
BRANCH   1   4
ATOM      4  C   UNL     1      35.284 -15.733 -22.653  0.00  0.00    -0.057 C 
ATOM      5  C   UNL     1      34.300 -15.859 -23.817  0.00  0.00    -0.016 C 
ATOM      6  C   UNL     1      34.535 -15.331 -21.375  0.00  0.00    +0.005 C 
ATOM      7  C   UNL     1      33.639 -14.510 -24.104  0.00  0.00    +0.024 C 
ATOM      8  C   UNL     1      33.589 -14.173 -21.583  0.00  0.00    -0.025 C 
ATOM      9  C   UNL     1      33.136 -13.813 -22.865  0.00  0.00    -0.026 C 
ATOM     10  C   UNL     1      33.108 -13.478 -20.462  0.00  0.00    +0.032 C 
ATOM     11  C   UNL     1      32.238 -12.744 -23.004  0.00  0.00    -0.001 C 
ATOM     12  C   UNL     1      32.207 -12.423 -20.613  0.00  0.00    +0.139 C 
ATOM     13  C   UNL     1      31.775 -12.056 -21.884  0.00  0.00    +0.037 C 
BRANCH  12  14
ATOM     14  O   UNL     1      31.751 -11.756 -19.519  0.00  0.00    -0.466 OA
BRANCH  14  15
ATOM     15  C   UNL     1      31.100 -10.507 -19.744  0.00  0.00    +0.290 C 
BRANCH  15  18
ATOM     16  O   UNL     1      32.489  -9.399 -18.177  0.00  0.00    -0.271 OA
ATOM     17  N   UNL     1      32.258  -8.362 -20.241  0.00  0.00    -0.273 N 
ATOM     18  C   UNL     1      32.008  -9.374 -19.314  0.00  0.00    +0.270 C 
ATOM     19  C   UNL     1      33.132  -7.255 -19.877  0.00  0.00    +0.115 C 
ATOM     20  C   UNL     1      31.719  -8.306 -21.598  0.00  0.00    +0.115 C 
ENDBRANCH  15  18
ENDBRANCH  14  15
ENDBRANCH  12  14
ENDBRANCH   1   4
BRANCH   1  21
ATOM     21  C   UNL     1      35.364 -17.778 -21.398  0.00  0.00    -0.047 C 
BRANCH  21  22
ATOM     22  C   UNL     1      35.485 -19.279 -21.686  0.00  0.00    +0.112 C 
BRANCH  22  23
ATOM     23  C   UNL     1      34.732 -20.102 -20.663  0.00  0.00    +0.002 C 
ATOM     24  C   UNL     1      35.433 -20.876 -19.739  0.00  0.00    -0.003 C 
ATOM     25  C   UNL     1      33.337 -20.085 -20.644  0.00  0.00    +0.001 C 
ATOM     26  C   UNL     1      34.738 -21.634 -18.796  0.00  0.00    +0.014 C 
ATOM     27  C   UNL     1      32.643 -20.844 -19.702  0.00  0.00    +0.036 C 
ATOM     28  C   UNL     1      33.344 -21.619 -18.778  0.00  0.00    +0.130 C 
BRANCH  28  29
ATOM     29  O   UNL     1      32.651 -22.353 -17.863  0.00  0.00    -0.506 OA
ATOM     30  H   UNL     1      31.723 -22.249 -17.784  0.00  0.00    +0.292 HD
ENDBRANCH  28  29
BRANCH  26  31
ATOM     31  C   UNL     1      35.504 -22.458 -17.814  0.00  0.00    +0.061 C 
BRANCH  31  32
ATOM     32  C   UNL     1      36.728 -21.730 -17.252  0.00  0.00    +0.142 C 
BRANCH  32  33
ATOM     33  O   UNL     1      37.056 -22.264 -15.975  0.00  0.00    -0.382 OA
ATOM     34  H   UNL     1      36.984 -21.565 -15.305  0.00  0.00    +0.210 HD
ENDBRANCH  32  33
ENDBRANCH  31  32
ENDBRANCH  26  31
ENDBRANCH  22  23
BRANCH  22  35
ATOM     35  O   UNL     1      34.957 -19.581 -22.977  0.00  0.00    -0.382 OA
ATOM     36  H   UNL     1      35.264 -18.918 -23.614  0.00  0.00    +0.211 HD
ENDBRANCH  22  35
ENDBRANCH  21  22
ENDBRANCH   1  21
TORSDOF 12
ENDMDL
MODEL 7
REMARK VINA RESULT:     -10.5      2.078     10.190
REMARK  Name = 9963057
REMARK  12 active torsions:
REMARK  status: ('A' for Active; 'I' for Inactive)
REMARK    1  A    between atoms: N_1  and  C_4
REMARK    2  A    between atoms: N_1  and  C_21
REMARK    3  A    between atoms: C_12  and  O_14
REMARK    4  A    between atoms: O_14  and  C_15
REMARK    5  A    between atoms: C_15  and  C_18
REMARK    6  A    between atoms: C_21  and  C_22
REMARK    7  A    between atoms: C_22  and  C_23
REMARK    8  A    between atoms: C_22  and  O_35
REMARK    9  A    between atoms: C_26  and  C_31
REMARK   10  A    between atoms: C_28  and  O_29
REMARK   11  A    between atoms: C_31  and  C_32
REMARK   12  A    between atoms: C_32  and  O_33
REMARK                            x       y       z     vdW  Elec       q    Type
REMARK                         _______ _______ _______ _____ _____    ______ ____
ROOT
ATOM      1  N   UNL     1      34.644 -20.343 -21.399  0.00  0.00    +0.387 N 
ATOM      2  H   UNL     1      33.631 -20.343 -21.522  0.00  0.00    -0.084 HD
ATOM      3  H   UNL     1      35.104 -20.696 -22.239  0.00  0.00    -0.084 HD
ENDROOT
BRANCH   1   4
ATOM      4  C   UNL     1      34.990 -21.211 -20.274  0.00  0.00    -0.057 C 
ATOM      5  C   UNL     1      36.129 -20.590 -19.464  0.00  0.00    -0.016 C 
ATOM      6  C   UNL     1      33.768 -21.435 -19.374  0.00  0.00    +0.005 C 
ATOM      7  C   UNL     1      36.573 -21.544 -18.354  0.00  0.00    +0.024 C 
ATOM      8  C   UNL     1      34.110 -22.113 -18.070  0.00  0.00    -0.025 C 
ATOM      9  C   UNL     1      35.425 -22.128 -17.571  0.00  0.00    -0.026 C 
ATOM     10  C   UNL     1      33.080 -22.691 -17.312  0.00  0.00    +0.032 C 
ATOM     11  C   UNL     1      35.689 -22.751 -16.342  0.00  0.00    -0.001 C 
ATOM     12  C   UNL     1      33.353 -23.298 -16.086  0.00  0.00    +0.139 C 
ATOM     13  C   UNL     1      34.658 -23.330 -15.603  0.00  0.00    +0.037 C 
BRANCH  12  14
ATOM     14  O   UNL     1      32.345 -23.858 -15.364  0.00  0.00    -0.466 OA
BRANCH  14  15
ATOM     15  C   UNL     1      31.325 -22.983 -14.885  0.00  0.00    +0.290 C 
BRANCH  15  18
ATOM     16  O   UNL     1      29.861 -22.253 -16.600  0.00  0.00    -0.271 OA
ATOM     17  N   UNL     1      29.275 -24.233 -15.538  0.00  0.00    -0.273 N 
ATOM     18  C   UNL     1      30.089 -23.119 -15.749  0.00  0.00    +0.270 C 
ATOM     19  C   UNL     1      28.079 -24.412 -16.350  0.00  0.00    +0.115 C 
ATOM     20  C   UNL     1      29.519 -25.284 -14.553  0.00  0.00    +0.115 C 
ENDBRANCH  15  18
ENDBRANCH  14  15
ENDBRANCH  12  14
ENDBRANCH   1   4
BRANCH   1  21
ATOM     21  C   UNL     1      35.095 -18.981 -21.157  0.00  0.00    -0.047 C 
BRANCH  21  22
ATOM     22  C   UNL     1      35.781 -18.405 -22.402  0.00  0.00    +0.112 C 
BRANCH  22  23
ATOM     23  C   UNL     1      35.150 -17.096 -22.826  0.00  0.00    +0.002 C 
ATOM     24  C   UNL     1      34.967 -16.077 -21.892  0.00  0.00    -0.003 C 
ATOM     25  C   UNL     1      34.753 -16.910 -24.150  0.00  0.00    +0.001 C 
ATOM     26  C   UNL     1      34.386 -14.870 -22.283  0.00  0.00    +0.014 C 
ATOM     27  C   UNL     1      34.171 -15.704 -24.541  0.00  0.00    +0.036 C 
ATOM     28  C   UNL     1      33.988 -14.684 -23.607  0.00  0.00    +0.130 C 
BRANCH  28  29
ATOM     29  O   UNL     1      33.419 -13.512 -24.005  0.00  0.00    -0.506 OA
ATOM     30  H   UNL     1      32.819 -13.502 -24.725  0.00  0.00    +0.292 HD
ENDBRANCH  28  29
BRANCH  26  31
ATOM     31  C   UNL     1      34.197 -13.789 -21.271  0.00  0.00    +0.061 C 
BRANCH  31  32
ATOM     32  C   UNL     1      32.865 -13.898 -20.525  0.00  0.00    +0.142 C 
BRANCH  32  33
ATOM     33  O   UNL     1      31.824 -13.349 -21.324  0.00  0.00    -0.382 OA
ATOM     34  H   UNL     1      30.970 -13.707 -21.033  0.00  0.00    +0.210 HD
ENDBRANCH  32  33
ENDBRANCH  31  32
ENDBRANCH  26  31
ENDBRANCH  22  23
BRANCH  22  35
ATOM     35  O   UNL     1      37.164 -18.171 -22.142  0.00  0.00    -0.382 OA
ATOM     36  H   UNL     1      37.656 -19.000 -22.242  0.00  0.00    +0.211 HD
ENDBRANCH  22  35
ENDBRANCH  21  22
ENDBRANCH   1  21
TORSDOF 12
ENDMDL
MODEL 8
REMARK VINA RESULT:     -10.5      4.110     10.897
REMARK  Name = 9963057
REMARK  12 active torsions:
REMARK  status: ('A' for Active; 'I' for Inactive)
REMARK    1  A    between atoms: N_1  and  C_4
REMARK    2  A    between atoms: N_1  and  C_21
REMARK    3  A    between atoms: C_12  and  O_14
REMARK    4  A    between atoms: O_14  and  C_15
REMARK    5  A    between atoms: C_15  and  C_18
REMARK    6  A    between atoms: C_21  and  C_22
REMARK    7  A    between atoms: C_22  and  C_23
REMARK    8  A    between atoms: C_22  and  O_35
REMARK    9  A    between atoms: C_26  and  C_31
REMARK   10  A    between atoms: C_28  and  O_29
REMARK   11  A    between atoms: C_31  and  C_32
REMARK   12  A    between atoms: C_32  and  O_33
REMARK                            x       y       z     vdW  Elec       q    Type
REMARK                         _______ _______ _______ _____ _____    ______ ____
ROOT
ATOM      1  N   UNL     1      35.959 -20.394 -20.678  0.00  0.00    +0.387 N 
ATOM      2  H   UNL     1      35.887 -21.166 -21.340  0.00  0.00    -0.084 HD
ATOM      3  H   UNL     1      36.930 -20.093 -20.587  0.00  0.00    -0.084 HD
ENDROOT
BRANCH   1   4
ATOM      4  C   UNL     1      35.481 -20.838 -19.369  0.00  0.00    -0.057 C 
ATOM      5  C   UNL     1      34.489 -21.990 -19.536  0.00  0.00    -0.016 C 
ATOM      6  C   UNL     1      36.658 -21.283 -18.492  0.00  0.00    +0.005 C 
ATOM      7  C   UNL     1      33.899 -22.384 -18.181  0.00  0.00    +0.024 C 
ATOM      8  C   UNL     1      36.223 -21.981 -17.227  0.00  0.00    -0.025 C 
ATOM      9  C   UNL     1      34.936 -22.535 -17.097  0.00  0.00    -0.026 C 
ATOM     10  C   UNL     1      37.145 -22.129 -16.179  0.00  0.00    +0.032 C 
ATOM     11  C   UNL     1      34.587 -23.195 -15.910  0.00  0.00    -0.001 C 
ATOM     12  C   UNL     1      36.789 -22.797 -15.007  0.00  0.00    +0.139 C 
ATOM     13  C   UNL     1      35.509 -23.327 -14.873  0.00  0.00    +0.037 C 
BRANCH  12  14
ATOM     14  O   UNL     1      37.691 -22.930 -13.998  0.00  0.00    -0.466 OA
BRANCH  14  15
ATOM     15  C   UNL     1      37.674 -24.156 -13.269  0.00  0.00    +0.290 C 
BRANCH  15  18
ATOM     16  O   UNL     1      38.452 -23.363 -11.176  0.00  0.00    -0.271 OA
ATOM     17  N   UNL     1      36.280 -24.184 -11.209  0.00  0.00    -0.273 N 
ATOM     18  C   UNL     1      37.508 -23.867 -11.791  0.00  0.00    +0.270 C 
ATOM     19  C   UNL     1      36.069 -23.917  -9.792  0.00  0.00    +0.115 C 
ATOM     20  C   UNL     1      35.137 -24.768 -11.907  0.00  0.00    +0.115 C 
ENDBRANCH  15  18
ENDBRANCH  14  15
ENDBRANCH  12  14
ENDBRANCH   1   4
BRANCH   1  21
ATOM     21  C   UNL     1      35.167 -19.274 -21.163  0.00  0.00    -0.047 C 
BRANCH  21  22
ATOM     22  C   UNL     1      35.877 -18.566 -22.324  0.00  0.00    +0.112 C 
BRANCH  22  23
ATOM     23  C   UNL     1      35.246 -17.224 -22.624  0.00  0.00    +0.002 C 
ATOM     24  C   UNL     1      35.028 -16.311 -21.593  0.00  0.00    -0.003 C 
ATOM     25  C   UNL     1      34.881 -16.901 -23.931  0.00  0.00    +0.001 C 
ATOM     26  C   UNL     1      34.447 -15.073 -21.869  0.00  0.00    +0.014 C 
ATOM     27  C   UNL     1      34.298 -15.664 -24.207  0.00  0.00    +0.036 C 
ATOM     28  C   UNL     1      34.081 -14.751 -23.176  0.00  0.00    +0.130 C 
BRANCH  28  29
ATOM     29  O   UNL     1      33.512 -13.546 -23.463  0.00  0.00    -0.506 OA
ATOM     30  H   UNL     1      33.669 -13.140 -24.293  0.00  0.00    +0.292 HD
ENDBRANCH  28  29
BRANCH  26  31
ATOM     31  C   UNL     1      34.221 -14.106 -20.754  0.00  0.00    +0.061 C 
BRANCH  31  32
ATOM     32  C   UNL     1      32.852 -14.272 -20.090  0.00  0.00    +0.142 C 
BRANCH  32  33
ATOM     33  O   UNL     1      31.862 -13.613 -20.869  0.00  0.00    -0.382 OA
ATOM     34  H   UNL     1      31.841 -14.000 -21.760  0.00  0.00    +0.210 HD
ENDBRANCH  32  33
ENDBRANCH  31  32
ENDBRANCH  26  31
ENDBRANCH  22  23
BRANCH  22  35
ATOM     35  O   UNL     1      37.252 -18.352 -22.008  0.00  0.00    -0.382 OA
ATOM     36  H   UNL     1      37.700 -17.954 -22.770  0.00  0.00    +0.211 HD
ENDBRANCH  22  35
ENDBRANCH  21  22
ENDBRANCH   1  21
TORSDOF 12
ENDMDL
MODEL 9
REMARK VINA RESULT:     -10.5      2.042      4.101
REMARK  Name = 9963057
REMARK  12 active torsions:
REMARK  status: ('A' for Active; 'I' for Inactive)
REMARK    1  A    between atoms: N_1  and  C_4
REMARK    2  A    between atoms: N_1  and  C_21
REMARK    3  A    between atoms: C_12  and  O_14
REMARK    4  A    between atoms: O_14  and  C_15
REMARK    5  A    between atoms: C_15  and  C_18
REMARK    6  A    between atoms: C_21  and  C_22
REMARK    7  A    between atoms: C_22  and  C_23
REMARK    8  A    between atoms: C_22  and  O_35
REMARK    9  A    between atoms: C_26  and  C_31
REMARK   10  A    between atoms: C_28  and  O_29
REMARK   11  A    between atoms: C_31  and  C_32
REMARK   12  A    between atoms: C_32  and  O_33
REMARK                            x       y       z     vdW  Elec       q    Type
REMARK                         _______ _______ _______ _____ _____    ______ ____
ROOT
ATOM      1  N   UNL     1      32.870 -22.688 -18.210  0.00  0.00    +0.387 N 
ATOM      2  H   UNL     1      33.319 -23.603 -18.235  0.00  0.00    -0.084 HD
ATOM      3  H   UNL     1      32.108 -22.648 -18.888  0.00  0.00    -0.084 HD
ENDROOT
BRANCH   1   4
ATOM      4  C   UNL     1      33.853 -21.661 -18.550  0.00  0.00    -0.057 C 
ATOM      5  C   UNL     1      35.267 -22.239 -18.466  0.00  0.00    -0.016 C 
ATOM      6  C   UNL     1      33.594 -21.117 -19.961  0.00  0.00    +0.005 C 
ATOM      7  C   UNL     1      36.305 -21.143 -18.709  0.00  0.00    +0.024 C 
ATOM      8  C   UNL     1      34.709 -20.237 -20.471  0.00  0.00    -0.025 C 
ATOM      9  C   UNL     1      35.997 -20.281 -19.907  0.00  0.00    -0.026 C 
ATOM     10  C   UNL     1      34.468 -19.401 -21.572  0.00  0.00    +0.032 C 
ATOM     11  C   UNL     1      37.008 -19.461 -20.432  0.00  0.00    -0.001 C 
ATOM     12  C   UNL     1      35.484 -18.598 -22.092  0.00  0.00    +0.139 C 
ATOM     13  C   UNL     1      36.752 -18.627 -21.520  0.00  0.00    +0.037 C 
BRANCH  12  14
ATOM     14  O   UNL     1      35.235 -17.789 -23.156  0.00  0.00    -0.466 OA
BRANCH  14  15
ATOM     15  C   UNL     1      35.307 -16.382 -22.934  0.00  0.00    +0.290 C 
BRANCH  15  18
ATOM     16  O   UNL     1      34.313 -16.174 -25.075  0.00  0.00    -0.271 OA
ATOM     17  N   UNL     1      33.887 -14.445 -23.585  0.00  0.00    -0.273 N 
ATOM     18  C   UNL     1      34.461 -15.659 -23.963  0.00  0.00    +0.270 C 
ATOM     19  C   UNL     1      33.058 -13.717 -24.537  0.00  0.00    +0.115 C 
ATOM     20  C   UNL     1      34.029 -13.813 -22.276  0.00  0.00    +0.115 C 
ENDBRANCH  15  18
ENDBRANCH  14  15
ENDBRANCH  12  14
ENDBRANCH   1   4
BRANCH   1  21
ATOM     21  C   UNL     1      32.324 -22.459 -16.881  0.00  0.00    -0.047 C 
BRANCH  21  22
ATOM     22  C   UNL     1      32.293 -23.761 -16.073  0.00  0.00    +0.112 C 
BRANCH  22  23
ATOM     23  C   UNL     1      33.326 -23.752 -14.966  0.00  0.00    +0.002 C 
ATOM     24  C   UNL     1      34.642 -23.386 -15.246  0.00  0.00    -0.003 C 
ATOM     25  C   UNL     1      32.961 -24.108 -13.668  0.00  0.00    +0.001 C 
ATOM     26  C   UNL     1      35.594 -23.377 -14.226  0.00  0.00    +0.014 C 
ATOM     27  C   UNL     1      33.912 -24.101 -12.649  0.00  0.00    +0.036 C 
ATOM     28  C   UNL     1      35.229 -23.735 -12.928  0.00  0.00    +0.130 C 
BRANCH  28  29
ATOM     29  O   UNL     1      36.146 -23.731 -11.920  0.00  0.00    -0.506 OA
ATOM     30  H   UNL     1      35.866 -23.818 -11.030  0.00  0.00    +0.292 HD
ENDBRANCH  28  29
BRANCH  26  31
ATOM     31  C   UNL     1      36.999 -22.983 -14.541  0.00  0.00    +0.061 C 
BRANCH  31  32
ATOM     32  C   UNL     1      37.950 -24.181 -14.623  0.00  0.00    +0.142 C 
BRANCH  32  33
ATOM     33  O   UNL     1      39.136 -23.802 -15.309  0.00  0.00    -0.382 OA
ATOM     34  H   UNL     1      39.095 -24.120 -16.225  0.00  0.00    +0.210 HD
ENDBRANCH  32  33
ENDBRANCH  31  32
ENDBRANCH  26  31
ENDBRANCH  22  23
BRANCH  22  35
ATOM     35  O   UNL     1      31.008 -23.948 -15.482  0.00  0.00    -0.382 OA
ATOM     36  H   UNL     1      30.561 -23.091 -15.404  0.00  0.00    +0.211 HD
ENDBRANCH  22  35
ENDBRANCH  21  22
ENDBRANCH   1  21
TORSDOF 12
ENDMDL
