MODEL 1
REMARK VINA RESULT:     -12.3      0.000      0.000
REMARK  Name = 24821094
REMARK  5 active torsions:
REMARK  status: ('A' for Active; 'I' for Inactive)
REMARK    1  A    between atoms: N_1  and  C_12
REMARK    2  A    between atoms: C_7  and  C_20
REMARK    3  A    between atoms: C_17  and  C_18
REMARK    4  A    between atoms: C_25  and  O_26
REMARK    5  A    between atoms: O_26  and  C_27
REMARK                            x       y       z     vdW  Elec       q    Type
REMARK                         _______ _______ _______ _____ _____    ______ ____
ROOT
ATOM      1  N   UNL     1      36.026 -22.996 -15.986  0.00  0.00    -0.198 N 
ATOM      2  N   UNL     1      36.494 -22.245 -17.000  0.00  0.00    -0.181 NA
ATOM      3  N   UNL     1      33.933 -23.870 -15.142  0.00  0.00    -0.231 NA
ATOM      4  N   UNL     1      32.048 -23.207 -16.540  0.00  0.00    -0.234 NA
ATOM      5  C   UNL     1      34.675 -23.174 -16.016  0.00  0.00    +0.137 C 
ATOM      6  C   UNL     1      34.225 -22.490 -17.132  0.00  0.00    +0.150 C 
ATOM      7  C   UNL     1      35.392 -21.941 -17.695  0.00  0.00    +0.090 C 
ATOM      8  C   UNL     1      32.857 -22.522 -17.383  0.00  0.00    +0.112 C 
ATOM      9  C   UNL     1      32.627 -23.830 -15.487  0.00  0.00    +0.252 C 
ATOM     10  N   UNL     1      32.304 -21.859 -18.494  0.00  0.00    -0.346 N 
ATOM     11  H   UNL     1      31.332 -21.894 -18.654  0.00  0.00    +0.143 HD
ATOM     12  H   UNL     1      32.886 -21.360 -19.111  0.00  0.00    +0.143 HD
ENDROOT
BRANCH   1  15
ATOM     13  O   UNL     1      38.022 -25.880 -11.099  0.00  0.00    -0.270 OA
ATOM     14  N   UNL     1      37.414 -25.292 -13.266  0.00  0.00    -0.274 N 
ATOM     15  C   UNL     1      36.994 -23.546 -14.956  0.00  0.00    +0.117 C 
ATOM     16  C   UNL     1      38.381 -23.829 -15.565  0.00  0.00    +0.025 C 
ATOM     17  C   UNL     1      36.447 -24.805 -14.261  0.00  0.00    +0.115 C 
ATOM     18  C   UNL     1      39.335 -24.411 -14.519  0.00  0.00    +0.023 C 
ATOM     19  C   UNL     1      38.726 -25.627 -13.824  0.00  0.00    +0.094 C 
ATOM     20  C   UNL     1      37.188 -25.460 -11.903  0.00  0.00    +0.249 C 
BRANCH  20  21
ATOM     21  C   UNL     1      35.854 -25.104 -11.378  0.00  0.00    +0.058 C 
ATOM     22  C   UNL     1      35.773 -24.395 -10.251  0.00  0.00    +0.005 C 
ENDBRANCH  20  21
ENDBRANCH   1  15
BRANCH   7  23
ATOM     23  C   UNL     1      35.494 -21.129 -18.882  0.00  0.00    +0.016 C 
ATOM     24  C   UNL     1      34.367 -20.907 -19.673  0.00  0.00    +0.004 C 
ATOM     25  C   UNL     1      36.719 -20.564 -19.237  0.00  0.00    +0.004 C 
ATOM     26  C   UNL     1      34.466 -20.121 -20.821  0.00  0.00    +0.038 C 
ATOM     27  C   UNL     1      36.817 -19.777 -20.385  0.00  0.00    +0.038 C 
ATOM     28  C   UNL     1      35.691 -19.556 -21.177  0.00  0.00    +0.145 C 
BRANCH  28  29
ATOM     29  O   UNL     1      35.788 -18.791 -22.299  0.00  0.00    -0.453 OA
BRANCH  29  30
ATOM     30  C   UNL     1      35.366 -17.475 -22.220  0.00  0.00    +0.145 C 
ATOM     31  C   UNL     1      35.099 -16.757 -23.385  0.00  0.00    +0.037 C 
ATOM     32  C   UNL     1      35.210 -16.865 -20.974  0.00  0.00    +0.037 C 
ATOM     33  C   UNL     1      34.675 -15.429 -23.306  0.00  0.00    +0.003 C 
ATOM     34  C   UNL     1      34.786 -15.540 -20.894  0.00  0.00    +0.003 C 
ATOM     35  C   UNL     1      34.519 -14.822 -22.060  0.00  0.00    +0.000 C 
ENDBRANCH  29  30
ENDBRANCH  28  29
ENDBRANCH   7  23
TORSDOF 5
ENDMDL
MODEL 2
REMARK VINA RESULT:     -12.3      7.326     14.128
REMARK  Name = 24821094
REMARK  5 active torsions:
REMARK  status: ('A' for Active; 'I' for Inactive)
REMARK    1  A    between atoms: N_1  and  C_12
REMARK    2  A    between atoms: C_7  and  C_20
REMARK    3  A    between atoms: C_17  and  C_18
REMARK    4  A    between atoms: C_25  and  O_26
REMARK    5  A    between atoms: O_26  and  C_27
REMARK                            x       y       z     vdW  Elec       q    Type
REMARK                         _______ _______ _______ _____ _____    ______ ____
ROOT
ATOM      1  N   UNL     1      33.283 -10.311 -22.920  0.00  0.00    -0.198 N 
ATOM      2  N   UNL     1      33.926 -11.387 -23.410  0.00  0.00    -0.181 NA
ATOM      3  N   UNL     1      31.642  -9.742 -21.235  0.00  0.00    -0.231 NA
ATOM      4  N   UNL     1      30.888 -11.712 -20.010  0.00  0.00    -0.234 NA
ATOM      5  C   UNL     1      32.416 -10.605 -21.911  0.00  0.00    +0.137 C 
ATOM      6  C   UNL     1      32.499 -11.974 -21.724  0.00  0.00    +0.150 C 
ATOM      7  C   UNL     1      33.444 -12.396 -22.676  0.00  0.00    +0.090 C 
ATOM      8  C   UNL     1      31.695 -12.525 -20.731  0.00  0.00    +0.112 C 
ATOM      9  C   UNL     1      30.910 -10.390 -20.302  0.00  0.00    +0.252 C 
ATOM     10  N   UNL     1      31.709 -13.906 -20.465  0.00  0.00    -0.346 N 
ATOM     11  H   UNL     1      31.133 -14.276 -19.757  0.00  0.00    +0.143 HD
ATOM     12  H   UNL     1      32.295 -14.503 -20.985  0.00  0.00    +0.143 HD
ENDROOT
BRANCH   1  15
ATOM     13  O   UNL     1      32.712  -4.428 -24.038  0.00  0.00    -0.270 OA
ATOM     14  N   UNL     1      33.361  -6.501 -23.209  0.00  0.00    -0.274 N 
ATOM     15  C   UNL     1      33.565  -8.941 -23.508  0.00  0.00    +0.117 C 
ATOM     16  C   UNL     1      35.059  -8.756 -23.840  0.00  0.00    +0.025 C 
ATOM     17  C   UNL     1      33.076  -7.805 -22.592  0.00  0.00    +0.115 C 
ATOM     18  C   UNL     1      35.329  -7.359 -24.403  0.00  0.00    +0.023 C 
ATOM     19  C   UNL     1      34.781  -6.270 -23.483  0.00  0.00    +0.094 C 
ATOM     20  C   UNL     1      32.433  -5.514 -23.528  0.00  0.00    +0.249 C 
BRANCH  20  21
ATOM     21  C   UNL     1      31.011  -5.790 -23.243  0.00  0.00    +0.058 C 
ATOM     22  C   UNL     1      30.476  -5.314 -22.117  0.00  0.00    +0.005 C 
ENDBRANCH  20  21
ENDBRANCH   1  15
BRANCH   7  23
ATOM     23  C   UNL     1      33.909 -13.740 -22.914  0.00  0.00    +0.016 C 
ATOM     24  C   UNL     1      34.627 -14.413 -21.926  0.00  0.00    +0.004 C 
ATOM     25  C   UNL     1      33.638 -14.368 -24.129  0.00  0.00    +0.004 C 
ATOM     26  C   UNL     1      35.076 -15.714 -22.156  0.00  0.00    +0.038 C 
ATOM     27  C   UNL     1      34.086 -15.669 -24.359  0.00  0.00    +0.038 C 
ATOM     28  C   UNL     1      34.806 -16.341 -23.372  0.00  0.00    +0.145 C 
BRANCH  28  29
ATOM     29  O   UNL     1      35.246 -17.610 -23.596  0.00  0.00    -0.453 OA
BRANCH  29  30
ATOM     30  C   UNL     1      35.467 -18.420 -22.495  0.00  0.00    +0.145 C 
ATOM     31  C   UNL     1      34.458 -19.269 -22.041  0.00  0.00    +0.037 C 
ATOM     32  C   UNL     1      36.698 -18.387 -21.840  0.00  0.00    +0.037 C 
ATOM     33  C   UNL     1      34.679 -20.085 -20.931  0.00  0.00    +0.003 C 
ATOM     34  C   UNL     1      36.920 -19.202 -20.731  0.00  0.00    +0.003 C 
ATOM     35  C   UNL     1      35.910 -20.050 -20.276  0.00  0.00    +0.000 C 
ENDBRANCH  29  30
ENDBRANCH  28  29
ENDBRANCH   7  23
TORSDOF 5
ENDMDL
MODEL 3
REMARK VINA RESULT:     -12.2      5.119     11.674
REMARK  Name = 24821094
REMARK  5 active torsions:
REMARK  status: ('A' for Active; 'I' for Inactive)
REMARK    1  A    between atoms: N_1  and  C_12
REMARK    2  A    between atoms: C_7  and  C_20
REMARK    3  A    between atoms: C_17  and  C_18
REMARK    4  A    between atoms: C_25  and  O_26
REMARK    5  A    between atoms: O_26  and  C_27
REMARK                            x       y       z     vdW  Elec       q    Type
REMARK                         _______ _______ _______ _____ _____    ______ ____
ROOT
ATOM      1  N   UNL     1      33.849 -14.451 -21.806  0.00  0.00    -0.198 N 
ATOM      2  N   UNL     1      34.315 -15.416 -20.992  0.00  0.00    -0.181 NA
ATOM      3  N   UNL     1      33.402 -14.064 -24.153  0.00  0.00    -0.231 NA
ATOM      4  N   UNL     1      33.954 -16.014 -25.510  0.00  0.00    -0.234 NA
ATOM      5  C   UNL     1      33.815 -14.813 -23.119  0.00  0.00    +0.137 C 
ATOM      6  C   UNL     1      34.293 -16.111 -23.169  0.00  0.00    +0.150 C 
ATOM      7  C   UNL     1      34.583 -16.425 -21.829  0.00  0.00    +0.090 C 
ATOM      8  C   UNL     1      34.355 -16.713 -24.422  0.00  0.00    +0.112 C 
ATOM      9  C   UNL     1      33.509 -14.750 -25.312  0.00  0.00    +0.252 C 
ATOM     10  N   UNL     1      34.825 -18.030 -24.576  0.00  0.00    -0.346 N 
ATOM     11  H   UNL     1      34.860 -18.438 -25.472  0.00  0.00    +0.143 HD
ATOM     12  H   UNL     1      35.116 -18.545 -23.789  0.00  0.00    +0.143 HD
ENDROOT
BRANCH   1  15
ATOM     13  O   UNL     1      32.210  -8.669 -21.546  0.00  0.00    -0.270 OA
ATOM     14  N   UNL     1      32.234 -10.994 -21.602  0.00  0.00    -0.274 N 
ATOM     15  C   UNL     1      33.429 -13.117 -21.218  0.00  0.00    +0.117 C 
ATOM     16  C   UNL     1      32.655 -13.291 -19.897  0.00  0.00    +0.025 C 
ATOM     17  C   UNL     1      32.607 -12.279 -22.213  0.00  0.00    +0.115 C 
ATOM     18  C   UNL     1      32.213 -11.938 -19.334  0.00  0.00    +0.023 C 
ATOM     19  C   UNL     1      31.446 -11.125 -20.375  0.00  0.00    +0.094 C 
ATOM     20  C   UNL     1      32.549  -9.725 -22.082  0.00  0.00    +0.249 C 
BRANCH  20  21
ATOM     21  C   UNL     1      33.351  -9.637 -23.318  0.00  0.00    +0.058 C 
ATOM     22  C   UNL     1      34.391  -8.801 -23.353  0.00  0.00    +0.005 C 
ENDBRANCH  20  21
ENDBRANCH   1  15
BRANCH   7  23
ATOM     23  C   UNL     1      35.111 -17.663 -21.313  0.00  0.00    +0.016 C 
ATOM     24  C   UNL     1      34.243 -18.697 -20.960  0.00  0.00    +0.004 C 
ATOM     25  C   UNL     1      36.488 -17.828 -21.168  0.00  0.00    +0.004 C 
ATOM     26  C   UNL     1      34.754 -19.895 -20.461  0.00  0.00    +0.038 C 
ATOM     27  C   UNL     1      36.999 -19.027 -20.670  0.00  0.00    +0.038 C 
ATOM     28  C   UNL     1      36.131 -20.060 -20.317  0.00  0.00    +0.145 C 
BRANCH  28  29
ATOM     29  O   UNL     1      36.629 -21.229 -19.827  0.00  0.00    -0.453 OA
BRANCH  29  30
ATOM     30  C   UNL     1      36.094 -21.712 -18.645  0.00  0.00    +0.145 C 
ATOM     31  C   UNL     1      34.808 -22.254 -18.632  0.00  0.00    +0.037 C 
ATOM     32  C   UNL     1      36.839 -21.658 -17.467  0.00  0.00    +0.037 C 
ATOM     33  C   UNL     1      34.268 -22.740 -17.441  0.00  0.00    +0.003 C 
ATOM     34  C   UNL     1      36.300 -22.144 -16.277  0.00  0.00    +0.003 C 
ATOM     35  C   UNL     1      35.014 -22.685 -16.264  0.00  0.00    +0.000 C 
ENDBRANCH  29  30
ENDBRANCH  28  29
ENDBRANCH   7  23
TORSDOF 5
ENDMDL
MODEL 4
REMARK VINA RESULT:     -12.0      8.405     14.933
REMARK  Name = 24821094
REMARK  5 active torsions:
REMARK  status: ('A' for Active; 'I' for Inactive)
REMARK    1  A    between atoms: N_1  and  C_12
REMARK    2  A    between atoms: C_7  and  C_20
REMARK    3  A    between atoms: C_17  and  C_18
REMARK    4  A    between atoms: C_25  and  O_26
REMARK    5  A    between atoms: O_26  and  C_27
REMARK                            x       y       z     vdW  Elec       q    Type
REMARK                         _______ _______ _______ _____ _____    ______ ____
ROOT
ATOM      1  N   UNL     1      32.378  -9.274 -22.364  0.00  0.00    -0.198 N 
ATOM      2  N   UNL     1      32.829 -10.199 -23.231  0.00  0.00    -0.181 NA
ATOM      3  N   UNL     1      31.612  -9.098 -20.075  0.00  0.00    -0.231 NA
ATOM      4  N   UNL     1      31.654 -11.257 -18.941  0.00  0.00    -0.234 NA
ATOM      5  C   UNL     1      32.078  -9.778 -21.134  0.00  0.00    +0.137 C 
ATOM      6  C   UNL     1      32.354 -11.132 -21.199  0.00  0.00    +0.150 C 
ATOM      7  C   UNL     1      32.812 -11.330 -22.515  0.00  0.00    +0.090 C 
ATOM      8  C   UNL     1      32.125 -11.879 -20.048  0.00  0.00    +0.112 C 
ATOM      9  C   UNL     1      31.429  -9.924 -19.022  0.00  0.00    +0.252 C 
ATOM     10  N   UNL     1      32.376 -13.263 -20.015  0.00  0.00    -0.346 N 
ATOM     11  H   UNL     1      32.208 -13.774 -19.189  0.00  0.00    +0.143 HD
ATOM     12  H   UNL     1      32.720 -13.722 -20.815  0.00  0.00    +0.143 HD
ENDROOT
BRANCH   1  15
ATOM     13  O   UNL     1      33.530  -4.166 -25.324  0.00  0.00    -0.270 OA
ATOM     14  N   UNL     1      32.656  -6.203 -24.621  0.00  0.00    -0.274 N 
ATOM     15  C   UNL     1      32.250  -7.830 -22.813  0.00  0.00    +0.117 C 
ATOM     16  C   UNL     1      30.797  -7.325 -22.711  0.00  0.00    +0.025 C 
ATOM     17  C   UNL     1      32.792  -7.616 -24.237  0.00  0.00    +0.115 C 
ATOM     18  C   UNL     1      30.682  -5.877 -23.195  0.00  0.00    +0.023 C 
ATOM     19  C   UNL     1      31.279  -5.707 -24.591  0.00  0.00    +0.094 C 
ATOM     20  C   UNL     1      33.684  -5.344 -25.000  0.00  0.00    +0.249 C 
BRANCH  20  21
ATOM     21  C   UNL     1      35.060  -5.881 -25.010  0.00  0.00    +0.058 C 
ATOM     22  C   UNL     1      35.927  -5.414 -25.910  0.00  0.00    +0.005 C 
ENDBRANCH  20  21
ENDBRANCH   1  15
BRANCH   7  23
ATOM     23  C   UNL     1      33.238 -12.567 -23.119  0.00  0.00    +0.016 C 
ATOM     24  C   UNL     1      34.255 -13.316 -22.528  0.00  0.00    +0.004 C 
ATOM     25  C   UNL     1      32.632 -13.016 -24.292  0.00  0.00    +0.004 C 
ATOM     26  C   UNL     1      34.667 -14.514 -23.112  0.00  0.00    +0.038 C 
ATOM     27  C   UNL     1      33.043 -14.215 -24.875  0.00  0.00    +0.038 C 
ATOM     28  C   UNL     1      34.061 -14.963 -24.285  0.00  0.00    +0.145 C 
BRANCH  28  29
ATOM     29  O   UNL     1      34.465 -16.131 -24.857  0.00  0.00    -0.453 OA
BRANCH  29  30
ATOM     30  C   UNL     1      34.672 -17.218 -24.024  0.00  0.00    +0.145 C 
ATOM     31  C   UNL     1      34.130 -18.460 -24.352  0.00  0.00    +0.037 C 
ATOM     32  C   UNL     1      35.422 -17.070 -22.857  0.00  0.00    +0.037 C 
ATOM     33  C   UNL     1      34.338 -19.556 -23.512  0.00  0.00    +0.003 C 
ATOM     34  C   UNL     1      35.630 -18.165 -22.018  0.00  0.00    +0.003 C 
ATOM     35  C   UNL     1      35.087 -19.407 -22.346  0.00  0.00    +0.000 C 
ENDBRANCH  29  30
ENDBRANCH  28  29
ENDBRANCH   7  23
TORSDOF 5
ENDMDL
MODEL 5
REMARK VINA RESULT:     -11.5      1.000      2.153
REMARK  Name = 24821094
REMARK  5 active torsions:
REMARK  status: ('A' for Active; 'I' for Inactive)
REMARK    1  A    between atoms: N_1  and  C_12
REMARK    2  A    between atoms: C_7  and  C_20
REMARK    3  A    between atoms: C_17  and  C_18
REMARK    4  A    between atoms: C_25  and  O_26
REMARK    5  A    between atoms: O_26  and  C_27
REMARK                            x       y       z     vdW  Elec       q    Type
REMARK                         _______ _______ _______ _____ _____    ______ ____
ROOT
ATOM      1  N   UNL     1      34.821 -23.580 -15.392  0.00  0.00    -0.198 N 
ATOM      2  N   UNL     1      35.574 -22.949 -16.311  0.00  0.00    -0.181 NA
ATOM      3  N   UNL     1      32.493 -23.996 -14.875  0.00  0.00    -0.231 NA
ATOM      4  N   UNL     1      31.007 -22.964 -16.511  0.00  0.00    -0.234 NA
ATOM      5  C   UNL     1      33.481 -23.473 -15.618  0.00  0.00    +0.137 C 
ATOM      6  C   UNL     1      33.347 -22.718 -16.770  0.00  0.00    +0.150 C 
ATOM      7  C   UNL     1      34.670 -22.426 -17.148  0.00  0.00    +0.090 C 
ATOM      8  C   UNL     1      32.053 -22.466 -17.213  0.00  0.00    +0.112 C 
ATOM      9  C   UNL     1      31.287 -23.687 -15.401  0.00  0.00    +0.252 C 
ATOM     10  N   UNL     1      31.813 -21.709 -18.375  0.00  0.00    -0.346 N 
ATOM     11  H   UNL     1      30.889 -21.544 -18.672  0.00  0.00    +0.143 HD
ATOM     12  H   UNL     1      32.569 -21.347 -18.891  0.00  0.00    +0.143 HD
ENDROOT
BRANCH   1  15
ATOM     13  O   UNL     1      39.155 -26.221 -12.165  0.00  0.00    -0.270 OA
ATOM     14  N   UNL     1      37.606 -24.724 -13.040  0.00  0.00    -0.274 N 
ATOM     15  C   UNL     1      35.496 -24.313 -14.248  0.00  0.00    +0.117 C 
ATOM     16  C   UNL     1      34.800 -24.037 -12.901  0.00  0.00    +0.025 C 
ATOM     17  C   UNL     1      36.996 -23.983 -14.154  0.00  0.00    +0.115 C 
ATOM     18  C   UNL     1      35.513 -24.760 -11.755  0.00  0.00    +0.023 C 
ATOM     19  C   UNL     1      37.005 -24.439 -11.735  0.00  0.00    +0.094 C 
ATOM     20  C   UNL     1      38.664 -25.624 -13.124  0.00  0.00    +0.249 C 
BRANCH  20  21
ATOM     21  C   UNL     1      39.236 -25.889 -14.459  0.00  0.00    +0.058 C 
ATOM     22  C   UNL     1      40.559 -25.819 -14.619  0.00  0.00    +0.005 C 
ENDBRANCH  20  21
ENDBRANCH   1  15
BRANCH   7  23
ATOM     23  C   UNL     1      35.108 -21.660 -18.288  0.00  0.00    +0.016 C 
ATOM     24  C   UNL     1      34.192 -21.293 -19.273  0.00  0.00    +0.004 C 
ATOM     25  C   UNL     1      36.446 -21.284 -18.405  0.00  0.00    +0.004 C 
ATOM     26  C   UNL     1      34.615 -20.551 -20.376  0.00  0.00    +0.038 C 
ATOM     27  C   UNL     1      36.869 -20.541 -19.508  0.00  0.00    +0.038 C 
ATOM     28  C   UNL     1      35.952 -20.175 -20.493  0.00  0.00    +0.145 C 
BRANCH  28  29
ATOM     29  O   UNL     1      36.366 -19.454 -21.571  0.00  0.00    -0.453 OA
BRANCH  29  30
ATOM     30  C   UNL     1      35.782 -18.216 -21.780  0.00  0.00    +0.145 C 
ATOM     31  C   UNL     1      35.421 -17.824 -23.069  0.00  0.00    +0.037 C 
ATOM     32  C   UNL     1      35.555 -17.360 -20.702  0.00  0.00    +0.037 C 
ATOM     33  C   UNL     1      34.833 -16.575 -23.280  0.00  0.00    +0.003 C 
ATOM     34  C   UNL     1      34.968 -16.113 -20.911  0.00  0.00    +0.003 C 
ATOM     35  C   UNL     1      34.608 -15.721 -22.201  0.00  0.00    +0.000 C 
ENDBRANCH  29  30
ENDBRANCH  28  29
ENDBRANCH   7  23
TORSDOF 5
ENDMDL
MODEL 6
REMARK VINA RESULT:     -11.1      2.703      5.036
REMARK  Name = 24821094
REMARK  5 active torsions:
REMARK  status: ('A' for Active; 'I' for Inactive)
REMARK    1  A    between atoms: N_1  and  C_12
REMARK    2  A    between atoms: C_7  and  C_20
REMARK    3  A    between atoms: C_17  and  C_18
REMARK    4  A    between atoms: C_25  and  O_26
REMARK    5  A    between atoms: O_26  and  C_27
REMARK                            x       y       z     vdW  Elec       q    Type
REMARK                         _______ _______ _______ _____ _____    ______ ____
ROOT
ATOM      1  N   UNL     1      33.627 -23.118 -15.523  0.00  0.00    -0.198 N 
ATOM      2  N   UNL     1      33.506 -22.530 -16.728  0.00  0.00    -0.181 NA
ATOM      3  N   UNL     1      35.338 -23.734 -13.927  0.00  0.00    -0.231 NA
ATOM      4  N   UNL     1      37.565 -23.113 -14.706  0.00  0.00    -0.234 NA
ATOM      5  C   UNL     1      34.914 -23.203 -15.083  0.00  0.00    +0.137 C 
ATOM      6  C   UNL     1      35.693 -22.628 -16.072  0.00  0.00    +0.150 C 
ATOM      7  C   UNL     1      34.768 -22.234 -17.056  0.00  0.00    +0.090 C 
ATOM      8  C   UNL     1      37.066 -22.593 -15.853  0.00  0.00    +0.112 C 
ATOM      9  C   UNL     1      36.683 -23.644 -13.826  0.00  0.00    +0.252 C 
ATOM     10  N   UNL     1      37.942 -22.028 -16.798  0.00  0.00    -0.346 N 
ATOM     11  H   UNL     1      38.911 -22.013 -16.623  0.00  0.00    +0.143 HD
ATOM     12  H   UNL     1      37.586 -21.647 -17.634  0.00  0.00    +0.143 HD
ENDROOT
BRANCH   1  15
ATOM     13  O   UNL     1      27.831 -24.337 -14.471  0.00  0.00    -0.270 OA
ATOM     14  N   UNL     1      30.083 -24.462 -15.038  0.00  0.00    -0.274 N 
ATOM     15  C   UNL     1      32.384 -23.608 -14.803  0.00  0.00    +0.117 C 
ATOM     16  C   UNL     1      32.699 -24.774 -13.845  0.00  0.00    +0.025 C 
ATOM     17  C   UNL     1      31.267 -24.006 -15.782  0.00  0.00    +0.115 C 
ATOM     18  C   UNL     1      31.430 -25.274 -13.151  0.00  0.00    +0.023 C 
ATOM     19  C   UNL     1      30.336 -25.608 -14.162  0.00  0.00    +0.094 C 
ATOM     20  C   UNL     1      28.802 -23.921 -15.105  0.00  0.00    +0.249 C 
BRANCH  20  21
ATOM     21  C   UNL     1      28.591 -22.762 -15.995  0.00  0.00    +0.058 C 
ATOM     22  C   UNL     1      27.343 -22.376 -16.265  0.00  0.00    +0.005 C 
ENDBRANCH  20  21
ENDBRANCH   1  15
BRANCH   7  23
ATOM     23  C   UNL     1      35.048 -21.579 -18.310  0.00  0.00    +0.016 C 
ATOM     24  C   UNL     1      34.001 -21.239 -19.167  0.00  0.00    +0.004 C 
ATOM     25  C   UNL     1      36.364 -21.284 -18.665  0.00  0.00    +0.004 C 
ATOM     26  C   UNL     1      34.271 -20.605 -20.379  0.00  0.00    +0.038 C 
ATOM     27  C   UNL     1      36.634 -20.650 -19.878  0.00  0.00    +0.038 C 
ATOM     28  C   UNL     1      35.587 -20.311 -20.735  0.00  0.00    +0.145 C 
BRANCH  28  29
ATOM     29  O   UNL     1      35.851 -19.695 -21.920  0.00  0.00    -0.453 OA
BRANCH  29  30
ATOM     30  C   UNL     1      35.497 -18.362 -22.046  0.00  0.00    +0.145 C 
ATOM     31  C   UNL     1      35.439 -17.547 -20.915  0.00  0.00    +0.037 C 
ATOM     32  C   UNL     1      35.199 -17.834 -23.302  0.00  0.00    +0.037 C 
ATOM     33  C   UNL     1      35.082 -16.203 -21.042  0.00  0.00    +0.003 C 
ATOM     34  C   UNL     1      34.843 -16.492 -23.429  0.00  0.00    +0.003 C 
ATOM     35  C   UNL     1      34.784 -15.677 -22.298  0.00  0.00    +0.000 C 
ENDBRANCH  29  30
ENDBRANCH  28  29
ENDBRANCH   7  23
TORSDOF 5
ENDMDL
MODEL 7
REMARK VINA RESULT:     -10.9      9.205     13.911
REMARK  Name = 24821094
REMARK  5 active torsions:
REMARK  status: ('A' for Active; 'I' for Inactive)
REMARK    1  A    between atoms: N_1  and  C_12
REMARK    2  A    between atoms: C_7  and  C_20
REMARK    3  A    between atoms: C_17  and  C_18
REMARK    4  A    between atoms: C_25  and  O_26
REMARK    5  A    between atoms: O_26  and  C_27
REMARK                            x       y       z     vdW  Elec       q    Type
REMARK                         _______ _______ _______ _____ _____    ______ ____
ROOT
ATOM      1  N   UNL     1      32.761 -11.346 -21.652  0.00  0.00    -0.198 N 
ATOM      2  N   UNL     1      33.136 -10.661 -22.749  0.00  0.00    -0.181 NA
ATOM      3  N   UNL     1      31.752 -10.964 -19.486  0.00  0.00    -0.231 NA
ATOM      4  N   UNL     1      31.232  -8.607 -19.135  0.00  0.00    -0.234 NA
ATOM      5  C   UNL     1      32.214 -10.563 -20.680  0.00  0.00    +0.137 C 
ATOM      6  C   UNL     1      32.230  -9.271 -21.177  0.00  0.00    +0.150 C 
ATOM      7  C   UNL     1      32.809  -9.398 -22.452  0.00  0.00    +0.090 C 
ATOM      8  C   UNL     1      31.715  -8.273 -20.356  0.00  0.00    +0.112 C 
ATOM      9  C   UNL     1      31.280  -9.913 -18.781  0.00  0.00    +0.252 C 
ATOM     10  N   UNL     1      31.687  -6.929 -20.772  0.00  0.00    -0.346 N 
ATOM     11  H   UNL     1      31.317  -6.238 -20.175  0.00  0.00    +0.143 HD
ATOM     12  H   UNL     1      32.035  -6.680 -21.658  0.00  0.00    +0.143 HD
ENDROOT
BRANCH   1  15
ATOM     13  O   UNL     1      34.599 -16.840 -23.270  0.00  0.00    -0.270 OA
ATOM     14  N   UNL     1      34.394 -14.741 -22.290  0.00  0.00    -0.274 N 
ATOM     15  C   UNL     1      32.973 -12.847 -21.601  0.00  0.00    +0.117 C 
ATOM     16  C   UNL     1      33.010 -13.371 -20.152  0.00  0.00    +0.025 C 
ATOM     17  C   UNL     1      34.239 -13.280 -22.359  0.00  0.00    +0.115 C 
ATOM     18  C   UNL     1      33.253 -14.882 -20.119  0.00  0.00    +0.023 C 
ATOM     19  C   UNL     1      34.492 -15.265 -20.926  0.00  0.00    +0.094 C 
ATOM     20  C   UNL     1      34.460 -15.619 -23.367  0.00  0.00    +0.249 C 
BRANCH  20  21
ATOM     21  C   UNL     1      34.350 -15.051 -24.726  0.00  0.00    +0.058 C 
ATOM     22  C   UNL     1      33.151 -15.002 -25.309  0.00  0.00    +0.005 C 
ENDBRANCH  20  21
ENDBRANCH   1  15
BRANCH   7  23
ATOM     23  C   UNL     1      33.065  -8.349 -23.408  0.00  0.00    +0.016 C 
ATOM     24  C   UNL     1      32.093  -8.014 -24.351  0.00  0.00    +0.004 C 
ATOM     25  C   UNL     1      34.281  -7.668 -23.388  0.00  0.00    +0.004 C 
ATOM     26  C   UNL     1      32.340  -6.999 -25.275  0.00  0.00    +0.038 C 
ATOM     27  C   UNL     1      34.528  -6.651 -24.311  0.00  0.00    +0.038 C 
ATOM     28  C   UNL     1      33.557  -6.317 -25.255  0.00  0.00    +0.145 C 
BRANCH  28  29
ATOM     29  O   UNL     1      33.798  -5.328 -26.158  0.00  0.00    -0.453 OA
BRANCH  29  30
ATOM     30  C   UNL     1      34.262  -5.698 -27.409  0.00  0.00    +0.145 C 
ATOM     31  C   UNL     1      33.375  -5.791 -28.482  0.00  0.00    +0.037 C 
ATOM     32  C   UNL     1      35.615  -5.979 -27.598  0.00  0.00    +0.037 C 
ATOM     33  C   UNL     1      33.842  -6.165 -29.743  0.00  0.00    +0.003 C 
ATOM     34  C   UNL     1      36.082  -6.352 -28.857  0.00  0.00    +0.003 C 
ATOM     35  C   UNL     1      35.195  -6.446 -29.930  0.00  0.00    +0.000 C 
ENDBRANCH  29  30
ENDBRANCH  28  29
ENDBRANCH   7  23
TORSDOF 5
ENDMDL
MODEL 8
REMARK VINA RESULT:     -10.9      1.847      3.507
REMARK  Name = 24821094
REMARK  5 active torsions:
REMARK  status: ('A' for Active; 'I' for Inactive)
REMARK    1  A    between atoms: N_1  and  C_12
REMARK    2  A    between atoms: C_7  and  C_20
REMARK    3  A    between atoms: C_17  and  C_18
REMARK    4  A    between atoms: C_25  and  O_26
REMARK    5  A    between atoms: O_26  and  C_27
REMARK                            x       y       z     vdW  Elec       q    Type
REMARK                         _______ _______ _______ _____ _____    ______ ____
ROOT
ATOM      1  N   UNL     1      34.045 -24.177 -14.210  0.00  0.00    -0.198 N 
ATOM      2  N   UNL     1      34.480 -23.576 -15.333  0.00  0.00    -0.181 NA
ATOM      3  N   UNL     1      31.972 -24.790 -13.121  0.00  0.00    -0.231 NA
ATOM      4  N   UNL     1      30.030 -24.130 -14.442  0.00  0.00    -0.234 NA
ATOM      5  C   UNL     1      32.687 -24.249 -14.120  0.00  0.00    +0.137 C 
ATOM      6  C   UNL     1      32.197 -23.653 -15.268  0.00  0.00    +0.150 C 
ATOM      7  C   UNL     1      33.349 -23.260 -15.973  0.00  0.00    +0.090 C 
ATOM      8  C   UNL     1      30.814 -23.603 -15.413  0.00  0.00    +0.112 C 
ATOM      9  C   UNL     1      30.649 -24.683 -13.371  0.00  0.00    +0.252 C 
ATOM     10  N   UNL     1      30.219 -23.019 -16.546  0.00  0.00    -0.346 N 
ATOM     11  H   UNL     1      29.238 -22.995 -16.629  0.00  0.00    +0.143 HD
ATOM     12  H   UNL     1      30.783 -22.636 -17.256  0.00  0.00    +0.143 HD
ENDROOT
BRANCH   1  15
ATOM     13  O   UNL     1      39.277 -26.078 -11.930  0.00  0.00    -0.270 OA
ATOM     14  N   UNL     1      37.431 -24.809 -12.556  0.00  0.00    -0.274 N 
ATOM     15  C   UNL     1      35.053 -24.690 -13.199  0.00  0.00    +0.117 C 
ATOM     16  C   UNL     1      34.708 -24.240 -11.765  0.00  0.00    +0.025 C 
ATOM     17  C   UNL     1      36.493 -24.280 -13.556  0.00  0.00    +0.115 C 
ATOM     18  C   UNL     1      35.752 -24.742 -10.764  0.00  0.00    +0.023 C 
ATOM     19  C   UNL     1      37.166 -24.352 -11.190  0.00  0.00    +0.094 C 
ATOM     20  C   UNL     1      38.505 -25.661 -12.795  0.00  0.00    +0.249 C 
BRANCH  20  21
ATOM     21  C   UNL     1      38.734 -26.105 -14.185  0.00  0.00    +0.058 C 
ATOM     22  C   UNL     1      39.877 -25.771 -14.788  0.00  0.00    +0.005 C 
ENDBRANCH  20  21
ENDBRANCH   1  15
BRANCH   7  23
ATOM     23  C   UNL     1      33.411 -22.588 -17.247  0.00  0.00    +0.016 C 
ATOM     24  C   UNL     1      34.529 -22.746 -18.065  0.00  0.00    +0.004 C 
ATOM     25  C   UNL     1      32.352 -21.781 -17.662  0.00  0.00    +0.004 C 
ATOM     26  C   UNL     1      34.589 -22.096 -19.297  0.00  0.00    +0.038 C 
ATOM     27  C   UNL     1      32.411 -21.131 -18.896  0.00  0.00    +0.038 C 
ATOM     28  C   UNL     1      33.530 -21.289 -19.713  0.00  0.00    +0.145 C 
BRANCH  28  29
ATOM     29  O   UNL     1      33.590 -20.652 -20.915  0.00  0.00    -0.453 OA
BRANCH  29  30
ATOM     30  C   UNL     1      34.714 -19.890 -21.184  0.00  0.00    +0.145 C 
ATOM     31  C   UNL     1      35.791 -19.898 -20.298  0.00  0.00    +0.037 C 
ATOM     32  C   UNL     1      34.769 -19.113 -22.342  0.00  0.00    +0.037 C 
ATOM     33  C   UNL     1      36.923 -19.129 -20.569  0.00  0.00    +0.003 C 
ATOM     34  C   UNL     1      35.900 -18.345 -22.614  0.00  0.00    +0.003 C 
ATOM     35  C   UNL     1      36.977 -18.352 -21.727  0.00  0.00    +0.000 C 
ENDBRANCH  29  30
ENDBRANCH  28  29
ENDBRANCH   7  23
TORSDOF 5
ENDMDL
MODEL 9
REMARK VINA RESULT:     -10.6      9.026     15.841
REMARK  Name = 24821094
REMARK  5 active torsions:
REMARK  status: ('A' for Active; 'I' for Inactive)
REMARK    1  A    between atoms: N_1  and  C_12
REMARK    2  A    between atoms: C_7  and  C_20
REMARK    3  A    between atoms: C_17  and  C_18
REMARK    4  A    between atoms: C_25  and  O_26
REMARK    5  A    between atoms: O_26  and  C_27
REMARK                            x       y       z     vdW  Elec       q    Type
REMARK                         _______ _______ _______ _____ _____    ______ ____
ROOT
ATOM      1  N   UNL     1      32.078  -8.074 -22.833  0.00  0.00    -0.198 N 
ATOM      2  N   UNL     1      32.438  -9.149 -23.558  0.00  0.00    -0.181 NA
ATOM      3  N   UNL     1      31.550  -7.473 -20.549  0.00  0.00    -0.231 NA
ATOM      4  N   UNL     1      31.707  -9.392 -19.052  0.00  0.00    -0.234 NA
ATOM      5  C   UNL     1      31.905  -8.341 -21.508  0.00  0.00    +0.137 C 
ATOM      6  C   UNL     1      32.172  -9.691 -21.353  0.00  0.00    +0.150 C 
ATOM      7  C   UNL     1      32.493 -10.131 -22.651  0.00  0.00    +0.090 C 
ATOM      8  C   UNL     1      32.062 -10.213 -20.069  0.00  0.00    +0.112 C 
ATOM      9  C   UNL     1      31.476  -8.092 -19.350  0.00  0.00    +0.252 C 
ATOM     10  N   UNL     1      32.315 -11.573 -19.810  0.00  0.00    -0.346 N 
ATOM     11  H   UNL     1      32.232 -11.922 -18.893  0.00  0.00    +0.143 HD
ATOM     12  H   UNL     1      32.575 -12.174 -20.544  0.00  0.00    +0.143 HD
ENDROOT
BRANCH   1  15
ATOM     13  O   UNL     1      31.613  -2.119 -23.543  0.00  0.00    -0.270 OA
ATOM     14  N   UNL     1      32.376  -4.314 -23.442  0.00  0.00    -0.274 N 
ATOM     15  C   UNL     1      31.905  -6.733 -23.521  0.00  0.00    +0.117 C 
ATOM     16  C   UNL     1      32.415  -6.765 -24.976  0.00  0.00    +0.025 C 
ATOM     17  C   UNL     1      32.581  -5.591 -22.743  0.00  0.00    +0.115 C 
ATOM     18  C   UNL     1      32.260  -5.397 -25.644  0.00  0.00    +0.023 C 
ATOM     19  C   UNL     1      32.903  -4.292 -24.808  0.00  0.00    +0.094 C 
ATOM     20  C   UNL     1      31.759  -3.176 -22.929  0.00  0.00    +0.249 C 
BRANCH  20  21
ATOM     21  C   UNL     1      31.235  -3.242 -21.550  0.00  0.00    +0.058 C 
ATOM     22  C   UNL     1      29.955  -3.570 -21.361  0.00  0.00    +0.005 C 
ENDBRANCH  20  21
ENDBRANCH   1  15
BRANCH   7  23
ATOM     23  C   UNL     1      32.855 -11.465 -23.059  0.00  0.00    +0.016 C 
ATOM     24  C   UNL     1      33.992 -11.670 -23.840  0.00  0.00    +0.004 C 
ATOM     25  C   UNL     1      32.069 -12.550 -22.673  0.00  0.00    +0.004 C 
ATOM     26  C   UNL     1      34.343 -12.961 -24.235  0.00  0.00    +0.038 C 
ATOM     27  C   UNL     1      32.420 -13.842 -23.067  0.00  0.00    +0.038 C 
ATOM     28  C   UNL     1      33.557 -14.046 -23.849  0.00  0.00    +0.145 C 
BRANCH  28  29
ATOM     29  O   UNL     1      33.897 -15.306 -24.237  0.00  0.00    -0.453 OA
BRANCH  29  30
ATOM     30  C   UNL     1      34.471 -16.139 -23.291  0.00  0.00    +0.145 C 
ATOM     31  C   UNL     1      34.741 -15.657 -22.010  0.00  0.00    +0.037 C 
ATOM     32  C   UNL     1      34.780 -17.459 -23.618  0.00  0.00    +0.037 C 
ATOM     33  C   UNL     1      35.320 -16.495 -21.057  0.00  0.00    +0.003 C 
ATOM     34  C   UNL     1      35.358 -18.297 -22.666  0.00  0.00    +0.003 C 
ATOM     35  C   UNL     1      35.629 -17.815 -21.386  0.00  0.00    +0.000 C 
ENDBRANCH  29  30
ENDBRANCH  28  29
ENDBRANCH   7  23
TORSDOF 5
ENDMDL
