MODEL 1
REMARK VINA RESULT:      -9.9      0.000      0.000
REMARK  Name = 135565884
REMARK  6 active torsions:
REMARK  status: ('A' for Active; 'I' for Inactive)
REMARK    1  A    between atoms: C_4  and  C_13
REMARK    2  A    between atoms: C_8  and  C_36
REMARK    3  A    between atoms: C_9  and  C_21
REMARK    4  A    between atoms: C_18  and  C_19
REMARK    5  A    between atoms: C_26  and  O_27
REMARK    6  A    between atoms: O_27  and  C_28
REMARK                            x       y       z     vdW  Elec       q    Type
REMARK                         _______ _______ _______ _____ _____    ______ ____
ROOT
ATOM      1  N   UNL     1      31.604  -5.723 -23.118  0.00  0.00    -0.240 N 
ATOM      2  N   UNL     1      31.823  -4.503 -21.104  0.00  0.00    -0.318 N 
ATOM      3  N   UNL     1      31.605  -6.972 -23.621  0.00  0.00    -0.168 NA
ATOM      4  C   UNL     1      31.312  -4.560 -23.949  0.00  0.00    +0.108 C 
ATOM      5  C   UNL     1      31.798  -3.285 -23.233  0.00  0.00    +0.046 C 
ATOM      6  C   UNL     1      31.370  -3.288 -21.764  0.00  0.00    +0.090 C 
ATOM      7  C   UNL     1      31.837  -5.676 -21.768  0.00  0.00    +0.131 A 
ATOM      8  C   UNL     1      32.064  -6.974 -21.378  0.00  0.00    +0.103 A 
ATOM      9  C   UNL     1      31.904  -7.727 -22.560  0.00  0.00    +0.108 A 
ATOM     10  H   UNL     1      32.119  -4.468 -20.166  0.00  0.00    +0.148 HD
ENDROOT
BRANCH   4  13
ATOM     11  O   UNL     1      34.195  -1.790 -28.722  0.00  0.00    -0.270 OA
ATOM     12  N   UNL     1      33.695  -3.659 -27.431  0.00  0.00    -0.276 N 
ATOM     13  C   UNL     1      31.925  -4.647 -25.344  0.00  0.00    +0.026 C 
ATOM     14  C   UNL     1      31.588  -3.397 -26.168  0.00  0.00    +0.023 C 
ATOM     15  C   UNL     1      33.446  -4.826 -25.263  0.00  0.00    +0.023 C 
ATOM     16  C   UNL     1      32.248  -3.455 -27.542  0.00  0.00    +0.094 C 
ATOM     17  C   UNL     1      34.088  -4.842 -26.651  0.00  0.00    +0.094 C 
ATOM     18  C   UNL     1      34.556  -2.773 -28.074  0.00  0.00    +0.249 C 
BRANCH  18  19
ATOM     19  C   UNL     1      36.007  -3.033 -27.979  0.00  0.00    +0.058 C 
ATOM     20  C   UNL     1      36.743  -2.284 -27.155  0.00  0.00    +0.005 C 
ENDBRANCH  18  19
ENDBRANCH   4  13
BRANCH   9  21
ATOM     21  C   UNL     1      32.024  -9.156 -22.701  0.00  0.00    +0.020 C 
ATOM     22  C   UNL     1      33.101  -9.700 -23.401  0.00  0.00    +0.005 C 
ATOM     23  C   UNL     1      31.062  -9.995 -22.138  0.00  0.00    +0.005 C 
ATOM     24  C   UNL     1      33.216 -11.084 -23.539  0.00  0.00    +0.038 C 
ATOM     25  C   UNL     1      31.177 -11.378 -22.276  0.00  0.00    +0.038 C 
ATOM     26  C   UNL     1      32.253 -11.922 -22.976  0.00  0.00    +0.145 C 
BRANCH  26  27
ATOM     27  O   UNL     1      32.364 -13.272 -23.110  0.00  0.00    -0.453 OA
BRANCH  27  28
ATOM     28  C   UNL     1      33.100 -13.955 -22.157  0.00  0.00    +0.145 C 
ATOM     29  C   UNL     1      32.743 -13.876 -20.811  0.00  0.00    +0.037 C 
ATOM     30  C   UNL     1      34.201 -14.720 -22.542  0.00  0.00    +0.037 C 
ATOM     31  C   UNL     1      33.485 -14.563 -19.850  0.00  0.00    +0.003 C 
ATOM     32  C   UNL     1      34.943 -15.408 -21.581  0.00  0.00    +0.003 C 
ATOM     33  C   UNL     1      34.586 -15.329 -20.235  0.00  0.00    +0.000 C 
ENDBRANCH  27  28
ENDBRANCH  26  27
ENDBRANCH   9  21
BRANCH   8  36
ATOM     34  O   UNL     1      31.597  -8.103 -19.365  0.00  0.00    -0.270 OA
ATOM     35  N   UNL     1      33.632  -7.057 -19.515  0.00  0.00    -0.325 N 
ATOM     36  C   UNL     1      32.385  -7.409 -20.051  0.00  0.00    +0.247 C 
ATOM     37  H   UNL     1      33.876  -7.344 -18.606  0.00  0.00    +0.145 HD
ATOM     38  H   UNL     1      34.264  -6.523 -20.049  0.00  0.00    +0.145 HD
ENDBRANCH   8  36
TORSDOF 6
ENDMDL
MODEL 2
REMARK VINA RESULT:      -9.8     12.127     18.003
REMARK  Name = 135565884
REMARK  6 active torsions:
REMARK  status: ('A' for Active; 'I' for Inactive)
REMARK    1  A    between atoms: C_4  and  C_13
REMARK    2  A    between atoms: C_8  and  C_36
REMARK    3  A    between atoms: C_9  and  C_21
REMARK    4  A    between atoms: C_18  and  C_19
REMARK    5  A    between atoms: C_26  and  O_27
REMARK    6  A    between atoms: O_27  and  C_28
REMARK                            x       y       z     vdW  Elec       q    Type
REMARK                         _______ _______ _______ _____ _____    ______ ____
ROOT
ATOM      1  N   UNL     1      34.736 -23.715 -14.527  0.00  0.00    -0.240 N 
ATOM      2  N   UNL     1      36.739 -23.557 -13.281  0.00  0.00    -0.318 N 
ATOM      3  N   UNL     1      34.188 -23.417 -15.720  0.00  0.00    -0.168 NA
ATOM      4  C   UNL     1      34.007 -24.472 -13.514  0.00  0.00    +0.108 C 
ATOM      5  C   UNL     1      34.690 -24.286 -12.146  0.00  0.00    +0.046 C 
ATOM      6  C   UNL     1      36.206 -24.454 -12.267  0.00  0.00    +0.090 C 
ATOM      7  C   UNL     1      36.034 -23.296 -14.399  0.00  0.00    +0.131 A 
ATOM      8  C   UNL     1      36.332 -22.629 -15.563  0.00  0.00    +0.103 A 
ATOM      9  C   UNL     1      35.161 -22.740 -16.339  0.00  0.00    +0.108 A 
ATOM     10  H   UNL     1      37.622 -23.140 -13.149  0.00  0.00    +0.148 HD
ENDROOT
BRANCH   4  13
ATOM     11  O   UNL     1      28.949 -21.951 -16.127  0.00  0.00    -0.270 OA
ATOM     12  N   UNL     1      29.979 -23.419 -14.646  0.00  0.00    -0.276 N 
ATOM     13  C   UNL     1      32.532 -24.091 -13.423  0.00  0.00    +0.026 C 
ATOM     14  C   UNL     1      32.280 -22.724 -14.075  0.00  0.00    +0.023 C 
ATOM     15  C   UNL     1      31.649 -25.156 -14.084  0.00  0.00    +0.023 C 
ATOM     16  C   UNL     1      30.796 -22.367 -14.038  0.00  0.00    +0.094 C 
ATOM     17  C   UNL     1      30.172 -24.757 -14.068  0.00  0.00    +0.094 C 
ATOM     18  C   UNL     1      29.089 -23.083 -15.664  0.00  0.00    +0.249 C 
BRANCH  18  19
ATOM     19  C   UNL     1      28.247 -24.159 -16.225  0.00  0.00    +0.058 C 
ATOM     20  C   UNL     1      27.495 -23.896 -17.296  0.00  0.00    +0.005 C 
ENDBRANCH  18  19
ENDBRANCH   4  13
BRANCH   9  21
ATOM     21  C   UNL     1      34.945 -22.219 -17.665  0.00  0.00    +0.020 C 
ATOM     22  C   UNL     1      36.035 -21.916 -18.482  0.00  0.00    +0.005 C 
ATOM     23  C   UNL     1      33.647 -22.014 -18.131  0.00  0.00    +0.005 C 
ATOM     24  C   UNL     1      35.826 -21.409 -19.765  0.00  0.00    +0.038 C 
ATOM     25  C   UNL     1      33.438 -21.508 -19.413  0.00  0.00    +0.038 C 
ATOM     26  C   UNL     1      34.527 -21.205 -20.230  0.00  0.00    +0.145 C 
BRANCH  26  27
ATOM     27  O   UNL     1      34.321 -20.711 -21.482  0.00  0.00    -0.453 OA
BRANCH  27  28
ATOM     28  C   UNL     1      34.690 -19.399 -21.725  0.00  0.00    +0.145 C 
ATOM     29  C   UNL     1      35.026 -18.561 -20.662  0.00  0.00    +0.037 C 
ATOM     30  C   UNL     1      34.724 -18.915 -23.033  0.00  0.00    +0.037 C 
ATOM     31  C   UNL     1      35.397 -17.238 -20.907  0.00  0.00    +0.003 C 
ATOM     32  C   UNL     1      35.094 -17.592 -23.277  0.00  0.00    +0.003 C 
ATOM     33  C   UNL     1      35.431 -16.754 -22.215  0.00  0.00    +0.000 C 
ENDBRANCH  27  28
ENDBRANCH  26  27
ENDBRANCH   9  21
BRANCH   8  36
ATOM     34  O   UNL     1      38.673 -22.592 -15.817  0.00  0.00    -0.270 OA
ATOM     35  N   UNL     1      37.555 -20.639 -16.255  0.00  0.00    -0.325 N 
ATOM     36  C   UNL     1      37.576 -21.986 -15.868  0.00  0.00    +0.247 C 
ATOM     37  H   UNL     1      38.396 -20.175 -16.470  0.00  0.00    +0.145 HD
ATOM     38  H   UNL     1      36.698 -20.157 -16.312  0.00  0.00    +0.145 HD
ENDBRANCH   8  36
TORSDOF 6
ENDMDL
MODEL 3
REMARK VINA RESULT:      -9.8      1.101      1.703
REMARK  Name = 135565884
REMARK  6 active torsions:
REMARK  status: ('A' for Active; 'I' for Inactive)
REMARK    1  A    between atoms: C_4  and  C_13
REMARK    2  A    between atoms: C_8  and  C_36
REMARK    3  A    between atoms: C_9  and  C_21
REMARK    4  A    between atoms: C_18  and  C_19
REMARK    5  A    between atoms: C_26  and  O_27
REMARK    6  A    between atoms: O_27  and  C_28
REMARK                            x       y       z     vdW  Elec       q    Type
REMARK                         _______ _______ _______ _____ _____    ______ ____
ROOT
ATOM      1  N   UNL     1      31.630  -6.874 -23.126  0.00  0.00    -0.240 N 
ATOM      2  N   UNL     1      31.276  -5.935 -20.984  0.00  0.00    -0.318 N 
ATOM      3  N   UNL     1      31.945  -8.021 -23.755  0.00  0.00    -0.168 NA
ATOM      4  C   UNL     1      31.273  -5.666 -23.863  0.00  0.00    +0.108 C 
ATOM      5  C   UNL     1      31.388  -4.446 -22.930  0.00  0.00    +0.046 C 
ATOM      6  C   UNL     1      30.726  -4.727 -21.580  0.00  0.00    +0.090 C 
ATOM      7  C   UNL     1      31.618  -6.983 -21.760  0.00  0.00    +0.131 A 
ATOM      8  C   UNL     1      32.011  -8.270 -21.480  0.00  0.00    +0.103 A 
ATOM      9  C   UNL     1      32.194  -8.862 -22.747  0.00  0.00    +0.108 A 
ATOM     10  H   UNL     1      31.397  -5.987 -20.009  0.00  0.00    +0.148 HD
ENDROOT
BRANCH   4  13
ATOM     11  O   UNL     1      33.974  -1.786 -27.915  0.00  0.00    -0.270 OA
ATOM     12  N   UNL     1      33.844  -3.820 -26.795  0.00  0.00    -0.276 N 
ATOM     13  C   UNL     1      32.119  -5.453 -25.115  0.00  0.00    +0.026 C 
ATOM     14  C   UNL     1      31.569  -4.292 -25.956  0.00  0.00    +0.023 C 
ATOM     15  C   UNL     1      33.584  -5.185 -24.748  0.00  0.00    +0.023 C 
ATOM     16  C   UNL     1      32.448  -4.040 -27.178  0.00  0.00    +0.094 C 
ATOM     17  C   UNL     1      34.434  -4.897 -25.986  0.00  0.00    +0.094 C 
ATOM     18  C   UNL     1      34.496  -2.670 -27.236  0.00  0.00    +0.249 C 
BRANCH  18  19
ATOM     19  C   UNL     1      35.917  -2.501 -26.871  0.00  0.00    +0.058 C 
ATOM     20  C   UNL     1      36.710  -1.797 -27.681  0.00  0.00    +0.005 C 
ENDBRANCH  18  19
ENDBRANCH   4  13
BRANCH   9  21
ATOM     21  C   UNL     1      32.598 -10.218 -23.020  0.00  0.00    +0.020 C 
ATOM     22  C   UNL     1      31.787 -11.282 -22.622  0.00  0.00    +0.005 C 
ATOM     23  C   UNL     1      33.800 -10.468 -23.680  0.00  0.00    +0.005 C 
ATOM     24  C   UNL     1      32.179 -12.595 -22.885  0.00  0.00    +0.038 C 
ATOM     25  C   UNL     1      34.193 -11.779 -23.944  0.00  0.00    +0.038 C 
ATOM     26  C   UNL     1      33.383 -12.843 -23.546  0.00  0.00    +0.145 C 
BRANCH  26  27
ATOM     27  O   UNL     1      33.766 -14.123 -23.804  0.00  0.00    -0.453 OA
BRANCH  27  28
ATOM     28  C   UNL     1      34.241 -14.879 -22.746  0.00  0.00    +0.145 C 
ATOM     29  C   UNL     1      34.858 -16.106 -22.986  0.00  0.00    +0.037 C 
ATOM     30  C   UNL     1      34.100 -14.414 -21.438  0.00  0.00    +0.037 C 
ATOM     31  C   UNL     1      35.335 -16.868 -21.920  0.00  0.00    +0.003 C 
ATOM     32  C   UNL     1      34.577 -15.176 -20.372  0.00  0.00    +0.003 C 
ATOM     33  C   UNL     1      35.195 -16.403 -20.612  0.00  0.00    +0.000 C 
ENDBRANCH  27  28
ENDBRANCH  26  27
ENDBRANCH   9  21
BRANCH   8  36
ATOM     34  O   UNL     1      31.566  -9.866 -19.806  0.00  0.00    -0.270 OA
ATOM     35  N   UNL     1      33.067  -8.212 -19.286  0.00  0.00    -0.325 N 
ATOM     36  C   UNL     1      32.176  -8.833 -20.173  0.00  0.00    +0.247 C 
ATOM     37  H   UNL     1      33.198  -8.579 -18.382  0.00  0.00    +0.145 HD
ATOM     38  H   UNL     1      33.560  -7.408 -19.567  0.00  0.00    +0.145 HD
ENDBRANCH   8  36
TORSDOF 6
ENDMDL
MODEL 4
REMARK VINA RESULT:      -9.3      1.512      2.310
REMARK  Name = 135565884
REMARK  6 active torsions:
REMARK  status: ('A' for Active; 'I' for Inactive)
REMARK    1  A    between atoms: C_4  and  C_13
REMARK    2  A    between atoms: C_8  and  C_36
REMARK    3  A    between atoms: C_9  and  C_21
REMARK    4  A    between atoms: C_18  and  C_19
REMARK    5  A    between atoms: C_26  and  O_27
REMARK    6  A    between atoms: O_27  and  C_28
REMARK                            x       y       z     vdW  Elec       q    Type
REMARK                         _______ _______ _______ _____ _____    ______ ____
ROOT
ATOM      1  N   UNL     1      31.887  -6.339 -22.947  0.00  0.00    -0.240 N 
ATOM      2  N   UNL     1      31.427  -5.471 -20.796  0.00  0.00    -0.318 N 
ATOM      3  N   UNL     1      32.189  -7.474 -23.603  0.00  0.00    -0.168 NA
ATOM      4  C   UNL     1      31.647  -5.084 -23.652  0.00  0.00    +0.108 C 
ATOM      5  C   UNL     1      31.755  -3.911 -22.660  0.00  0.00    +0.046 C 
ATOM      6  C   UNL     1      30.984  -4.212 -21.374  0.00  0.00    +0.090 C 
ATOM      7  C   UNL     1      31.771  -6.503 -21.591  0.00  0.00    +0.131 A 
ATOM      8  C   UNL     1      32.077  -7.819 -21.343  0.00  0.00    +0.103 A 
ATOM      9  C   UNL     1      32.321  -8.368 -22.618  0.00  0.00    +0.108 A 
ATOM     10  H   UNL     1      31.475  -5.569 -19.817  0.00  0.00    +0.148 HD
ENDROOT
BRANCH   4  13
ATOM     11  O   UNL     1      33.086  -6.090 -29.626  0.00  0.00    -0.270 OA
ATOM     12  N   UNL     1      33.156  -4.810 -27.686  0.00  0.00    -0.276 N 
ATOM     13  C   UNL     1      32.591  -4.866 -24.832  0.00  0.00    +0.026 C 
ATOM     14  C   UNL     1      32.745  -6.154 -25.654  0.00  0.00    +0.023 C 
ATOM     15  C   UNL     1      32.091  -3.728 -25.731  0.00  0.00    +0.023 C 
ATOM     16  C   UNL     1      33.642  -5.923 -26.867  0.00  0.00    +0.094 C 
ATOM     17  C   UNL     1      32.984  -3.543 -26.958  0.00  0.00    +0.094 C 
ATOM     18  C   UNL     1      32.932  -5.015 -29.045  0.00  0.00    +0.249 C 
BRANCH  18  19
ATOM     19  C   UNL     1      32.486  -3.860 -29.851  0.00  0.00    +0.058 C 
ATOM     20  C   UNL     1      31.176  -3.645 -29.997  0.00  0.00    +0.005 C 
ENDBRANCH  18  19
ENDBRANCH   4  13
BRANCH   9  21
ATOM     21  C   UNL     1      32.674  -9.732 -22.923  0.00  0.00    +0.020 C 
ATOM     22  C   UNL     1      31.807 -10.770 -22.584  0.00  0.00    +0.005 C 
ATOM     23  C   UNL     1      33.885 -10.013 -23.555  0.00  0.00    +0.005 C 
ATOM     24  C   UNL     1      32.150 -12.090 -22.877  0.00  0.00    +0.038 C 
ATOM     25  C   UNL     1      34.228 -11.332 -23.849  0.00  0.00    +0.038 C 
ATOM     26  C   UNL     1      33.362 -12.371 -23.509  0.00  0.00    +0.145 C 
BRANCH  26  27
ATOM     27  O   UNL     1      33.698 -13.658 -23.797  0.00  0.00    -0.453 OA
BRANCH  27  28
ATOM     28  C   UNL     1      34.127 -14.460 -22.753  0.00  0.00    +0.145 C 
ATOM     29  C   UNL     1      34.901 -15.590 -23.015  0.00  0.00    +0.037 C 
ATOM     30  C   UNL     1      33.783 -14.139 -21.440  0.00  0.00    +0.037 C 
ATOM     31  C   UNL     1      35.333 -16.399 -21.963  0.00  0.00    +0.003 C 
ATOM     32  C   UNL     1      34.215 -14.948 -20.389  0.00  0.00    +0.003 C 
ATOM     33  C   UNL     1      34.990 -16.078 -20.650  0.00  0.00    +0.000 C 
ENDBRANCH  27  28
ENDBRANCH  26  27
ENDBRANCH   9  21
BRANCH   8  36
ATOM     34  O   UNL     1      31.307  -9.338 -19.716  0.00  0.00    -0.270 OA
ATOM     35  N   UNL     1      33.116  -8.047 -19.151  0.00  0.00    -0.325 N 
ATOM     36  C   UNL     1      32.119  -8.443 -20.053  0.00  0.00    +0.247 C 
ATOM     37  H   UNL     1      33.166  -8.461 -18.259  0.00  0.00    +0.145 HD
ATOM     38  H   UNL     1      33.767  -7.355 -19.410  0.00  0.00    +0.145 HD
ENDBRANCH   8  36
TORSDOF 6
ENDMDL
MODEL 5
REMARK VINA RESULT:      -8.6      2.539      3.665
REMARK  Name = 135565884
REMARK  6 active torsions:
REMARK  status: ('A' for Active; 'I' for Inactive)
REMARK    1  A    between atoms: C_4  and  C_13
REMARK    2  A    between atoms: C_8  and  C_36
REMARK    3  A    between atoms: C_9  and  C_21
REMARK    4  A    between atoms: C_18  and  C_19
REMARK    5  A    between atoms: C_26  and  O_27
REMARK    6  A    between atoms: O_27  and  C_28
REMARK                            x       y       z     vdW  Elec       q    Type
REMARK                         _______ _______ _______ _____ _____    ______ ____
ROOT
ATOM      1  N   UNL     1      32.345  -9.067 -23.157  0.00  0.00    -0.240 N 
ATOM      2  N   UNL     1      31.526  -8.545 -21.000  0.00  0.00    -0.318 N 
ATOM      3  N   UNL     1      32.772 -10.086 -23.924  0.00  0.00    -0.168 NA
ATOM      4  C   UNL     1      32.195  -7.715 -23.688  0.00  0.00    +0.108 C 
ATOM      5  C   UNL     1      32.118  -6.713 -22.520  0.00  0.00    +0.046 C 
ATOM      6  C   UNL     1      31.156  -7.208 -21.439  0.00  0.00    +0.090 C 
ATOM      7  C   UNL     1      32.015  -9.441 -21.880  0.00  0.00    +0.131 A 
ATOM      8  C   UNL     1      32.303 -10.781 -21.793  0.00  0.00    +0.103 A 
ATOM      9  C   UNL     1      32.761 -11.125 -23.082  0.00  0.00    +0.108 A 
ATOM     10  H   UNL     1      31.418  -8.796 -20.054  0.00  0.00    +0.148 HD
ENDROOT
BRANCH   4  13
ATOM     11  O   UNL     1      34.273  -4.063 -28.283  0.00  0.00    -0.270 OA
ATOM     12  N   UNL     1      34.614  -5.412 -26.419  0.00  0.00    -0.276 N 
ATOM     13  C   UNL     1      33.312  -7.320 -24.649  0.00  0.00    +0.026 C 
ATOM     14  C   UNL     1      32.746  -6.983 -26.036  0.00  0.00    +0.023 C 
ATOM     15  C   UNL     1      34.107  -6.126 -24.105  0.00  0.00    +0.023 C 
ATOM     16  C   UNL     1      33.854  -6.530 -26.983  0.00  0.00    +0.094 C 
ATOM     17  C   UNL     1      35.185  -5.668 -25.088  0.00  0.00    +0.094 C 
ATOM     18  C   UNL     1      34.763  -4.247 -27.168  0.00  0.00    +0.249 C 
BRANCH  18  19
ATOM     19  C   UNL     1      35.573  -3.156 -26.590  0.00  0.00    +0.058 C 
ATOM     20  C   UNL     1      35.127  -1.901 -26.689  0.00  0.00    +0.005 C 
ENDBRANCH  18  19
ENDBRANCH   4  13
BRANCH   9  21
ATOM     21  C   UNL     1      33.187 -12.425 -23.534  0.00  0.00    +0.020 C 
ATOM     22  C   UNL     1      34.173 -13.120 -22.834  0.00  0.00    +0.005 C 
ATOM     23  C   UNL     1      32.613 -12.989 -24.673  0.00  0.00    +0.005 C 
ATOM     24  C   UNL     1      34.586 -14.378 -23.273  0.00  0.00    +0.038 C 
ATOM     25  C   UNL     1      33.025 -14.246 -25.112  0.00  0.00    +0.038 C 
ATOM     26  C   UNL     1      34.012 -14.940 -24.413  0.00  0.00    +0.145 C 
BRANCH  26  27
ATOM     27  O   UNL     1      34.413 -16.168 -24.842  0.00  0.00    -0.453 OA
BRANCH  27  28
ATOM     28  C   UNL     1      34.693 -17.126 -23.883  0.00  0.00    +0.145 C 
ATOM     29  C   UNL     1      34.320 -18.453 -24.092  0.00  0.00    +0.037 C 
ATOM     30  C   UNL     1      35.348 -16.764 -22.706  0.00  0.00    +0.037 C 
ATOM     31  C   UNL     1      34.601 -19.419 -23.125  0.00  0.00    +0.003 C 
ATOM     32  C   UNL     1      35.630 -17.729 -21.739  0.00  0.00    +0.003 C 
ATOM     33  C   UNL     1      35.257 -19.056 -21.948  0.00  0.00    +0.000 C 
ENDBRANCH  27  28
ENDBRANCH  26  27
ENDBRANCH   9  21
BRANCH   8  36
ATOM     34  O   UNL     1      32.544 -11.233 -19.494  0.00  0.00    -0.270 OA
ATOM     35  N   UNL     1      31.519 -12.845 -20.763  0.00  0.00    -0.325 N 
ATOM     36  C   UNL     1      32.150 -11.600 -20.627  0.00  0.00    +0.247 C 
ATOM     37  H   UNL     1      31.402 -13.426 -19.977  0.00  0.00    +0.145 HD
ATOM     38  H   UNL     1      31.194 -13.138 -21.645  0.00  0.00    +0.145 HD
ENDBRANCH   8  36
TORSDOF 6
ENDMDL
MODEL 6
REMARK VINA RESULT:      -8.6     13.036     17.422
REMARK  Name = 135565884
REMARK  6 active torsions:
REMARK  status: ('A' for Active; 'I' for Inactive)
REMARK    1  A    between atoms: C_4  and  C_13
REMARK    2  A    between atoms: C_8  and  C_36
REMARK    3  A    between atoms: C_9  and  C_21
REMARK    4  A    between atoms: C_18  and  C_19
REMARK    5  A    between atoms: C_26  and  O_27
REMARK    6  A    between atoms: O_27  and  C_28
REMARK                            x       y       z     vdW  Elec       q    Type
REMARK                         _______ _______ _______ _____ _____    ______ ____
ROOT
ATOM      1  N   UNL     1      35.364 -22.719 -15.289  0.00  0.00    -0.240 N 
ATOM      2  N   UNL     1      36.766 -23.682 -13.646  0.00  0.00    -0.318 N 
ATOM      3  N   UNL     1      34.074 -22.561 -15.639  0.00  0.00    -0.168 NA
ATOM      4  C   UNL     1      36.446 -22.079 -16.030  0.00  0.00    +0.108 C 
ATOM      5  C   UNL     1      37.780 -22.767 -15.683  0.00  0.00    +0.046 C 
ATOM      6  C   UNL     1      37.916 -22.962 -14.172  0.00  0.00    +0.090 C 
ATOM      7  C   UNL     1      35.536 -23.470 -14.155  0.00  0.00    +0.131 A 
ATOM      8  C   UNL     1      34.280 -23.878 -13.777  0.00  0.00    +0.103 A 
ATOM      9  C   UNL     1      33.421 -23.285 -14.725  0.00  0.00    +0.108 A 
ATOM     10  H   UNL     1      36.888 -24.327 -12.912  0.00  0.00    +0.148 HD
ENDROOT
BRANCH   4  13
ATOM     11  O   UNL     1      33.157 -20.221 -20.980  0.00  0.00    -0.270 OA
ATOM     12  N   UNL     1      35.131 -20.932 -19.977  0.00  0.00    -0.276 N 
ATOM     13  C   UNL     1      36.226 -22.087 -17.541  0.00  0.00    +0.026 C 
ATOM     14  C   UNL     1      34.730 -22.167 -17.875  0.00  0.00    +0.023 C 
ATOM     15  C   UNL     1      36.841 -20.841 -18.190  0.00  0.00    +0.023 C 
ATOM     16  C   UNL     1      34.504 -22.115 -19.383  0.00  0.00    +0.094 C 
ATOM     17  C   UNL     1      36.568 -20.793 -19.694  0.00  0.00    +0.094 C 
ATOM     18  C   UNL     1      34.361 -20.076 -20.761  0.00  0.00    +0.249 C 
BRANCH  18  19
ATOM     19  C   UNL     1      35.034 -18.917 -21.382  0.00  0.00    +0.058 C 
ATOM     20  C   UNL     1      35.281 -18.943 -22.693  0.00  0.00    +0.005 C 
ENDBRANCH  18  19
ENDBRANCH   4  13
BRANCH   9  21
ATOM     21  C   UNL     1      31.984 -23.388 -14.777  0.00  0.00    +0.020 C 
ATOM     22  C   UNL     1      31.384 -24.498 -15.371  0.00  0.00    +0.005 C 
ATOM     23  C   UNL     1      31.193 -22.375 -14.235  0.00  0.00    +0.005 C 
ATOM     24  C   UNL     1      29.994 -24.596 -15.424  0.00  0.00    +0.038 C 
ATOM     25  C   UNL     1      29.803 -22.473 -14.287  0.00  0.00    +0.038 C 
ATOM     26  C   UNL     1      29.203 -23.582 -14.881  0.00  0.00    +0.145 C 
BRANCH  26  27
ATOM     27  O   UNL     1      27.846 -23.677 -14.931  0.00  0.00    -0.453 OA
BRANCH  27  28
ATOM     28  C   UNL     1      27.181 -22.906 -15.869  0.00  0.00    +0.145 C 
ATOM     29  C   UNL     1      27.449 -23.074 -17.227  0.00  0.00    +0.037 C 
ATOM     30  C   UNL     1      26.242 -21.960 -15.455  0.00  0.00    +0.037 C 
ATOM     31  C   UNL     1      26.780 -22.296 -18.172  0.00  0.00    +0.003 C 
ATOM     32  C   UNL     1      25.572 -21.183 -16.401  0.00  0.00    +0.003 C 
ATOM     33  C   UNL     1      25.841 -21.351 -17.759  0.00  0.00    +0.000 C 
ENDBRANCH  27  28
ENDBRANCH  26  27
ENDBRANCH   9  21
BRANCH   8  36
ATOM     34  O   UNL     1      34.762 -24.870 -11.697  0.00  0.00    -0.270 OA
ATOM     35  N   UNL     1      32.730 -25.369 -12.634  0.00  0.00    -0.325 N 
ATOM     36  C   UNL     1      33.970 -24.717 -12.657  0.00  0.00    +0.247 C 
ATOM     37  H   UNL     1      32.493 -25.951 -11.876  0.00  0.00    +0.145 HD
ATOM     38  H   UNL     1      32.095 -25.246 -13.377  0.00  0.00    +0.145 HD
ENDBRANCH   8  36
TORSDOF 6
ENDMDL
MODEL 7
REMARK VINA RESULT:      -8.4      2.672      9.019
REMARK  Name = 135565884
REMARK  6 active torsions:
REMARK  status: ('A' for Active; 'I' for Inactive)
REMARK    1  A    between atoms: C_4  and  C_13
REMARK    2  A    between atoms: C_8  and  C_36
REMARK    3  A    between atoms: C_9  and  C_21
REMARK    4  A    between atoms: C_18  and  C_19
REMARK    5  A    between atoms: C_26  and  O_27
REMARK    6  A    between atoms: O_27  and  C_28
REMARK                            x       y       z     vdW  Elec       q    Type
REMARK                         _______ _______ _______ _____ _____    ______ ____
ROOT
ATOM      1  N   UNL     1      32.700  -6.415 -23.368  0.00  0.00    -0.240 N 
ATOM      2  N   UNL     1      31.501  -4.648 -22.353  0.00  0.00    -0.318 N 
ATOM      3  N   UNL     1      33.471  -6.718 -24.428  0.00  0.00    -0.168 NA
ATOM      4  C   UNL     1      32.444  -7.380 -22.303  0.00  0.00    +0.108 C 
ATOM      5  C   UNL     1      31.223  -6.924 -21.483  0.00  0.00    +0.046 C 
ATOM      6  C   UNL     1      31.319  -5.435 -21.143  0.00  0.00    +0.090 C 
ATOM      7  C   UNL     1      32.248  -5.121 -23.369  0.00  0.00    +0.131 A 
ATOM      8  C   UNL     1      32.707  -4.562 -24.538  0.00  0.00    +0.103 A 
ATOM      9  C   UNL     1      33.457  -5.590 -25.146  0.00  0.00    +0.108 A 
ATOM     10  H   UNL     1      31.076  -3.763 -22.428  0.00  0.00    +0.148 HD
ENDROOT
BRANCH   4  13
ATOM     11  O   UNL     1      34.172 -13.361 -22.392  0.00  0.00    -0.270 OA
ATOM     12  N   UNL     1      32.575 -11.683 -22.597  0.00  0.00    -0.276 N 
ATOM     13  C   UNL     1      32.233  -8.801 -22.817  0.00  0.00    +0.026 C 
ATOM     14  C   UNL     1      33.578  -9.483 -23.106  0.00  0.00    +0.023 C 
ATOM     15  C   UNL     1      31.431  -9.635 -21.809  0.00  0.00    +0.023 C 
ATOM     16  C   UNL     1      33.372 -10.924 -23.564  0.00  0.00    +0.094 C 
ATOM     17  C   UNL     1      31.272 -11.083 -22.273  0.00  0.00    +0.094 C 
ATOM     18  C   UNL     1      33.074 -12.884 -22.100  0.00  0.00    +0.249 C 
BRANCH  18  19
ATOM     19  C   UNL     1      32.227 -13.647 -21.161  0.00  0.00    +0.058 C 
ATOM     20  C   UNL     1      32.599 -13.733 -19.882  0.00  0.00    +0.005 C 
ENDBRANCH  18  19
ENDBRANCH   4  13
BRANCH   9  21
ATOM     21  C   UNL     1      34.167  -5.521 -26.398  0.00  0.00    +0.020 C 
ATOM     22  C   UNL     1      33.563  -5.975 -27.570  0.00  0.00    +0.005 C 
ATOM     23  C   UNL     1      35.461  -5.002 -26.437  0.00  0.00    +0.005 C 
ATOM     24  C   UNL     1      34.252  -5.910 -28.781  0.00  0.00    +0.038 C 
ATOM     25  C   UNL     1      36.150  -4.937 -27.647  0.00  0.00    +0.038 C 
ATOM     26  C   UNL     1      35.546  -5.391 -28.819  0.00  0.00    +0.145 C 
BRANCH  26  27
ATOM     27  O   UNL     1      36.220  -5.326 -30.000  0.00  0.00    -0.453 OA
BRANCH  27  28
ATOM     28  C   UNL     1      37.572  -5.623 -29.988  0.00  0.00    +0.145 C 
ATOM     29  C   UNL     1      38.512  -4.593 -29.997  0.00  0.00    +0.037 C 
ATOM     30  C   UNL     1      37.994  -6.952 -29.967  0.00  0.00    +0.037 C 
ATOM     31  C   UNL     1      39.875  -4.892 -29.985  0.00  0.00    +0.003 C 
ATOM     32  C   UNL     1      39.357  -7.251 -29.955  0.00  0.00    +0.003 C 
ATOM     33  C   UNL     1      40.297  -6.221 -29.964  0.00  0.00    +0.000 C 
ENDBRANCH  27  28
ENDBRANCH  26  27
ENDBRANCH   9  21
BRANCH   8  36
ATOM     34  O   UNL     1      32.515  -2.237 -24.216  0.00  0.00    -0.270 OA
ATOM     35  N   UNL     1      32.143  -3.021 -26.338  0.00  0.00    -0.325 N 
ATOM     36  C   UNL     1      32.453  -3.225 -24.986  0.00  0.00    +0.247 C 
ATOM     37  H   UNL     1      31.964  -2.112 -26.670  0.00  0.00    +0.145 HD
ATOM     38  H   UNL     1      32.104  -3.787 -26.955  0.00  0.00    +0.145 HD
ENDBRANCH   8  36
TORSDOF 6
ENDMDL
MODEL 8
REMARK VINA RESULT:      -8.3      2.657      8.582
REMARK  Name = 135565884
REMARK  6 active torsions:
REMARK  status: ('A' for Active; 'I' for Inactive)
REMARK    1  A    between atoms: C_4  and  C_13
REMARK    2  A    between atoms: C_8  and  C_36
REMARK    3  A    between atoms: C_9  and  C_21
REMARK    4  A    between atoms: C_18  and  C_19
REMARK    5  A    between atoms: C_26  and  O_27
REMARK    6  A    between atoms: O_27  and  C_28
REMARK                            x       y       z     vdW  Elec       q    Type
REMARK                         _______ _______ _______ _____ _____    ______ ____
ROOT
ATOM      1  N   UNL     1      32.399  -9.212 -21.087  0.00  0.00    -0.240 N 
ATOM      2  N   UNL     1      31.320  -8.184 -19.250  0.00  0.00    -0.318 N 
ATOM      3  N   UNL     1      32.964  -8.953 -22.281  0.00  0.00    -0.168 NA
ATOM      4  C   UNL     1      32.416 -10.549 -20.502  0.00  0.00    +0.108 C 
ATOM      5  C   UNL     1      31.355 -10.633 -19.389  0.00  0.00    +0.046 C 
ATOM      6  C   UNL     1      31.427  -9.409 -18.473  0.00  0.00    +0.090 C 
ATOM      7  C   UNL     1      31.880  -8.101 -20.474  0.00  0.00    +0.131 A 
ATOM      8  C   UNL     1      32.066  -7.062 -21.353  0.00  0.00    +0.103 A 
ATOM      9  C   UNL     1      32.741  -7.645 -22.445  0.00  0.00    +0.108 A 
ATOM     10  H   UNL     1      30.837  -7.411 -18.879  0.00  0.00    +0.148 HD
ENDROOT
BRANCH   4  13
ATOM     11  O   UNL     1      34.643 -14.176 -25.047  0.00  0.00    -0.270 OA
ATOM     12  N   UNL     1      33.178 -13.752 -23.291  0.00  0.00    -0.276 N 
ATOM     13  C   UNL     1      32.193 -11.657 -21.528  0.00  0.00    +0.026 C 
ATOM     14  C   UNL     1      32.914 -11.336 -22.845  0.00  0.00    +0.023 C 
ATOM     15  C   UNL     1      32.673 -13.009 -20.985  0.00  0.00    +0.023 C 
ATOM     16  C   UNL     1      32.742 -12.470 -23.851  0.00  0.00    +0.094 C 
ATOM     17  C   UNL     1      32.526 -14.121 -22.026  0.00  0.00    +0.094 C 
ATOM     18  C   UNL     1      34.115 -14.513 -23.987  0.00  0.00    +0.249 C 
BRANCH  18  19
ATOM     19  C   UNL     1      34.498 -15.820 -23.418  0.00  0.00    +0.058 C 
ATOM     20  C   UNL     1      34.601 -16.872 -24.233  0.00  0.00    +0.005 C 
ENDBRANCH  18  19
ENDBRANCH   4  13
BRANCH   9  21
ATOM     21  C   UNL     1      33.186  -6.982 -23.645  0.00  0.00    +0.020 C 
ATOM     22  C   UNL     1      34.488  -6.487 -23.727  0.00  0.00    +0.005 C 
ATOM     23  C   UNL     1      32.314  -6.832 -24.722  0.00  0.00    +0.005 C 
ATOM     24  C   UNL     1      34.917  -5.843 -24.888  0.00  0.00    +0.038 C 
ATOM     25  C   UNL     1      32.743  -6.189 -25.883  0.00  0.00    +0.038 C 
ATOM     26  C   UNL     1      34.044  -5.694 -25.965  0.00  0.00    +0.145 C 
BRANCH  26  27
ATOM     27  O   UNL     1      34.462  -5.067 -27.099  0.00  0.00    -0.453 OA
BRANCH  27  28
ATOM     28  C   UNL     1      35.192  -5.807 -28.012  0.00  0.00    +0.145 C 
ATOM     29  C   UNL     1      36.574  -5.925 -27.867  0.00  0.00    +0.037 C 
ATOM     30  C   UNL     1      34.547  -6.433 -29.079  0.00  0.00    +0.037 C 
ATOM     31  C   UNL     1      37.312  -6.670 -28.788  0.00  0.00    +0.003 C 
ATOM     32  C   UNL     1      35.284  -7.178 -30.000  0.00  0.00    +0.003 C 
ATOM     33  C   UNL     1      36.666  -7.297 -29.855  0.00  0.00    +0.000 C 
ENDBRANCH  27  28
ENDBRANCH  26  27
ENDBRANCH   9  21
BRANCH   8  36
ATOM     34  O   UNL     1      30.489  -5.315 -21.424  0.00  0.00    -0.270 OA
ATOM     35  N   UNL     1      32.570  -4.797 -20.614  0.00  0.00    -0.325 N 
ATOM     36  C   UNL     1      31.649  -5.706 -21.152  0.00  0.00    +0.247 C 
ATOM     37  H   UNL     1      32.308  -3.859 -20.466  0.00  0.00    +0.145 HD
ATOM     38  H   UNL     1      33.480  -5.096 -20.384  0.00  0.00    +0.145 HD
ENDBRANCH   8  36
TORSDOF 6
ENDMDL
MODEL 9
REMARK VINA RESULT:      -8.0      2.631      8.829
REMARK  Name = 135565884
REMARK  6 active torsions:
REMARK  status: ('A' for Active; 'I' for Inactive)
REMARK    1  A    between atoms: C_4  and  C_13
REMARK    2  A    between atoms: C_8  and  C_36
REMARK    3  A    between atoms: C_9  and  C_21
REMARK    4  A    between atoms: C_18  and  C_19
REMARK    5  A    between atoms: C_26  and  O_27
REMARK    6  A    between atoms: O_27  and  C_28
REMARK                            x       y       z     vdW  Elec       q    Type
REMARK                         _______ _______ _______ _____ _____    ______ ____
ROOT
ATOM      1  N   UNL     1      32.322  -4.636 -23.384  0.00  0.00    -0.240 N 
ATOM      2  N   UNL     1      30.295  -3.453 -23.675  0.00  0.00    -0.318 N 
ATOM      3  N   UNL     1      33.474  -4.958 -24.001  0.00  0.00    -0.168 NA
ATOM      4  C   UNL     1      32.066  -5.000 -21.994  0.00  0.00    +0.108 C 
ATOM      5  C   UNL     1      30.556  -4.893 -21.707  0.00  0.00    +0.046 C 
ATOM      6  C   UNL     1      29.988  -3.585 -22.259  0.00  0.00    +0.090 C 
ATOM      7  C   UNL     1      31.471  -3.895 -24.162  0.00  0.00    +0.131 A 
ATOM      8  C   UNL     1      32.084  -3.778 -25.387  0.00  0.00    +0.103 A 
ATOM      9  C   UNL     1      33.314  -4.448 -25.226  0.00  0.00    +0.108 A 
ATOM     10  H   UNL     1      29.639  -3.037 -24.280  0.00  0.00    +0.148 HD
ENDROOT
BRANCH   4  13
ATOM     11  O   UNL     1      31.480 -10.226 -18.659  0.00  0.00    -0.270 OA
ATOM     12  N   UNL     1      32.177  -9.065 -20.550  0.00  0.00    -0.276 N 
ATOM     13  C   UNL     1      32.574  -6.394 -21.635  0.00  0.00    +0.026 C 
ATOM     14  C   UNL     1      32.454  -6.647 -20.126  0.00  0.00    +0.023 C 
ATOM     15  C   UNL     1      31.805  -7.473 -22.409  0.00  0.00    +0.023 C 
ATOM     16  C   UNL     1      32.905  -8.061 -19.771  0.00  0.00    +0.094 C 
ATOM     17  C   UNL     1      32.249  -8.881 -22.008  0.00  0.00    +0.094 C 
ATOM     18  C   UNL     1      31.522 -10.098 -19.883  0.00  0.00    +0.249 C 
BRANCH  18  19
ATOM     19  C   UNL     1      30.835 -11.119 -20.700  0.00  0.00    +0.058 C 
ATOM     20  C   UNL     1      31.462 -12.270 -20.952  0.00  0.00    +0.005 C 
ENDBRANCH  18  19
ENDBRANCH   4  13
BRANCH   9  21
ATOM     21  C   UNL     1      34.349  -4.610 -26.216  0.00  0.00    +0.020 C 
ATOM     22  C   UNL     1      35.109  -3.512 -26.619  0.00  0.00    +0.005 C 
ATOM     23  C   UNL     1      34.589  -5.866 -26.774  0.00  0.00    +0.005 C 
ATOM     24  C   UNL     1      36.109  -3.669 -27.579  0.00  0.00    +0.038 C 
ATOM     25  C   UNL     1      35.589  -6.023 -27.733  0.00  0.00    +0.038 C 
ATOM     26  C   UNL     1      36.348  -4.926 -28.136  0.00  0.00    +0.145 C 
BRANCH  26  27
ATOM     27  O   UNL     1      37.325  -5.081 -29.072  0.00  0.00    -0.453 OA
BRANCH  27  28
ATOM     28  C   UNL     1      38.584  -5.451 -28.633  0.00  0.00    +0.145 C 
ATOM     29  C   UNL     1      39.267  -4.651 -27.717  0.00  0.00    +0.037 C 
ATOM     30  C   UNL     1      39.171  -6.624 -29.108  0.00  0.00    +0.037 C 
ATOM     31  C   UNL     1      40.537  -5.024 -27.275  0.00  0.00    +0.003 C 
ATOM     32  C   UNL     1      40.441  -6.997 -28.666  0.00  0.00    +0.003 C 
ATOM     33  C   UNL     1      41.124  -6.197 -27.750  0.00  0.00    +0.000 C 
ENDBRANCH  27  28
ENDBRANCH  26  27
ENDBRANCH   9  21
BRANCH   8  36
ATOM     34  O   UNL     1      30.965  -2.002 -26.453  0.00  0.00    -0.270 OA
ATOM     35  N   UNL     1      31.699  -3.713 -27.791  0.00  0.00    -0.325 N 
ATOM     36  C   UNL     1      31.547  -3.110 -26.535  0.00  0.00    +0.247 C 
ATOM     37  H   UNL     1      31.339  -3.274 -28.595  0.00  0.00    +0.145 HD
ATOM     38  H   UNL     1      32.165  -4.576 -27.869  0.00  0.00    +0.145 HD
ENDBRANCH   8  36
TORSDOF 6
ENDMDL
