MODEL 1
REMARK VINA RESULT:     -12.2      0.000      0.000
REMARK  Name = 657077
REMARK  7 active torsions:
REMARK  status: ('A' for Active; 'I' for Inactive)
REMARK    1  A    between atoms: C_3  and  C_23
REMARK    2  A    between atoms: C_8  and  C_10
REMARK    3  A    between atoms: C_12  and  C_15
REMARK    4  A    between atoms: C_15  and  C_16
REMARK    5  A    between atoms: C_16  and  C_17
REMARK    6  A    between atoms: C_26  and  C_29
REMARK    7  A    between atoms: C_29  and  N_30
REMARK                            x       y       z     vdW  Elec       q    Type
REMARK                         _______ _______ _______ _____ _____    ______ ____
ROOT
ATOM      1  O   UNL     1      32.820 -14.993 -25.271  0.00  0.00    -0.270 OA
ATOM      2  N   UNL     1      34.470 -15.515 -23.699  0.00  0.00    -0.276 N 
ATOM      3  C   UNL     1      35.600 -17.682 -22.149  0.00  0.00    +0.026 C 
ATOM      4  C   UNL     1      35.146 -16.365 -21.490  0.00  0.00    +0.026 C 
ATOM      5  C   UNL     1      34.814 -17.937 -23.450  0.00  0.00    +0.026 C 
ATOM      6  C   UNL     1      35.227 -15.203 -22.480  0.00  0.00    +0.094 C 
ATOM      7  C   UNL     1      34.898 -16.733 -24.389  0.00  0.00    +0.094 C 
ATOM      8  C   UNL     1      33.437 -14.744 -24.236  0.00  0.00    +0.251 C 
ENDROOT
BRANCH   8  10
ATOM      9  N   UNL     1      31.819 -12.554 -21.666  0.00  0.00    -0.242 NA
ATOM     10  C   UNL     1      33.026 -13.537 -23.510  0.00  0.00    +0.072 C 
ATOM     11  C   UNL     1      33.423 -12.279 -23.940  0.00  0.00    +0.003 C 
ATOM     12  C   UNL     1      33.018 -11.153 -23.231  0.00  0.00    -0.003 C 
ATOM     13  C   UNL     1      32.234 -13.625 -22.381  0.00  0.00    +0.103 C 
ATOM     14  C   UNL     1      32.224 -11.343 -22.111  0.00  0.00    +0.095 C 
BRANCH  12  15
ATOM     15  C   UNL     1      33.424  -9.789 -23.661  0.00  0.00    +0.033 C 
BRANCH  15  16
ATOM     16  C   UNL     1      32.242  -8.844 -23.966  0.00  0.00    +0.031 C 
BRANCH  16  17
ATOM     17  C   UNL     1      32.075  -7.752 -22.937  0.00  0.00    -0.022 C 
ATOM     18  C   UNL     1      30.948  -6.946 -22.978  0.00  0.00    -0.004 C 
ATOM     19  C   UNL     1      33.051  -7.576 -21.970  0.00  0.00    -0.004 C 
ATOM     20  C   UNL     1      30.794  -5.938 -22.027  0.00  0.00    -0.000 C 
ATOM     21  C   UNL     1      32.896  -6.568 -21.018  0.00  0.00    -0.000 C 
ATOM     22  C   UNL     1      31.768  -5.748 -21.048  0.00  0.00    -0.000 C 
ENDBRANCH  16  17
ENDBRANCH  15  16
ENDBRANCH  12  15
ENDBRANCH   8  10
BRANCH   3  23
ATOM     23  C   UNL     1      35.513 -18.856 -21.192  0.00  0.00    -0.023 C 
ATOM     24  C   UNL     1      34.272 -19.411 -20.886  0.00  0.00    -0.011 C 
ATOM     25  C   UNL     1      36.674 -19.378 -20.624  0.00  0.00    -0.004 C 
ATOM     26  C   UNL     1      34.191 -20.491 -20.008  0.00  0.00    -0.045 C 
ATOM     27  C   UNL     1      36.592 -20.458 -19.745  0.00  0.00    -0.001 C 
ATOM     28  C   UNL     1      35.351 -21.014 -19.437  0.00  0.00    -0.006 C 
BRANCH  26  29
ATOM     29  C   UNL     1      32.864 -21.088 -19.678  0.00  0.00    -0.059 C 
BRANCH  29  30
ATOM     30  N   UNL     1      32.984 -22.290 -18.850  0.00  0.00    +0.383 N 
ATOM     31  H   UNL     1      32.454 -23.050 -19.276  0.00  0.00    -0.089 HD
ATOM     32  H   UNL     1      32.618 -22.099 -17.918  0.00  0.00    -0.089 HD
ATOM     33  H   UNL     1      33.966 -22.558 -18.782  0.00  0.00    -0.089 HD
ENDBRANCH  29  30
ENDBRANCH  26  29
ENDBRANCH   3  23
TORSDOF 7
ENDMDL
MODEL 2
REMARK VINA RESULT:     -11.8      1.726      2.593
REMARK  Name = 657077
REMARK  7 active torsions:
REMARK  status: ('A' for Active; 'I' for Inactive)
REMARK    1  A    between atoms: C_3  and  C_23
REMARK    2  A    between atoms: C_8  and  C_10
REMARK    3  A    between atoms: C_12  and  C_15
REMARK    4  A    between atoms: C_15  and  C_16
REMARK    5  A    between atoms: C_16  and  C_17
REMARK    6  A    between atoms: C_26  and  C_29
REMARK    7  A    between atoms: C_29  and  N_30
REMARK                            x       y       z     vdW  Elec       q    Type
REMARK                         _______ _______ _______ _____ _____    ______ ____
ROOT
ATOM      1  O   UNL     1      33.238 -15.949 -25.451  0.00  0.00    -0.270 OA
ATOM      2  N   UNL     1      34.666 -16.582 -23.711  0.00  0.00    -0.276 N 
ATOM      3  C   UNL     1      35.256 -18.717 -21.848  0.00  0.00    +0.026 C 
ATOM      4  C   UNL     1      35.042 -17.265 -21.376  0.00  0.00    +0.026 C 
ATOM      5  C   UNL     1      34.503 -18.974 -23.168  0.00  0.00    +0.026 C 
ATOM      6  C   UNL     1      35.406 -16.273 -22.481  0.00  0.00    +0.094 C 
ATOM      7  C   UNL     1      34.876 -17.936 -24.226  0.00  0.00    +0.094 C 
ATOM      8  C   UNL     1      33.838 -15.698 -24.407  0.00  0.00    +0.251 C 
ENDROOT
BRANCH   8  10
ATOM      9  N   UNL     1      33.992 -11.975 -24.049  0.00  0.00    -0.242 NA
ATOM     10  C   UNL     1      33.641 -14.354 -23.853  0.00  0.00    +0.072 C 
ATOM     11  C   UNL     1      32.951 -14.169 -22.664  0.00  0.00    +0.003 C 
ATOM     12  C   UNL     1      32.780 -12.882 -22.163  0.00  0.00    -0.003 C 
ATOM     13  C   UNL     1      34.138 -13.241 -24.503  0.00  0.00    +0.103 C 
ATOM     14  C   UNL     1      33.314 -11.829 -22.889  0.00  0.00    +0.095 C 
BRANCH  12  15
ATOM     15  C   UNL     1      32.046 -12.644 -20.892  0.00  0.00    +0.033 C 
BRANCH  15  16
ATOM     16  C   UNL     1      30.910 -11.605 -21.004  0.00  0.00    +0.031 C 
BRANCH  16  17
ATOM     17  C   UNL     1      31.311 -10.234 -20.515  0.00  0.00    -0.022 C 
ATOM     18  C   UNL     1      31.600  -9.240 -21.438  0.00  0.00    -0.004 C 
ATOM     19  C   UNL     1      31.383  -9.994 -19.153  0.00  0.00    -0.004 C 
ATOM     20  C   UNL     1      31.971  -7.974 -20.985  0.00  0.00    -0.000 C 
ATOM     21  C   UNL     1      31.753  -8.727 -18.700  0.00  0.00    -0.000 C 
ATOM     22  C   UNL     1      32.048  -7.717 -19.617  0.00  0.00    -0.000 C 
ENDBRANCH  16  17
ENDBRANCH  15  16
ENDBRANCH  12  15
ENDBRANCH   8  10
BRANCH   3  23
ATOM     23  C   UNL     1      34.885 -19.723 -20.776  0.00  0.00    -0.023 C 
ATOM     24  C   UNL     1      35.880 -20.294 -19.984  0.00  0.00    -0.011 C 
ATOM     25  C   UNL     1      33.549 -20.073 -20.583  0.00  0.00    -0.004 C 
ATOM     26  C   UNL     1      35.539 -21.218 -18.998  0.00  0.00    -0.045 C 
ATOM     27  C   UNL     1      33.208 -20.998 -19.596  0.00  0.00    -0.001 C 
ATOM     28  C   UNL     1      34.202 -21.570 -18.803  0.00  0.00    -0.006 C 
BRANCH  26  29
ATOM     29  C   UNL     1      36.601 -21.830 -18.148  0.00  0.00    -0.059 C 
BRANCH  29  30
ATOM     30  N   UNL     1      36.092 -22.263 -16.845  0.00  0.00    +0.383 N 
ATOM     31  H   UNL     1      36.530 -23.147 -16.585  0.00  0.00    -0.089 HD
ATOM     32  H   UNL     1      35.081 -22.386 -16.899  0.00  0.00    -0.089 HD
ATOM     33  H   UNL     1      36.312 -21.556 -16.143  0.00  0.00    -0.089 HD
ENDBRANCH  29  30
ENDBRANCH  26  29
ENDBRANCH   3  23
TORSDOF 7
ENDMDL
MODEL 3
REMARK VINA RESULT:     -10.7      2.089     10.839
REMARK  Name = 657077
REMARK  7 active torsions:
REMARK  status: ('A' for Active; 'I' for Inactive)
REMARK    1  A    between atoms: C_3  and  C_23
REMARK    2  A    between atoms: C_8  and  C_10
REMARK    3  A    between atoms: C_12  and  C_15
REMARK    4  A    between atoms: C_15  and  C_16
REMARK    5  A    between atoms: C_16  and  C_17
REMARK    6  A    between atoms: C_26  and  C_29
REMARK    7  A    between atoms: C_29  and  N_30
REMARK                            x       y       z     vdW  Elec       q    Type
REMARK                         _______ _______ _______ _____ _____    ______ ____
ROOT
ATOM      1  O   UNL     1      34.563 -13.264 -24.599  0.00  0.00    -0.270 OA
ATOM      2  N   UNL     1      32.930 -12.310 -23.224  0.00  0.00    -0.276 N 
ATOM      3  C   UNL     1      31.886  -9.788 -22.261  0.00  0.00    +0.026 C 
ATOM      4  C   UNL     1      32.282 -10.923 -21.296  0.00  0.00    +0.026 C 
ATOM      5  C   UNL     1      32.688  -9.889 -23.573  0.00  0.00    +0.026 C 
ATOM      6  C   UNL     1      32.156 -12.287 -21.976  0.00  0.00    +0.094 C 
ATOM      7  C   UNL     1      32.557 -11.280 -24.193  0.00  0.00    +0.094 C 
ATOM      8  C   UNL     1      33.933 -13.229 -23.543  0.00  0.00    +0.251 C 
ENDROOT
BRANCH   8  10
ATOM      9  N   UNL     1      34.595 -14.817 -20.218  0.00  0.00    -0.242 NA
ATOM     10  C   UNL     1      34.290 -14.239 -22.540  0.00  0.00    +0.072 C 
ATOM     11  C   UNL     1      34.649 -15.523 -22.922  0.00  0.00    +0.003 C 
ATOM     12  C   UNL     1      34.983 -16.460 -21.949  0.00  0.00    -0.003 C 
ATOM     13  C   UNL     1      34.278 -13.934 -21.193  0.00  0.00    +0.103 C 
ATOM     14  C   UNL     1      34.940 -16.060 -20.623  0.00  0.00    +0.095 C 
BRANCH  12  15
ATOM     15  C   UNL     1      35.371 -17.846 -22.320  0.00  0.00    +0.033 C 
BRANCH  15  16
ATOM     16  C   UNL     1      36.292 -18.540 -21.294  0.00  0.00    +0.031 C 
BRANCH  16  17
ATOM     17  C   UNL     1      35.603 -19.647 -20.532  0.00  0.00    -0.022 C 
ATOM     18  C   UNL     1      36.360 -20.508 -19.753  0.00  0.00    -0.004 C 
ATOM     19  C   UNL     1      34.228 -19.781 -20.626  0.00  0.00    -0.004 C 
ATOM     20  C   UNL     1      35.724 -21.531 -19.050  0.00  0.00    -0.000 C 
ATOM     21  C   UNL     1      33.591 -20.804 -19.922  0.00  0.00    -0.000 C 
ATOM     22  C   UNL     1      34.340 -21.679 -19.134  0.00  0.00    -0.000 C 
ENDBRANCH  16  17
ENDBRANCH  15  16
ENDBRANCH  12  15
ENDBRANCH   8  10
BRANCH   3  23
ATOM     23  C   UNL     1      32.019  -8.422 -21.616  0.00  0.00    -0.023 C 
ATOM     24  C   UNL     1      31.275  -7.349 -22.103  0.00  0.00    -0.011 C 
ATOM     25  C   UNL     1      32.883  -8.244 -20.537  0.00  0.00    -0.004 C 
ATOM     26  C   UNL     1      31.396  -6.093 -21.510  0.00  0.00    -0.045 C 
ATOM     27  C   UNL     1      33.005  -6.987 -19.944  0.00  0.00    -0.001 C 
ATOM     28  C   UNL     1      32.261  -5.912 -20.430  0.00  0.00    -0.006 C 
BRANCH  26  29
ATOM     29  C   UNL     1      30.600  -4.942 -22.028  0.00  0.00    -0.059 C 
BRANCH  29  30
ATOM     30  N   UNL     1      31.068  -3.659 -21.499  0.00  0.00    +0.383 N 
ATOM     31  H   UNL     1      32.076  -3.583 -21.635  0.00  0.00    -0.089 HD
ATOM     32  H   UNL     1      30.853  -3.603 -20.504  0.00  0.00    -0.089 HD
ATOM     33  H   UNL     1      30.601  -2.898 -21.992  0.00  0.00    -0.089 HD
ENDBRANCH  29  30
ENDBRANCH  26  29
ENDBRANCH   3  23
TORSDOF 7
ENDMDL
MODEL 4
REMARK VINA RESULT:     -10.5      2.043      3.449
REMARK  Name = 657077
REMARK  7 active torsions:
REMARK  status: ('A' for Active; 'I' for Inactive)
REMARK    1  A    between atoms: C_3  and  C_23
REMARK    2  A    between atoms: C_8  and  C_10
REMARK    3  A    between atoms: C_12  and  C_15
REMARK    4  A    between atoms: C_15  and  C_16
REMARK    5  A    between atoms: C_16  and  C_17
REMARK    6  A    between atoms: C_26  and  C_29
REMARK    7  A    between atoms: C_29  and  N_30
REMARK                            x       y       z     vdW  Elec       q    Type
REMARK                         _______ _______ _______ _____ _____    ______ ____
ROOT
ATOM      1  O   UNL     1      31.140 -11.757 -23.230  0.00  0.00    -0.270 OA
ATOM      2  N   UNL     1      33.216 -12.767 -22.858  0.00  0.00    -0.276 N 
ATOM      3  C   UNL     1      34.698 -15.229 -23.203  0.00  0.00    +0.026 C 
ATOM      4  C   UNL     1      34.602 -14.525 -21.835  0.00  0.00    +0.026 C 
ATOM      5  C   UNL     1      33.474 -14.887 -24.075  0.00  0.00    +0.026 C 
ATOM      6  C   UNL     1      34.386 -13.022 -22.009  0.00  0.00    +0.094 C 
ATOM      7  C   UNL     1      33.283 -13.375 -24.188  0.00  0.00    +0.094 C 
ATOM      8  C   UNL     1      32.109 -11.992 -22.508  0.00  0.00    +0.251 C 
ENDROOT
BRANCH   8  10
ATOM      9  N   UNL     1      32.051 -11.745 -18.773  0.00  0.00    -0.242 NA
ATOM     10  C   UNL     1      32.070 -11.409 -21.161  0.00  0.00    +0.072 C 
ATOM     11  C   UNL     1      32.019 -10.034 -20.983  0.00  0.00    +0.003 C 
ATOM     12  C   UNL     1      31.983  -9.511 -19.695  0.00  0.00    -0.003 C 
ATOM     13  C   UNL     1      32.084 -12.216 -20.040  0.00  0.00    +0.103 C 
ATOM     14  C   UNL     1      32.002 -10.401 -18.633  0.00  0.00    +0.095 C 
BRANCH  12  15
ATOM     15  C   UNL     1      31.928  -8.043 -19.464  0.00  0.00    +0.033 C 
BRANCH  15  16
ATOM     16  C   UNL     1      33.211  -7.291 -19.877  0.00  0.00    +0.031 C 
BRANCH  16  17
ATOM     17  C   UNL     1      33.077  -6.569 -21.197  0.00  0.00    -0.022 C 
ATOM     18  C   UNL     1      33.895  -6.932 -22.255  0.00  0.00    -0.004 C 
ATOM     19  C   UNL     1      32.139  -5.558 -21.325  0.00  0.00    -0.004 C 
ATOM     20  C   UNL     1      33.771  -6.265 -23.474  0.00  0.00    -0.000 C 
ATOM     21  C   UNL     1      32.014  -4.892 -22.544  0.00  0.00    -0.000 C 
ATOM     22  C   UNL     1      32.831  -5.246 -23.619  0.00  0.00    -0.000 C 
ENDBRANCH  16  17
ENDBRANCH  15  16
ENDBRANCH  12  15
ENDBRANCH   8  10
BRANCH   3  23
ATOM     23  C   UNL     1      34.894 -16.726 -23.060  0.00  0.00    -0.023 C 
ATOM     24  C   UNL     1      35.591 -17.233 -21.965  0.00  0.00    -0.011 C 
ATOM     25  C   UNL     1      34.374 -17.590 -24.022  0.00  0.00    -0.004 C 
ATOM     26  C   UNL     1      35.770 -18.610 -21.832  0.00  0.00    -0.045 C 
ATOM     27  C   UNL     1      34.555 -18.967 -23.889  0.00  0.00    -0.001 C 
ATOM     28  C   UNL     1      35.252 -19.477 -22.794  0.00  0.00    -0.006 C 
BRANCH  26  29
ATOM     29  C   UNL     1      36.516 -19.156 -20.661  0.00  0.00    -0.059 C 
BRANCH  29  30
ATOM     30  N   UNL     1      35.741 -20.160 -19.927  0.00  0.00    +0.383 N 
ATOM     31  H   UNL     1      35.220 -20.736 -20.588  0.00  0.00    -0.089 HD
ATOM     32  H   UNL     1      35.091 -19.693 -19.296  0.00  0.00    -0.089 HD
ATOM     33  H   UNL     1      36.375 -20.751 -19.389  0.00  0.00    -0.089 HD
ENDBRANCH  29  30
ENDBRANCH  26  29
ENDBRANCH   3  23
TORSDOF 7
ENDMDL
MODEL 5
REMARK VINA RESULT:     -10.5      3.653      6.472
REMARK  Name = 657077
REMARK  7 active torsions:
REMARK  status: ('A' for Active; 'I' for Inactive)
REMARK    1  A    between atoms: C_3  and  C_23
REMARK    2  A    between atoms: C_8  and  C_10
REMARK    3  A    between atoms: C_12  and  C_15
REMARK    4  A    between atoms: C_15  and  C_16
REMARK    5  A    between atoms: C_16  and  C_17
REMARK    6  A    between atoms: C_26  and  C_29
REMARK    7  A    between atoms: C_29  and  N_30
REMARK                            x       y       z     vdW  Elec       q    Type
REMARK                         _______ _______ _______ _____ _____    ______ ____
ROOT
ATOM      1  O   UNL     1      32.078  -8.043 -19.136  0.00  0.00    -0.270 OA
ATOM      2  N   UNL     1      31.694  -9.765 -20.671  0.00  0.00    -0.276 N 
ATOM      3  C   UNL     1      32.271 -12.543 -21.240  0.00  0.00    +0.026 C 
ATOM      4  C   UNL     1      32.515 -11.434 -22.283  0.00  0.00    +0.026 C 
ATOM      5  C   UNL     1      32.354 -11.971 -19.812  0.00  0.00    +0.026 C 
ATOM      6  C   UNL     1      31.575 -10.251 -22.052  0.00  0.00    +0.094 C 
ATOM      7  C   UNL     1      31.422 -10.771 -19.644  0.00  0.00    +0.094 C 
ATOM      8  C   UNL     1      32.004  -8.456 -20.293  0.00  0.00    +0.251 C 
ENDROOT
BRANCH   8  10
ATOM      9  N   UNL     1      31.639  -5.467 -22.516  0.00  0.00    -0.242 NA
ATOM     10  C   UNL     1      32.283  -7.478 -21.350  0.00  0.00    +0.072 C 
ATOM     11  C   UNL     1      33.400  -7.609 -22.162  0.00  0.00    +0.003 C 
ATOM     12  C   UNL     1      33.639  -6.665 -23.157  0.00  0.00    -0.003 C 
ATOM     13  C   UNL     1      31.441  -6.404 -21.561  0.00  0.00    +0.103 C 
ATOM     14  C   UNL     1      32.736  -5.623 -23.290  0.00  0.00    +0.095 C 
BRANCH  12  15
ATOM     15  C   UNL     1      34.826  -6.772 -24.046  0.00  0.00    +0.033 C 
BRANCH  15  16
ATOM     16  C   UNL     1      35.069  -5.527 -24.926  0.00  0.00    +0.031 C 
BRANCH  16  17
ATOM     17  C   UNL     1      34.858  -5.791 -26.397  0.00  0.00    -0.022 C 
ATOM     18  C   UNL     1      33.567  -5.855 -26.898  0.00  0.00    -0.004 C 
ATOM     19  C   UNL     1      35.959  -5.965 -27.220  0.00  0.00    -0.004 C 
ATOM     20  C   UNL     1      33.373  -6.099 -28.257  0.00  0.00    -0.000 C 
ATOM     21  C   UNL     1      35.764  -6.208 -28.580  0.00  0.00    -0.000 C 
ATOM     22  C   UNL     1      34.470  -6.276 -29.098  0.00  0.00    -0.000 C 
ENDBRANCH  16  17
ENDBRANCH  15  16
ENDBRANCH  12  15
ENDBRANCH   8  10
BRANCH   3  23
ATOM     23  C   UNL     1      33.204 -13.722 -21.436  0.00  0.00    -0.023 C 
ATOM     24  C   UNL     1      33.451 -14.207 -22.719  0.00  0.00    -0.011 C 
ATOM     25  C   UNL     1      33.814 -14.317 -20.332  0.00  0.00    -0.004 C 
ATOM     26  C   UNL     1      34.310 -15.291 -22.899  0.00  0.00    -0.045 C 
ATOM     27  C   UNL     1      34.673 -15.401 -20.513  0.00  0.00    -0.001 C 
ATOM     28  C   UNL     1      34.921 -15.888 -21.796  0.00  0.00    -0.006 C 
BRANCH  26  29
ATOM     29  C   UNL     1      34.577 -15.812 -24.272  0.00  0.00    -0.059 C 
BRANCH  29  30
ATOM     30  N   UNL     1      34.506 -17.273 -24.336  0.00  0.00    +0.383 N 
ATOM     31  H   UNL     1      33.728 -17.601 -23.763  0.00  0.00    -0.089 HD
ATOM     32  H   UNL     1      35.377 -17.672 -23.988  0.00  0.00    -0.089 HD
ATOM     33  H   UNL     1      34.360 -17.563 -25.303  0.00  0.00    -0.089 HD
ENDBRANCH  29  30
ENDBRANCH  26  29
ENDBRANCH   3  23
TORSDOF 7
ENDMDL
MODEL 6
REMARK VINA RESULT:     -10.4      4.828     12.580
REMARK  Name = 657077
REMARK  7 active torsions:
REMARK  status: ('A' for Active; 'I' for Inactive)
REMARK    1  A    between atoms: C_3  and  C_23
REMARK    2  A    between atoms: C_8  and  C_10
REMARK    3  A    between atoms: C_12  and  C_15
REMARK    4  A    between atoms: C_15  and  C_16
REMARK    5  A    between atoms: C_16  and  C_17
REMARK    6  A    between atoms: C_26  and  C_29
REMARK    7  A    between atoms: C_29  and  N_30
REMARK                            x       y       z     vdW  Elec       q    Type
REMARK                         _______ _______ _______ _____ _____    ______ ____
ROOT
ATOM      1  O   UNL     1      37.136 -21.627 -17.542  0.00  0.00    -0.270 OA
ATOM      2  N   UNL     1      35.984 -21.112 -19.510  0.00  0.00    -0.276 N 
ATOM      3  C   UNL     1      35.573 -19.039 -21.487  0.00  0.00    +0.026 C 
ATOM      4  C   UNL     1      34.392 -19.721 -20.770  0.00  0.00    +0.026 C 
ATOM      5  C   UNL     1      36.840 -19.087 -20.611  0.00  0.00    +0.026 C 
ATOM      6  C   UNL     1      34.765 -21.136 -20.327  0.00  0.00    +0.094 C 
ATOM      7  C   UNL     1      37.148 -20.517 -20.168  0.00  0.00    +0.094 C 
ATOM      8  C   UNL     1      36.108 -21.624 -18.216  0.00  0.00    +0.251 C 
ENDROOT
BRANCH   8  10
ATOM      9  N   UNL     1      32.563 -22.720 -17.715  0.00  0.00    -0.242 NA
ATOM     10  C   UNL     1      34.916 -22.201 -17.584  0.00  0.00    +0.072 C 
ATOM     11  C   UNL     1      34.982 -22.754 -16.314  0.00  0.00    +0.003 C 
ATOM     12  C   UNL     1      33.835 -23.293 -15.740  0.00  0.00    -0.003 C 
ATOM     13  C   UNL     1      33.699 -22.206 -18.239  0.00  0.00    +0.103 C 
ATOM     14  C   UNL     1      32.662 -23.252 -16.476  0.00  0.00    +0.095 C 
BRANCH  12  15
ATOM     15  C   UNL     1      33.868 -23.896 -14.381  0.00  0.00    +0.033 C 
BRANCH  15  16
ATOM     16  C   UNL     1      34.908 -25.024 -14.215  0.00  0.00    +0.031 C 
BRANCH  16  17
ATOM     17  C   UNL     1      35.993 -24.690 -13.220  0.00  0.00    -0.022 C 
ATOM     18  C   UNL     1      36.019 -23.431 -12.641  0.00  0.00    -0.004 C 
ATOM     19  C   UNL     1      36.942 -25.647 -12.903  0.00  0.00    -0.004 C 
ATOM     20  C   UNL     1      37.021 -23.121 -11.722  0.00  0.00    -0.000 C 
ATOM     21  C   UNL     1      37.944 -25.338 -11.983  0.00  0.00    -0.000 C 
ATOM     22  C   UNL     1      37.984 -24.075 -11.393  0.00  0.00    -0.000 C 
ENDBRANCH  16  17
ENDBRANCH  15  16
ENDBRANCH  12  15
ENDBRANCH   8  10
BRANCH   3  23
ATOM     23  C   UNL     1      35.235 -17.625 -21.921  0.00  0.00    -0.023 C 
ATOM     24  C   UNL     1      35.028 -16.635 -20.963  0.00  0.00    -0.011 C 
ATOM     25  C   UNL     1      35.135 -17.320 -23.278  0.00  0.00    -0.004 C 
ATOM     26  C   UNL     1      34.719 -15.336 -21.362  0.00  0.00    -0.045 C 
ATOM     27  C   UNL     1      34.825 -16.020 -23.676  0.00  0.00    -0.001 C 
ATOM     28  C   UNL     1      34.617 -15.028 -22.719  0.00  0.00    -0.006 C 
BRANCH  26  29
ATOM     29  C   UNL     1      34.498 -14.273 -20.338  0.00  0.00    -0.059 C 
BRANCH  29  30
ATOM     30  N   UNL     1      33.107 -13.813 -20.304  0.00  0.00    +0.383 N 
ATOM     31  H   UNL     1      32.563 -14.424 -19.696  0.00  0.00    -0.089 HD
ATOM     32  H   UNL     1      32.719 -13.837 -21.247  0.00  0.00    -0.089 HD
ATOM     33  H   UNL     1      33.074 -12.859 -19.946  0.00  0.00    -0.089 HD
ENDBRANCH  29  30
ENDBRANCH  26  29
ENDBRANCH   3  23
TORSDOF 7
ENDMDL
MODEL 7
REMARK VINA RESULT:     -10.4      4.955     12.646
REMARK  Name = 657077
REMARK  7 active torsions:
REMARK  status: ('A' for Active; 'I' for Inactive)
REMARK    1  A    between atoms: C_3  and  C_23
REMARK    2  A    between atoms: C_8  and  C_10
REMARK    3  A    between atoms: C_12  and  C_15
REMARK    4  A    between atoms: C_15  and  C_16
REMARK    5  A    between atoms: C_16  and  C_17
REMARK    6  A    between atoms: C_26  and  C_29
REMARK    7  A    between atoms: C_29  and  N_30
REMARK                            x       y       z     vdW  Elec       q    Type
REMARK                         _______ _______ _______ _____ _____    ______ ____
ROOT
ATOM      1  O   UNL     1      37.159 -21.585 -17.513  0.00  0.00    -0.270 OA
ATOM      2  N   UNL     1      35.991 -21.039 -19.464  0.00  0.00    -0.276 N 
ATOM      3  C   UNL     1      35.530 -18.920 -21.380  0.00  0.00    +0.026 C 
ATOM      4  C   UNL     1      34.365 -19.649 -20.681  0.00  0.00    +0.026 C 
ATOM      5  C   UNL     1      36.799 -18.965 -20.507  0.00  0.00    +0.026 C 
ATOM      6  C   UNL     1      34.771 -21.067 -20.280  0.00  0.00    +0.094 C 
ATOM      7  C   UNL     1      37.141 -20.400 -20.105  0.00  0.00    +0.094 C 
ATOM      8  C   UNL     1      36.129 -21.586 -18.186  0.00  0.00    +0.251 C 
ENDROOT
BRANCH   8  10
ATOM      9  N   UNL     1      32.615 -22.791 -17.719  0.00  0.00    -0.242 NA
ATOM     10  C   UNL     1      34.952 -22.208 -17.569  0.00  0.00    +0.072 C 
ATOM     11  C   UNL     1      35.029 -22.782 -16.309  0.00  0.00    +0.003 C 
ATOM     12  C   UNL     1      33.896 -23.364 -15.749  0.00  0.00    -0.003 C 
ATOM     13  C   UNL     1      33.738 -22.235 -18.229  0.00  0.00    +0.103 C 
ATOM     14  C   UNL     1      32.725 -23.343 -16.489  0.00  0.00    +0.095 C 
BRANCH  12  15
ATOM     15  C   UNL     1      33.941 -23.990 -14.401  0.00  0.00    +0.033 C 
BRANCH  15  16
ATOM     16  C   UNL     1      35.037 -25.065 -14.241  0.00  0.00    +0.031 C 
BRANCH  16  17
ATOM     17  C   UNL     1      36.088 -24.693 -13.223  0.00  0.00    -0.022 C 
ATOM     18  C   UNL     1      37.178 -25.529 -13.036  0.00  0.00    -0.004 C 
ATOM     19  C   UNL     1      35.944 -23.523 -12.496  0.00  0.00    -0.004 C 
ATOM     20  C   UNL     1      38.149 -25.185 -12.096  0.00  0.00    -0.000 C 
ATOM     21  C   UNL     1      36.917 -23.178 -11.556  0.00  0.00    -0.000 C 
ATOM     22  C   UNL     1      38.019 -24.010 -11.356  0.00  0.00    -0.000 C 
ENDBRANCH  16  17
ENDBRANCH  15  16
ENDBRANCH  12  15
ENDBRANCH   8  10
BRANCH   3  23
ATOM     23  C   UNL     1      35.159 -17.503 -21.772  0.00  0.00    -0.023 C 
ATOM     24  C   UNL     1      34.830 -17.212 -23.095  0.00  0.00    -0.011 C 
ATOM     25  C   UNL     1      35.146 -16.496 -20.809  0.00  0.00    -0.004 C 
ATOM     26  C   UNL     1      34.488 -15.909 -23.456  0.00  0.00    -0.045 C 
ATOM     27  C   UNL     1      34.804 -15.192 -21.170  0.00  0.00    -0.001 C 
ATOM     28  C   UNL     1      34.475 -14.899 -22.493  0.00  0.00    -0.006 C 
BRANCH  26  29
ATOM     29  C   UNL     1      34.135 -15.594 -24.871  0.00  0.00    -0.059 C 
BRANCH  29  30
ATOM     30  N   UNL     1      32.987 -14.690 -24.970  0.00  0.00    +0.383 N 
ATOM     31  H   UNL     1      33.253 -13.765 -24.632  0.00  0.00    -0.089 HD
ATOM     32  H   UNL     1      32.220 -15.052 -24.405  0.00  0.00    -0.089 HD
ATOM     33  H   UNL     1      32.691 -14.624 -25.944  0.00  0.00    -0.089 HD
ENDBRANCH  29  30
ENDBRANCH  26  29
ENDBRANCH   3  23
TORSDOF 7
ENDMDL
MODEL 8
REMARK VINA RESULT:     -10.2      4.275     11.814
REMARK  Name = 657077
REMARK  7 active torsions:
REMARK  status: ('A' for Active; 'I' for Inactive)
REMARK    1  A    between atoms: C_3  and  C_23
REMARK    2  A    between atoms: C_8  and  C_10
REMARK    3  A    between atoms: C_12  and  C_15
REMARK    4  A    between atoms: C_15  and  C_16
REMARK    5  A    between atoms: C_16  and  C_17
REMARK    6  A    between atoms: C_26  and  C_29
REMARK    7  A    between atoms: C_29  and  N_30
REMARK                            x       y       z     vdW  Elec       q    Type
REMARK                         _______ _______ _______ _____ _____    ______ ____
ROOT
ATOM      1  O   UNL     1      37.146 -20.454 -18.035  0.00  0.00    -0.270 OA
ATOM      2  N   UNL     1      36.234 -20.323 -20.184  0.00  0.00    -0.276 N 
ATOM      3  C   UNL     1      35.653 -18.500 -22.355  0.00  0.00    +0.026 C 
ATOM      4  C   UNL     1      34.574 -19.429 -21.766  0.00  0.00    +0.026 C 
ATOM      5  C   UNL     1      36.736 -18.193 -21.303  0.00  0.00    +0.026 C 
ATOM      6  C   UNL     1      35.204 -20.686 -21.166  0.00  0.00    +0.094 C 
ATOM      7  C   UNL     1      37.308 -19.481 -20.710  0.00  0.00    +0.094 C 
ATOM      8  C   UNL     1      36.269 -20.737 -18.850  0.00  0.00    +0.251 C 
ENDROOT
BRANCH   8  10
ATOM      9  N   UNL     1      32.934 -22.427 -18.665  0.00  0.00    -0.242 NA
ATOM     10  C   UNL     1      35.167 -21.570 -18.355  0.00  0.00    +0.072 C 
ATOM     11  C   UNL     1      35.286 -22.269 -17.162  0.00  0.00    +0.003 C 
ATOM     12  C   UNL     1      34.225 -23.051 -16.718  0.00  0.00    -0.003 C 
ATOM     13  C   UNL     1      33.987 -21.677 -19.064  0.00  0.00    +0.103 C 
ATOM     14  C   UNL     1      33.081 -23.096 -17.500  0.00  0.00    +0.095 C 
BRANCH  12  15
ATOM     15  C   UNL     1      34.315 -23.816 -15.446  0.00  0.00    +0.033 C 
BRANCH  15  16
ATOM     16  C   UNL     1      33.483 -23.219 -14.291  0.00  0.00    +0.031 C 
BRANCH  16  17
ATOM     17  C   UNL     1      32.050 -23.697 -14.284  0.00  0.00    -0.022 C 
ATOM     18  C   UNL     1      31.768 -24.994 -13.886  0.00  0.00    -0.004 C 
ATOM     19  C   UNL     1      31.044 -22.829 -14.677  0.00  0.00    -0.004 C 
ATOM     20  C   UNL     1      30.444 -25.434 -13.881  0.00  0.00    -0.000 C 
ATOM     21  C   UNL     1      29.720 -23.269 -14.671  0.00  0.00    -0.000 C 
ATOM     22  C   UNL     1      29.421 -24.573 -14.273  0.00  0.00    -0.000 C 
ENDBRANCH  16  17
ENDBRANCH  15  16
ENDBRANCH  12  15
ENDBRANCH   8  10
BRANCH   3  23
ATOM     23  C   UNL     1      35.056 -17.236 -22.943  0.00  0.00    -0.023 C 
ATOM     24  C   UNL     1      35.001 -16.073 -22.177  0.00  0.00    -0.011 C 
ATOM     25  C   UNL     1      34.566 -17.240 -24.248  0.00  0.00    -0.004 C 
ATOM     26  C   UNL     1      34.453 -14.910 -22.717  0.00  0.00    -0.045 C 
ATOM     27  C   UNL     1      34.017 -16.077 -24.788  0.00  0.00    -0.001 C 
ATOM     28  C   UNL     1      33.961 -14.912 -24.023  0.00  0.00    -0.006 C 
BRANCH  26  29
ATOM     29  C   UNL     1      34.393 -13.663 -21.900  0.00  0.00    -0.059 C 
BRANCH  29  30
ATOM     30  N   UNL     1      33.018 -13.235 -21.638  0.00  0.00    +0.383 N 
ATOM     31  H   UNL     1      32.717 -13.595 -20.732  0.00  0.00    -0.089 HD
ATOM     32  H   UNL     1      32.405 -13.595 -22.368  0.00  0.00    -0.089 HD
ATOM     33  H   UNL     1      32.975 -12.216 -21.629  0.00  0.00    -0.089 HD
ENDBRANCH  29  30
ENDBRANCH  26  29
ENDBRANCH   3  23
TORSDOF 7
ENDMDL
MODEL 9
REMARK VINA RESULT:     -10.2      3.568      6.522
REMARK  Name = 657077
REMARK  7 active torsions:
REMARK  status: ('A' for Active; 'I' for Inactive)
REMARK    1  A    between atoms: C_3  and  C_23
REMARK    2  A    between atoms: C_8  and  C_10
REMARK    3  A    between atoms: C_12  and  C_15
REMARK    4  A    between atoms: C_15  and  C_16
REMARK    5  A    between atoms: C_16  and  C_17
REMARK    6  A    between atoms: C_26  and  C_29
REMARK    7  A    between atoms: C_29  and  N_30
REMARK                            x       y       z     vdW  Elec       q    Type
REMARK                         _______ _______ _______ _____ _____    ______ ____
ROOT
ATOM      1  O   UNL     1      32.687  -8.616 -19.137  0.00  0.00    -0.270 OA
ATOM      2  N   UNL     1      31.890  -9.948 -20.885  0.00  0.00    -0.276 N 
ATOM      3  C   UNL     1      32.175 -12.534 -22.153  0.00  0.00    +0.026 C 
ATOM      4  C   UNL     1      32.255 -11.223 -22.959  0.00  0.00    +0.026 C 
ATOM      5  C   UNL     1      32.592 -12.296 -20.688  0.00  0.00    +0.026 C 
ATOM      6  C   UNL     1      31.454 -10.114 -22.277  0.00  0.00    +0.094 C 
ATOM      7  C   UNL     1      31.786 -11.156 -20.065  0.00  0.00    +0.094 C 
ATOM      8  C   UNL     1      32.347  -8.760 -20.310  0.00  0.00    +0.251 C 
ENDROOT
BRANCH   8  10
ATOM      9  N   UNL     1      31.631  -5.380 -21.753  0.00  0.00    -0.242 NA
ATOM     10  C   UNL     1      32.450  -7.573 -21.166  0.00  0.00    +0.072 C 
ATOM     11  C   UNL     1      33.413  -7.496 -22.162  0.00  0.00    +0.003 C 
ATOM     12  C   UNL     1      33.487  -6.357 -22.958  0.00  0.00    -0.003 C 
ATOM     13  C   UNL     1      31.591  -6.503 -21.000  0.00  0.00    +0.103 C 
ATOM     14  C   UNL     1      32.581  -5.337 -22.714  0.00  0.00    +0.095 C 
BRANCH  12  15
ATOM     15  C   UNL     1      34.505  -6.239 -24.035  0.00  0.00    +0.033 C 
BRANCH  15  16
ATOM     16  C   UNL     1      34.188  -5.156 -25.088  0.00  0.00    +0.031 C 
BRANCH  16  17
ATOM     17  C   UNL     1      34.441  -5.615 -26.504  0.00  0.00    -0.022 C 
ATOM     18  C   UNL     1      33.368  -5.787 -27.365  0.00  0.00    -0.004 C 
ATOM     19  C   UNL     1      35.741  -5.856 -26.917  0.00  0.00    -0.004 C 
ATOM     20  C   UNL     1      33.601  -6.211 -28.673  0.00  0.00    -0.000 C 
ATOM     21  C   UNL     1      35.974  -6.279 -28.226  0.00  0.00    -0.000 C 
ATOM     22  C   UNL     1      34.904  -6.457 -29.103  0.00  0.00    -0.000 C 
ENDBRANCH  16  17
ENDBRANCH  15  16
ENDBRANCH  12  15
ENDBRANCH   8  10
BRANCH   3  23
ATOM     23  C   UNL     1      32.978 -13.648 -22.799  0.00  0.00    -0.023 C 
ATOM     24  C   UNL     1      33.770 -14.480 -22.010  0.00  0.00    -0.011 C 
ATOM     25  C   UNL     1      32.919 -13.836 -24.178  0.00  0.00    -0.004 C 
ATOM     26  C   UNL     1      34.507 -15.504 -22.603  0.00  0.00    -0.045 C 
ATOM     27  C   UNL     1      33.656 -14.861 -24.772  0.00  0.00    -0.001 C 
ATOM     28  C   UNL     1      34.450 -15.695 -23.984  0.00  0.00    -0.006 C 
BRANCH  26  29
ATOM     29  C   UNL     1      35.355 -16.398 -21.762  0.00  0.00    -0.059 C 
BRANCH  29  30
ATOM     30  N   UNL     1      35.884 -17.536 -22.517  0.00  0.00    +0.383 N 
ATOM     31  H   UNL     1      35.692 -17.403 -23.510  0.00  0.00    -0.089 HD
ATOM     32  H   UNL     1      35.438 -18.394 -22.196  0.00  0.00    -0.089 HD
ATOM     33  H   UNL     1      36.892 -17.601 -22.372  0.00  0.00    -0.089 HD
ENDBRANCH  29  30
ENDBRANCH  26  29
ENDBRANCH   3  23
TORSDOF 7
ENDMDL
