MODEL 1
REMARK VINA RESULT:     -11.0      0.000      0.000
REMARK  Name = 46937074
REMARK  11 active torsions:
REMARK  status: ('A' for Active; 'I' for Inactive)
REMARK    1  A    between atoms: C_1  and  N_4
REMARK    2  A    between atoms: C_1  and  C_23
REMARK    3  A    between atoms: C_5  and  C_7
REMARK    4  A    between atoms: C_7  and  C_10
REMARK    5  A    between atoms: C_7  and  C_14
REMARK    6  A    between atoms: N_9  and  O_12
REMARK    7  A    between atoms: C_14  and  C_15
REMARK    8  A    between atoms: N_22  and  C_25
REMARK    9  A    between atoms: C_25  and  C_28
REMARK   10  A    between atoms: N_27  and  C_30
REMARK   11  A    between atoms: C_33  and  N_38
REMARK                            x       y       z     vdW  Elec       q    Type
REMARK                         _______ _______ _______ _____ _____    ______ ____
ROOT
ATOM      1  C   UNL     1      34.498 -22.153 -18.680  0.00  0.00    +0.149 C 
ATOM      2  C   UNL     1      33.481 -21.213 -19.308  0.00  0.00    +0.031 C 
ENDROOT
BRANCH   1   4
ATOM      3  O   UNL     1      33.449 -24.635 -17.629  0.00  0.00    -0.275 OA
ATOM      4  N   UNL     1      34.163 -22.448 -17.305  0.00  0.00    -0.298 N 
ATOM      5  C   UNL     1      33.662 -23.674 -16.893  0.00  0.00    +0.231 C 
ATOM      6  H   UNL     1      34.296 -21.744 -16.630  0.00  0.00    +0.150 HD
BRANCH   5   7
ATOM      7  C   UNL     1      33.401 -23.722 -15.388  0.00  0.00    +0.159 C 
BRANCH   7  10
ATOM      8  O   UNL     1      35.776 -23.304 -15.127  0.00  0.00    -0.273 OA
ATOM      9  N   UNL     1      34.454 -23.418 -13.238  0.00  0.00    -0.197 N 
ATOM     10  C   UNL     1      34.678 -23.447 -14.593  0.00  0.00    +0.253 C 
ATOM     11  H   UNL     1      33.556 -23.538 -12.853  0.00  0.00    +0.182 HD
BRANCH   9  12
ATOM     12  O   UNL     1      35.585 -23.208 -12.438  0.00  0.00    -0.295 OA
ATOM     13  H   UNL     1      35.817 -24.033 -11.983  0.00  0.00    +0.241 HD
ENDBRANCH   9  12
ENDBRANCH   7  10
BRANCH   7  14
ATOM     14  C   UNL     1      32.291 -22.711 -15.043  0.00  0.00    +0.045 C 
BRANCH  14  15
ATOM     15  C   UNL     1      30.902 -23.274 -15.231  0.00  0.00    -0.021 C 
ATOM     16  C   UNL     1      30.533 -24.451 -14.580  0.00  0.00    -0.004 C 
ATOM     17  C   UNL     1      29.988 -22.617 -16.054  0.00  0.00    -0.004 C 
ATOM     18  C   UNL     1      29.250 -24.971 -14.753  0.00  0.00    -0.000 C 
ATOM     19  C   UNL     1      28.706 -23.137 -16.228  0.00  0.00    -0.000 C 
ATOM     20  C   UNL     1      28.336 -24.315 -15.577  0.00  0.00    -0.000 C 
ENDBRANCH  14  15
ENDBRANCH   7  14
ENDBRANCH   5   7
ENDBRANCH   1   4
BRANCH   1  23
ATOM     21  O   UNL     1      36.810 -21.934 -17.985  0.00  0.00    -0.273 OA
ATOM     22  N   UNL     1      35.980 -20.476 -19.588  0.00  0.00    -0.295 N 
ATOM     23  C   UNL     1      35.893 -21.541 -18.702  0.00  0.00    +0.241 C 
ATOM     24  H   UNL     1      35.187 -20.237 -20.120  0.00  0.00    +0.150 HD
BRANCH  22  25
ATOM     25  C   UNL     1      37.187 -19.702 -19.759  0.00  0.00    +0.176 C 
BRANCH  25  28
ATOM     26  O   UNL     1      37.995 -18.578 -21.729  0.00  0.00    -0.273 OA
ATOM     27  N   UNL     1      35.778 -18.245 -21.025  0.00  0.00    -0.283 N 
ATOM     28  C   UNL     1      37.061 -18.782 -20.960  0.00  0.00    +0.246 C 
ATOM     29  H   UNL     1      35.155 -18.521 -20.315  0.00  0.00    +0.155 HD
BRANCH  27  30
ATOM     30  C   UNL     1      35.266 -17.347 -21.992  0.00  0.00    +0.050 C 
ATOM     31  C   UNL     1      35.056 -17.780 -23.301  0.00  0.00    +0.016 C 
ATOM     32  C   UNL     1      34.973 -16.031 -21.636  0.00  0.00    +0.016 C 
ATOM     33  C   UNL     1      34.258 -15.579 -23.898  0.00  0.00    +0.143 C 
ATOM     34  C   UNL     1      34.551 -16.895 -24.254  0.00  0.00    +0.025 C 
ATOM     35  C   UNL     1      34.468 -15.146 -22.589  0.00  0.00    +0.025 C 
BRANCH  33  38
ATOM     36  O   UNL     1      33.674 -13.457 -24.590  0.00  0.00    -0.126 OA
ATOM     37  O   UNL     1      33.376 -15.129 -25.982  0.00  0.00    -0.126 OA
ATOM     38  N   UNL     1      33.744 -14.678 -24.869  0.00  0.00    +0.058 N 
ENDBRANCH  33  38
ENDBRANCH  27  30
ENDBRANCH  25  28
ENDBRANCH  22  25
ENDBRANCH   1  23
TORSDOF 11
ENDMDL
MODEL 2
REMARK VINA RESULT:     -10.7      1.887      3.039
REMARK  Name = 46937074
REMARK  11 active torsions:
REMARK  status: ('A' for Active; 'I' for Inactive)
REMARK    1  A    between atoms: C_1  and  N_4
REMARK    2  A    between atoms: C_1  and  C_23
REMARK    3  A    between atoms: C_5  and  C_7
REMARK    4  A    between atoms: C_7  and  C_10
REMARK    5  A    between atoms: C_7  and  C_14
REMARK    6  A    between atoms: N_9  and  O_12
REMARK    7  A    between atoms: C_14  and  C_15
REMARK    8  A    between atoms: N_22  and  C_25
REMARK    9  A    between atoms: C_25  and  C_28
REMARK   10  A    between atoms: N_27  and  C_30
REMARK   11  A    between atoms: C_33  and  N_38
REMARK                            x       y       z     vdW  Elec       q    Type
REMARK                         _______ _______ _______ _____ _____    ______ ____
ROOT
ATOM      1  C   UNL     1      36.365 -21.765 -16.052  0.00  0.00    +0.149 C 
ATOM      2  C   UNL     1      37.771 -22.269 -15.765  0.00  0.00    +0.031 C 
ENDROOT
BRANCH   1   4
ATOM      3  O   UNL     1      36.304 -24.564 -15.327  0.00  0.00    -0.275 OA
ATOM      4  N   UNL     1      35.388 -22.431 -15.221  0.00  0.00    -0.298 N 
ATOM      5  C   UNL     1      35.441 -23.785 -14.927  0.00  0.00    +0.231 C 
ATOM      6  H   UNL     1      34.651 -21.898 -14.847  0.00  0.00    +0.150 HD
BRANCH   5   7
ATOM      7  C   UNL     1      34.293 -24.232 -14.021  0.00  0.00    +0.159 C 
BRANCH   7  10
ATOM      8  O   UNL     1      34.348 -23.872 -11.622  0.00  0.00    -0.273 OA
ATOM      9  N   UNL     1      35.762 -25.448 -12.542  0.00  0.00    -0.197 N 
ATOM     10  C   UNL     1      34.780 -24.489 -12.594  0.00  0.00    +0.253 C 
ATOM     11  H   UNL     1      36.078 -25.918 -13.347  0.00  0.00    +0.182 HD
BRANCH   9  12
ATOM     12  O   UNL     1      36.286 -25.714 -11.271  0.00  0.00    -0.295 OA
ATOM     13  H   UNL     1      35.579 -26.033 -10.689  0.00  0.00    +0.241 HD
ENDBRANCH   9  12
ENDBRANCH   7  10
BRANCH   7  14
ATOM     14  C   UNL     1      33.187 -23.161 -14.057  0.00  0.00    +0.045 C 
BRANCH  14  15
ATOM     15  C   UNL     1      31.833 -23.724 -14.423  0.00  0.00    -0.021 C 
ATOM     16  C   UNL     1      31.050 -23.087 -15.385  0.00  0.00    -0.004 C 
ATOM     17  C   UNL     1      31.368 -24.882 -13.801  0.00  0.00    -0.004 C 
ATOM     18  C   UNL     1      29.800 -23.607 -15.724  0.00  0.00    -0.000 C 
ATOM     19  C   UNL     1      30.119 -25.402 -14.138  0.00  0.00    -0.000 C 
ATOM     20  C   UNL     1      29.335 -24.764 -15.100  0.00  0.00    -0.000 C 
ENDBRANCH  14  15
ENDBRANCH   7  14
ENDBRANCH   5   7
ENDBRANCH   1   4
BRANCH   1  23
ATOM     21  O   UNL     1      36.796 -21.940 -18.431  0.00  0.00    -0.273 OA
ATOM     22  N   UNL     1      34.632 -22.262 -17.659  0.00  0.00    -0.295 N 
ATOM     23  C   UNL     1      35.987 -22.006 -17.508  0.00  0.00    +0.241 C 
ATOM     24  H   UNL     1      34.064 -22.295 -16.855  0.00  0.00    +0.150 HD
BRANCH  22  25
ATOM     25  C   UNL     1      34.019 -22.482 -18.949  0.00  0.00    +0.176 C 
BRANCH  25  28
ATOM     26  O   UNL     1      32.695 -20.520 -19.388  0.00  0.00    -0.273 OA
ATOM     27  N   UNL     1      34.741 -20.817 -20.504  0.00  0.00    -0.283 N 
ATOM     28  C   UNL     1      33.717 -21.156 -19.624  0.00  0.00    +0.246 C 
ATOM     29  H   UNL     1      35.489 -21.453 -20.566  0.00  0.00    +0.155 HD
BRANCH  27  30
ATOM     30  C   UNL     1      34.832 -19.663 -21.318  0.00  0.00    +0.050 C 
ATOM     31  C   UNL     1      35.295 -18.464 -20.778  0.00  0.00    +0.016 C 
ATOM     32  C   UNL     1      34.459 -19.726 -22.661  0.00  0.00    +0.016 C 
ATOM     33  C   UNL     1      35.011 -17.389 -22.924  0.00  0.00    +0.143 C 
ATOM     34  C   UNL     1      35.384 -17.326 -21.581  0.00  0.00    +0.025 C 
ATOM     35  C   UNL     1      34.548 -18.589 -23.464  0.00  0.00    +0.025 C 
BRANCH  33  38
ATOM     36  O   UNL     1      35.359 -15.126 -23.204  0.00  0.00    -0.126 OA
ATOM     37  O   UNL     1      34.924 -16.344 -24.978  0.00  0.00    -0.126 OA
ATOM     38  N   UNL     1      35.102 -16.231 -23.741  0.00  0.00    +0.058 N 
ENDBRANCH  33  38
ENDBRANCH  27  30
ENDBRANCH  25  28
ENDBRANCH  22  25
ENDBRANCH   1  23
TORSDOF 11
ENDMDL
MODEL 3
REMARK VINA RESULT:     -10.4      4.633     12.462
REMARK  Name = 46937074
REMARK  11 active torsions:
REMARK  status: ('A' for Active; 'I' for Inactive)
REMARK    1  A    between atoms: C_1  and  N_4
REMARK    2  A    between atoms: C_1  and  C_23
REMARK    3  A    between atoms: C_5  and  C_7
REMARK    4  A    between atoms: C_7  and  C_10
REMARK    5  A    between atoms: C_7  and  C_14
REMARK    6  A    between atoms: N_9  and  O_12
REMARK    7  A    between atoms: C_14  and  C_15
REMARK    8  A    between atoms: N_22  and  C_25
REMARK    9  A    between atoms: C_25  and  C_28
REMARK   10  A    between atoms: N_27  and  C_30
REMARK   11  A    between atoms: C_33  and  N_38
REMARK                            x       y       z     vdW  Elec       q    Type
REMARK                         _______ _______ _______ _____ _____    ______ ____
ROOT
ATOM      1  C   UNL     1      33.041 -13.918 -23.594  0.00  0.00    +0.149 C 
ATOM      2  C   UNL     1      33.059 -14.292 -25.068  0.00  0.00    +0.031 C 
ENDROOT
BRANCH   1   4
ATOM      3  O   UNL     1      31.175 -12.387 -22.001  0.00  0.00    -0.275 OA
ATOM      4  N   UNL     1      33.015 -12.484 -23.416  0.00  0.00    -0.298 N 
ATOM      5  C   UNL     1      32.077 -11.835 -22.628  0.00  0.00    +0.231 C 
ATOM      6  H   UNL     1      33.697 -11.943 -23.876  0.00  0.00    +0.150 HD
BRANCH   5   7
ATOM      7  C   UNL     1      32.281 -10.320 -22.604  0.00  0.00    +0.159 C 
BRANCH   7  10
ATOM      8  O   UNL     1      31.532  -8.608 -21.057  0.00  0.00    -0.273 OA
ATOM      9  N   UNL     1      32.305 -10.611 -20.209  0.00  0.00    -0.197 N 
ATOM     10  C   UNL     1      31.982  -9.741 -21.221  0.00  0.00    +0.253 C 
ATOM     11  H   UNL     1      32.664 -11.510 -20.386  0.00  0.00    +0.182 HD
BRANCH   9  12
ATOM     12  O   UNL     1      32.094 -10.137 -18.908  0.00  0.00    -0.295 OA
ATOM     13  H   UNL     1      31.390 -10.654 -18.485  0.00  0.00    +0.241 HD
ENDBRANCH   9  12
ENDBRANCH   7  10
BRANCH   7  14
ATOM     14  C   UNL     1      33.722 -10.007 -23.050  0.00  0.00    +0.045 C 
BRANCH  14  15
ATOM     15  C   UNL     1      33.901  -8.577 -23.504  0.00  0.00    -0.021 C 
ATOM     16  C   UNL     1      35.101  -7.911 -23.256  0.00  0.00    -0.004 C 
ATOM     17  C   UNL     1      32.866  -7.923 -24.173  0.00  0.00    -0.004 C 
ATOM     18  C   UNL     1      35.266  -6.591 -23.677  0.00  0.00    -0.000 C 
ATOM     19  C   UNL     1      33.030  -6.603 -24.592  0.00  0.00    -0.000 C 
ATOM     20  C   UNL     1      34.231  -5.937 -24.344  0.00  0.00    -0.000 C 
ENDBRANCH  14  15
ENDBRANCH   7  14
ENDBRANCH   5   7
ENDBRANCH   1   4
BRANCH   1  23
ATOM     21  O   UNL     1      34.944 -13.788 -22.099  0.00  0.00    -0.273 OA
ATOM     22  N   UNL     1      34.559 -15.766 -23.250  0.00  0.00    -0.295 N 
ATOM     23  C   UNL     1      34.273 -14.459 -22.880  0.00  0.00    +0.241 C 
ATOM     24  H   UNL     1      33.957 -16.219 -23.885  0.00  0.00    +0.150 HD
BRANCH  22  25
ATOM     25  C   UNL     1      35.702 -16.487 -22.744  0.00  0.00    +0.176 C 
BRANCH  25  28
ATOM     26  O   UNL     1      34.989 -16.681 -20.452  0.00  0.00    -0.273 OA
ATOM     27  N   UNL     1      35.448 -18.620 -21.698  0.00  0.00    -0.283 N 
ATOM     28  C   UNL     1      35.332 -17.250 -21.484  0.00  0.00    +0.246 C 
ATOM     29  H   UNL     1      35.740 -18.897 -22.595  0.00  0.00    +0.155 HD
BRANCH  27  30
ATOM     30  C   UNL     1      35.193 -19.662 -20.774  0.00  0.00    +0.050 C 
ATOM     31  C   UNL     1      33.883 -20.072 -20.531  0.00  0.00    +0.016 C 
ATOM     32  C   UNL     1      36.252 -20.278 -20.107  0.00  0.00    +0.016 C 
ATOM     33  C   UNL     1      34.691 -21.714 -18.953  0.00  0.00    +0.143 C 
ATOM     34  C   UNL     1      33.631 -21.099 -19.620  0.00  0.00    +0.025 C 
ATOM     35  C   UNL     1      36.002 -21.304 -19.197  0.00  0.00    +0.025 C 
BRANCH  33  38
ATOM     36  O   UNL     1      33.636 -23.673 -18.343  0.00  0.00    -0.126 OA
ATOM     37  O   UNL     1      35.017 -22.741 -16.913  0.00  0.00    -0.126 OA
ATOM     38  N   UNL     1      34.435 -22.759 -18.025  0.00  0.00    +0.058 N 
ENDBRANCH  33  38
ENDBRANCH  27  30
ENDBRANCH  25  28
ENDBRANCH  22  25
ENDBRANCH   1  23
TORSDOF 11
ENDMDL
MODEL 4
REMARK VINA RESULT:     -10.3      4.221     11.990
REMARK  Name = 46937074
REMARK  11 active torsions:
REMARK  status: ('A' for Active; 'I' for Inactive)
REMARK    1  A    between atoms: C_1  and  N_4
REMARK    2  A    between atoms: C_1  and  C_23
REMARK    3  A    between atoms: C_5  and  C_7
REMARK    4  A    between atoms: C_7  and  C_10
REMARK    5  A    between atoms: C_7  and  C_14
REMARK    6  A    between atoms: N_9  and  O_12
REMARK    7  A    between atoms: C_14  and  C_15
REMARK    8  A    between atoms: N_22  and  C_25
REMARK    9  A    between atoms: C_25  and  C_28
REMARK   10  A    between atoms: N_27  and  C_30
REMARK   11  A    between atoms: C_33  and  N_38
REMARK                            x       y       z     vdW  Elec       q    Type
REMARK                         _______ _______ _______ _____ _____    ______ ____
ROOT
ATOM      1  C   UNL     1      33.319 -14.685 -23.873  0.00  0.00    +0.149 C 
ATOM      2  C   UNL     1      33.393 -14.896 -25.377  0.00  0.00    +0.031 C 
ENDROOT
BRANCH   1   4
ATOM      3  O   UNL     1      31.919 -13.397 -21.695  0.00  0.00    -0.275 OA
ATOM      4  N   UNL     1      33.327 -13.279 -23.539  0.00  0.00    -0.298 N 
ATOM      5  C   UNL     1      32.620 -12.750 -22.470  0.00  0.00    +0.231 C 
ATOM      6  H   UNL     1      33.860 -12.668 -24.098  0.00  0.00    +0.150 HD
BRANCH   5   7
ATOM      7  C   UNL     1      32.809 -11.239 -22.335  0.00  0.00    +0.159 C 
BRANCH   7  10
ATOM      8  O   UNL     1      33.017 -10.473 -24.627  0.00  0.00    -0.273 OA
ATOM      9  N   UNL     1      34.880 -10.423 -23.266  0.00  0.00    -0.197 N 
ATOM     10  C   UNL     1      33.555 -10.662 -23.539  0.00  0.00    +0.253 C 
ATOM     11  H   UNL     1      35.270 -10.590 -22.377  0.00  0.00    +0.182 HD
BRANCH   9  12
ATOM     12  O   UNL     1      35.642  -9.928 -24.332  0.00  0.00    -0.295 OA
ATOM     13  H   UNL     1      36.273 -10.606 -24.621  0.00  0.00    +0.241 HD
ENDBRANCH   9  12
ENDBRANCH   7  10
BRANCH   7  14
ATOM     14  C   UNL     1      31.428 -10.580 -22.157  0.00  0.00    +0.045 C 
BRANCH  14  15
ATOM     15  C   UNL     1      31.516  -9.136 -21.720  0.00  0.00    -0.021 C 
ATOM     16  C   UNL     1      31.104  -8.121 -22.583  0.00  0.00    -0.004 C 
ATOM     17  C   UNL     1      32.008  -8.818 -20.454  0.00  0.00    -0.004 C 
ATOM     18  C   UNL     1      31.185  -6.787 -22.180  0.00  0.00    -0.000 C 
ATOM     19  C   UNL     1      32.090  -7.486 -20.052  0.00  0.00    -0.000 C 
ATOM     20  C   UNL     1      31.678  -6.470 -20.915  0.00  0.00    -0.000 C 
ENDBRANCH  14  15
ENDBRANCH   7  14
ENDBRANCH   5   7
ENDBRANCH   1   4
BRANCH   1  23
ATOM     21  O   UNL     1      35.298 -14.717 -22.474  0.00  0.00    -0.273 OA
ATOM     22  N   UNL     1      34.588 -16.697 -23.454  0.00  0.00    -0.295 N 
ATOM     23  C   UNL     1      34.502 -15.341 -23.173  0.00  0.00    +0.241 C 
ATOM     24  H   UNL     1      33.898 -17.106 -24.026  0.00  0.00    +0.150 HD
BRANCH  22  25
ATOM     25  C   UNL     1      35.648 -17.534 -22.942  0.00  0.00    +0.176 C 
BRANCH  25  28
ATOM     26  O   UNL     1      35.245 -17.341 -20.577  0.00  0.00    -0.273 OA
ATOM     27  N   UNL     1      35.033 -19.432 -21.627  0.00  0.00    -0.283 N 
ATOM     28  C   UNL     1      35.287 -18.064 -21.566  0.00  0.00    +0.246 C 
ATOM     29  H   UNL     1      35.117 -19.850 -22.513  0.00  0.00    +0.155 HD
BRANCH  27  30
ATOM     30  C   UNL     1      34.666 -20.289 -20.562  0.00  0.00    +0.050 C 
ATOM     31  C   UNL     1      35.645 -21.008 -19.878  0.00  0.00    +0.016 C 
ATOM     32  C   UNL     1      33.325 -20.414 -20.197  0.00  0.00    +0.016 C 
ATOM     33  C   UNL     1      33.943 -21.978 -18.464  0.00  0.00    +0.143 C 
ATOM     34  C   UNL     1      35.284 -21.853 -18.829  0.00  0.00    +0.025 C 
ATOM     35  C   UNL     1      32.964 -21.259 -19.148  0.00  0.00    +0.025 C 
BRANCH  33  38
ATOM     36  O   UNL     1      34.472 -23.477 -16.792  0.00  0.00    -0.126 OA
ATOM     37  O   UNL     1      32.364 -22.936 -17.083  0.00  0.00    -0.126 OA
ATOM     38  N   UNL     1      33.576 -22.839 -17.395  0.00  0.00    +0.058 N 
ENDBRANCH  33  38
ENDBRANCH  27  30
ENDBRANCH  25  28
ENDBRANCH  22  25
ENDBRANCH   1  23
TORSDOF 11
ENDMDL
MODEL 5
REMARK VINA RESULT:     -10.2      4.486     11.440
REMARK  Name = 46937074
REMARK  11 active torsions:
REMARK  status: ('A' for Active; 'I' for Inactive)
REMARK    1  A    between atoms: C_1  and  N_4
REMARK    2  A    between atoms: C_1  and  C_23
REMARK    3  A    between atoms: C_5  and  C_7
REMARK    4  A    between atoms: C_7  and  C_10
REMARK    5  A    between atoms: C_7  and  C_14
REMARK    6  A    between atoms: N_9  and  O_12
REMARK    7  A    between atoms: C_14  and  C_15
REMARK    8  A    between atoms: N_22  and  C_25
REMARK    9  A    between atoms: C_25  and  C_28
REMARK   10  A    between atoms: N_27  and  C_30
REMARK   11  A    between atoms: C_33  and  N_38
REMARK                            x       y       z     vdW  Elec       q    Type
REMARK                         _______ _______ _______ _____ _____    ______ ____
ROOT
ATOM      1  C   UNL     1      34.649 -14.239 -21.665  0.00  0.00    +0.149 C 
ATOM      2  C   UNL     1      34.384 -15.017 -20.386  0.00  0.00    +0.031 C 
ENDROOT
BRANCH   1   4
ATOM      3  O   UNL     1      31.927 -14.035 -20.709  0.00  0.00    -0.275 OA
ATOM      4  N   UNL     1      33.765 -13.102 -21.781  0.00  0.00    -0.298 N 
ATOM      5  C   UNL     1      32.468 -13.096 -21.289  0.00  0.00    +0.231 C 
ATOM      6  H   UNL     1      34.100 -12.293 -22.231  0.00  0.00    +0.150 HD
BRANCH   5   7
ATOM      7  C   UNL     1      31.756 -11.766 -21.536  0.00  0.00    +0.159 C 
BRANCH   7  10
ATOM      8  O   UNL     1      30.068 -10.717 -20.145  0.00  0.00    -0.273 OA
ATOM      9  N   UNL     1      32.121 -11.213 -19.215  0.00  0.00    -0.197 N 
ATOM     10  C   UNL     1      31.201 -11.183 -20.235  0.00  0.00    +0.253 C 
ATOM     11  H   UNL     1      33.020 -11.597 -19.332  0.00  0.00    +0.182 HD
BRANCH   9  12
ATOM     12  O   UNL     1      31.700 -10.661 -17.999  0.00  0.00    -0.295 OA
ATOM     13  H   UNL     1      31.572  -9.706 -18.104  0.00  0.00    +0.241 HD
ENDBRANCH   9  12
ENDBRANCH   7  10
BRANCH   7  14
ATOM     14  C   UNL     1      32.738 -10.795 -22.218  0.00  0.00    +0.045 C 
BRANCH  14  15
ATOM     15  C   UNL     1      32.210  -9.382 -22.297  0.00  0.00    -0.021 C 
ATOM     16  C   UNL     1      32.730  -8.396 -21.459  0.00  0.00    -0.004 C 
ATOM     17  C   UNL     1      31.205  -9.062 -23.209  0.00  0.00    -0.004 C 
ATOM     18  C   UNL     1      32.243  -7.090 -21.532  0.00  0.00    -0.000 C 
ATOM     19  C   UNL     1      30.717  -7.758 -23.282  0.00  0.00    -0.000 C 
ATOM     20  C   UNL     1      31.237  -6.771 -22.443  0.00  0.00    -0.000 C 
ENDBRANCH  14  15
ENDBRANCH   7  14
ENDBRANCH   5   7
ENDBRANCH   1   4
BRANCH   1  23
ATOM     21  O   UNL     1      33.768 -14.777 -23.858  0.00  0.00    -0.273 OA
ATOM     22  N   UNL     1      35.068 -16.353 -22.757  0.00  0.00    -0.295 N 
ATOM     23  C   UNL     1      34.443 -15.121 -22.891  0.00  0.00    +0.241 C 
ATOM     24  H   UNL     1      35.588 -16.533 -21.940  0.00  0.00    +0.150 HD
BRANCH  22  25
ATOM     25  C   UNL     1      34.986 -17.382 -23.767  0.00  0.00    +0.176 C 
BRANCH  25  28
ATOM     26  O   UNL     1      34.599 -19.758 -23.780  0.00  0.00    -0.273 OA
ATOM     27  N   UNL     1      34.911 -18.641 -21.737  0.00  0.00    -0.283 N 
ATOM     28  C   UNL     1      34.807 -18.744 -23.121  0.00  0.00    +0.246 C 
ATOM     29  H   UNL     1      35.080 -17.739 -21.380  0.00  0.00    +0.155 HD
BRANCH  27  30
ATOM     30  C   UNL     1      34.804 -19.681 -20.783  0.00  0.00    +0.050 C 
ATOM     31  C   UNL     1      33.547 -20.136 -20.387  0.00  0.00    +0.016 C 
ATOM     32  C   UNL     1      35.956 -20.251 -20.240  0.00  0.00    +0.016 C 
ATOM     33  C   UNL     1      34.593 -21.731 -18.904  0.00  0.00    +0.143 C 
ATOM     34  C   UNL     1      33.441 -21.161 -19.447  0.00  0.00    +0.025 C 
ATOM     35  C   UNL     1      35.851 -21.276 -19.301  0.00  0.00    +0.025 C 
BRANCH  33  38
ATOM     36  O   UNL     1      33.662 -23.701 -18.146  0.00  0.00    -0.126 OA
ATOM     37  O   UNL     1      35.218 -22.744 -16.928  0.00  0.00    -0.126 OA
ATOM     38  N   UNL     1      34.485 -22.775 -17.947  0.00  0.00    +0.058 N 
ENDBRANCH  33  38
ENDBRANCH  27  30
ENDBRANCH  25  28
ENDBRANCH  22  25
ENDBRANCH   1  23
TORSDOF 11
ENDMDL
MODEL 6
REMARK VINA RESULT:     -10.1      4.715     12.216
REMARK  Name = 46937074
REMARK  11 active torsions:
REMARK  status: ('A' for Active; 'I' for Inactive)
REMARK    1  A    between atoms: C_1  and  N_4
REMARK    2  A    between atoms: C_1  and  C_23
REMARK    3  A    between atoms: C_5  and  C_7
REMARK    4  A    between atoms: C_7  and  C_10
REMARK    5  A    between atoms: C_7  and  C_14
REMARK    6  A    between atoms: N_9  and  O_12
REMARK    7  A    between atoms: C_14  and  C_15
REMARK    8  A    between atoms: N_22  and  C_25
REMARK    9  A    between atoms: C_25  and  C_28
REMARK   10  A    between atoms: N_27  and  C_30
REMARK   11  A    between atoms: C_33  and  N_38
REMARK                            x       y       z     vdW  Elec       q    Type
REMARK                         _______ _______ _______ _____ _____    ______ ____
ROOT
ATOM      1  C   UNL     1      34.514 -13.748 -22.265  0.00  0.00    +0.149 C 
ATOM      2  C   UNL     1      34.495 -14.419 -20.900  0.00  0.00    +0.031 C 
ENDROOT
BRANCH   1   4
ATOM      3  O   UNL     1      34.623 -11.513 -24.097  0.00  0.00    -0.275 OA
ATOM      4  N   UNL     1      33.634 -12.602 -22.298  0.00  0.00    -0.298 N 
ATOM      5  C   UNL     1      33.764 -11.573 -23.219  0.00  0.00    +0.231 C 
ATOM      6  H   UNL     1      32.908 -12.549 -21.635  0.00  0.00    +0.150 HD
BRANCH   5   7
ATOM      7  C   UNL     1      32.700 -10.490 -23.039  0.00  0.00    +0.159 C 
BRANCH   7  10
ATOM      8  O   UNL     1      32.327 -10.546 -20.643  0.00  0.00    -0.273 OA
ATOM      9  N   UNL     1      30.612 -11.185 -22.050  0.00  0.00    -0.197 N 
ATOM     10  C   UNL     1      31.876 -10.725 -21.773  0.00  0.00    +0.253 C 
ATOM     11  H   UNL     1      30.292 -11.314 -22.972  0.00  0.00    +0.182 HD
BRANCH   9  12
ATOM     12  O   UNL     1      29.806 -11.460 -20.937  0.00  0.00    -0.295 OA
ATOM     13  H   UNL     1      30.017 -12.343 -20.596  0.00  0.00    +0.241 HD
ENDBRANCH   9  12
ENDBRANCH   7  10
BRANCH   7  14
ATOM     14  C   UNL     1      33.390  -9.113 -23.019  0.00  0.00    +0.045 C 
BRANCH  14  15
ATOM     15  C   UNL     1      32.419  -7.970 -22.843  0.00  0.00    -0.021 C 
ATOM     16  C   UNL     1      31.499  -7.677 -23.849  0.00  0.00    -0.004 C 
ATOM     17  C   UNL     1      32.441  -7.208 -21.675  0.00  0.00    -0.004 C 
ATOM     18  C   UNL     1      30.601  -6.621 -23.687  0.00  0.00    -0.000 C 
ATOM     19  C   UNL     1      31.545  -6.152 -21.513  0.00  0.00    -0.000 C 
ATOM     20  C   UNL     1      30.624  -5.858 -22.520  0.00  0.00    -0.000 C 
ENDBRANCH  14  15
ENDBRANCH   7  14
ENDBRANCH   5   7
ENDBRANCH   1   4
BRANCH   1  23
ATOM     21  O   UNL     1      33.079 -14.522 -24.058  0.00  0.00    -0.273 OA
ATOM     22  N   UNL     1      34.880 -15.839 -23.418  0.00  0.00    -0.295 N 
ATOM     23  C   UNL     1      34.068 -14.715 -23.354  0.00  0.00    +0.241 C 
ATOM     24  H   UNL     1      35.651 -15.899 -22.809  0.00  0.00    +0.150 HD
BRANCH  22  25
ATOM     25  C   UNL     1      34.639 -16.922 -24.341  0.00  0.00    +0.176 C 
BRANCH  25  28
ATOM     26  O   UNL     1      34.250 -19.290 -24.141  0.00  0.00    -0.273 OA
ATOM     27  N   UNL     1      35.079 -18.086 -22.301  0.00  0.00    -0.283 N 
ATOM     28  C   UNL     1      34.624 -18.251 -23.606  0.00  0.00    +0.246 C 
ATOM     29  H   UNL     1      35.337 -17.172 -22.043  0.00  0.00    +0.155 HD
BRANCH  27  30
ATOM     30  C   UNL     1      35.214 -19.080 -21.302  0.00  0.00    +0.050 C 
ATOM     31  C   UNL     1      36.467 -19.350 -20.754  0.00  0.00    +0.016 C 
ATOM     32  C   UNL     1      34.094 -19.789 -20.868  0.00  0.00    +0.016 C 
ATOM     33  C   UNL     1      35.479 -21.039 -19.335  0.00  0.00    +0.143 C 
ATOM     34  C   UNL     1      36.600 -20.330 -19.770  0.00  0.00    +0.025 C 
ATOM     35  C   UNL     1      34.226 -20.768 -19.884  0.00  0.00    +0.025 C 
BRANCH  33  38
ATOM     36  O   UNL     1      36.676 -22.088 -17.665  0.00  0.00    -0.126 OA
ATOM     37  O   UNL     1      34.668 -22.838 -18.141  0.00  0.00    -0.126 OA
ATOM     38  N   UNL     1      35.615 -22.036 -18.333  0.00  0.00    +0.058 N 
ENDBRANCH  33  38
ENDBRANCH  27  30
ENDBRANCH  25  28
ENDBRANCH  22  25
ENDBRANCH   1  23
TORSDOF 11
ENDMDL
MODEL 7
REMARK VINA RESULT:     -10.0      1.888      3.196
REMARK  Name = 46937074
REMARK  11 active torsions:
REMARK  status: ('A' for Active; 'I' for Inactive)
REMARK    1  A    between atoms: C_1  and  N_4
REMARK    2  A    between atoms: C_1  and  C_23
REMARK    3  A    between atoms: C_5  and  C_7
REMARK    4  A    between atoms: C_7  and  C_10
REMARK    5  A    between atoms: C_7  and  C_14
REMARK    6  A    between atoms: N_9  and  O_12
REMARK    7  A    between atoms: C_14  and  C_15
REMARK    8  A    between atoms: N_22  and  C_25
REMARK    9  A    between atoms: C_25  and  C_28
REMARK   10  A    between atoms: N_27  and  C_30
REMARK   11  A    between atoms: C_33  and  N_38
REMARK                            x       y       z     vdW  Elec       q    Type
REMARK                         _______ _______ _______ _____ _____    ______ ____
ROOT
ATOM      1  C   UNL     1      36.197 -22.900 -15.027  0.00  0.00    +0.149 C 
ATOM      2  C   UNL     1      36.683 -24.331 -14.859  0.00  0.00    +0.031 C 
ENDROOT
BRANCH   1   4
ATOM      3  O   UNL     1      33.653 -23.435 -13.761  0.00  0.00    -0.275 OA
ATOM      4  N   UNL     1      34.890 -22.859 -15.642  0.00  0.00    -0.298 N 
ATOM      5  C   UNL     1      33.719 -23.132 -14.951  0.00  0.00    +0.231 C 
ATOM      6  H   UNL     1      34.828 -22.625 -16.596  0.00  0.00    +0.150 HD
BRANCH   5   7
ATOM      7  C   UNL     1      32.477 -23.007 -15.833  0.00  0.00    +0.159 C 
BRANCH   7  10
ATOM      8  O   UNL     1      33.474 -24.077 -17.769  0.00  0.00    -0.273 OA
ATOM      9  N   UNL     1      32.389 -22.059 -18.050  0.00  0.00    -0.197 N 
ATOM     10  C   UNL     1      32.834 -23.131 -17.315  0.00  0.00    +0.253 C 
ATOM     11  H   UNL     1      31.879 -21.321 -17.645  0.00  0.00    +0.182 HD
BRANCH   9  12
ATOM     12  O   UNL     1      32.711 -22.080 -19.414  0.00  0.00    -0.295 OA
ATOM     13  H   UNL     1      33.294 -22.833 -19.597  0.00  0.00    +0.241 HD
ENDBRANCH   9  12
ENDBRANCH   7  10
BRANCH   7  14
ATOM     14  C   UNL     1      31.454 -24.077 -15.406  0.00  0.00    +0.045 C 
BRANCH  14  15
ATOM     15  C   UNL     1      30.026 -23.591 -15.483  0.00  0.00    -0.021 C 
ATOM     16  C   UNL     1      29.176 -24.081 -16.474  0.00  0.00    -0.004 C 
ATOM     17  C   UNL     1      29.557 -22.653 -14.563  0.00  0.00    -0.004 C 
ATOM     18  C   UNL     1      27.856 -23.633 -16.545  0.00  0.00    -0.000 C 
ATOM     19  C   UNL     1      28.239 -22.204 -14.635  0.00  0.00    -0.000 C 
ATOM     20  C   UNL     1      27.388 -22.695 -15.626  0.00  0.00    -0.000 C 
ENDBRANCH  14  15
ENDBRANCH   7  14
ENDBRANCH   5   7
ENDBRANCH   1   4
BRANCH   1  23
ATOM     21  O   UNL     1      38.307 -21.838 -15.569  0.00  0.00    -0.273 OA
ATOM     22  N   UNL     1      36.553 -21.678 -17.080  0.00  0.00    -0.295 N 
ATOM     23  C   UNL     1      37.154 -22.100 -15.903  0.00  0.00    +0.241 C 
ATOM     24  H   UNL     1      35.621 -21.942 -17.256  0.00  0.00    +0.150 HD
BRANCH  22  25
ATOM     25  C   UNL     1      37.240 -20.867 -18.058  0.00  0.00    +0.176 C 
BRANCH  25  28
ATOM     26  O   UNL     1      35.667 -21.623 -19.716  0.00  0.00    -0.273 OA
ATOM     27  N   UNL     1      36.597 -19.472 -19.889  0.00  0.00    -0.283 N 
ATOM     28  C   UNL     1      36.399 -20.724 -19.313  0.00  0.00    +0.246 C 
ATOM     29  H   UNL     1      37.228 -18.876 -19.425  0.00  0.00    +0.155 HD
BRANCH  27  30
ATOM     30  C   UNL     1      35.998 -18.958 -21.063  0.00  0.00    +0.050 C 
ATOM     31  C   UNL     1      35.368 -19.820 -21.959  0.00  0.00    +0.016 C 
ATOM     32  C   UNL     1      36.038 -17.587 -21.324  0.00  0.00    +0.016 C 
ATOM     33  C   UNL     1      34.817 -17.943 -23.377  0.00  0.00    +0.143 C 
ATOM     34  C   UNL     1      34.777 -19.313 -23.116  0.00  0.00    +0.025 C 
ATOM     35  C   UNL     1      35.447 -17.080 -22.480  0.00  0.00    +0.025 C 
BRANCH  33  38
ATOM     36  O   UNL     1      34.660 -16.363 -25.050  0.00  0.00    -0.126 OA
ATOM     37  O   UNL     1      33.255 -18.050 -25.072  0.00  0.00    -0.126 OA
ATOM     38  N   UNL     1      34.215 -17.427 -24.556  0.00  0.00    +0.058 N 
ENDBRANCH  33  38
ENDBRANCH  27  30
ENDBRANCH  25  28
ENDBRANCH  22  25
ENDBRANCH   1  23
TORSDOF 11
ENDMDL
MODEL 8
REMARK VINA RESULT:      -9.8      3.024      6.570
REMARK  Name = 46937074
REMARK  11 active torsions:
REMARK  status: ('A' for Active; 'I' for Inactive)
REMARK    1  A    between atoms: C_1  and  N_4
REMARK    2  A    between atoms: C_1  and  C_23
REMARK    3  A    between atoms: C_5  and  C_7
REMARK    4  A    between atoms: C_7  and  C_10
REMARK    5  A    between atoms: C_7  and  C_14
REMARK    6  A    between atoms: N_9  and  O_12
REMARK    7  A    between atoms: C_14  and  C_15
REMARK    8  A    between atoms: N_22  and  C_25
REMARK    9  A    between atoms: C_25  and  C_28
REMARK   10  A    between atoms: N_27  and  C_30
REMARK   11  A    between atoms: C_33  and  N_38
REMARK                            x       y       z     vdW  Elec       q    Type
REMARK                         _______ _______ _______ _____ _____    ______ ____
ROOT
ATOM      1  C   UNL     1      31.306 -25.313 -13.517  0.00  0.00    +0.149 C 
ATOM      2  C   UNL     1      30.576 -24.628 -12.373  0.00  0.00    +0.031 C 
ENDROOT
BRANCH   1   4
ATOM      3  O   UNL     1      32.708 -22.937 -12.649  0.00  0.00    -0.275 OA
ATOM      4  N   UNL     1      32.736 -25.132 -13.411  0.00  0.00    -0.298 N 
ATOM      5  C   UNL     1      33.321 -23.950 -12.983  0.00  0.00    +0.231 C 
ATOM      6  H   UNL     1      33.322 -25.884 -13.655  0.00  0.00    +0.150 HD
BRANCH   5   7
ATOM      7  C   UNL     1      34.847 -24.030 -12.954  0.00  0.00    +0.159 C 
BRANCH   7  10
ATOM      8  O   UNL     1      34.932 -25.170 -10.814  0.00  0.00    -0.273 OA
ATOM      9  N   UNL     1      36.324 -23.362 -11.167  0.00  0.00    -0.197 N 
ATOM     10  C   UNL     1      35.364 -24.273 -11.536  0.00  0.00    +0.253 C 
ATOM     11  H   UNL     1      36.641 -22.659 -11.778  0.00  0.00    +0.182 HD
BRANCH   9  12
ATOM     12  O   UNL     1      36.822 -23.496  -9.864  0.00  0.00    -0.295 OA
ATOM     13  H   UNL     1      37.398 -22.743  -9.659  0.00  0.00    +0.241 HD
ENDBRANCH   9  12
ENDBRANCH   7  10
BRANCH   7  14
ATOM     14  C   UNL     1      35.304 -25.139 -13.921  0.00  0.00    +0.045 C 
BRANCH  14  15
ATOM     15  C   UNL     1      36.801 -25.158 -14.130  0.00  0.00    -0.021 C 
ATOM     16  C   UNL     1      37.439 -24.057 -14.700  0.00  0.00    -0.004 C 
ATOM     17  C   UNL     1      37.544 -26.276 -13.752  0.00  0.00    -0.004 C 
ATOM     18  C   UNL     1      38.821 -24.074 -14.892  0.00  0.00    -0.000 C 
ATOM     19  C   UNL     1      38.925 -26.294 -13.945  0.00  0.00    -0.000 C 
ATOM     20  C   UNL     1      39.564 -25.192 -14.515  0.00  0.00    -0.000 C 
ENDBRANCH  14  15
ENDBRANCH   7  14
ENDBRANCH   5   7
ENDBRANCH   1   4
BRANCH   1  23
ATOM     21  O   UNL     1      29.749 -24.968 -15.342  0.00  0.00    -0.273 OA
ATOM     22  N   UNL     1      31.861 -24.017 -15.479  0.00  0.00    -0.295 N 
ATOM     23  C   UNL     1      30.859 -24.752 -14.861  0.00  0.00    +0.241 C 
ATOM     24  H   UNL     1      32.719 -23.900 -15.009  0.00  0.00    +0.150 HD
BRANCH  22  25
ATOM     25  C   UNL     1      31.697 -23.417 -16.782  0.00  0.00    +0.176 C 
BRANCH  25  28
ATOM     26  O   UNL     1      34.016 -22.809 -16.560  0.00  0.00    -0.273 OA
ATOM     27  N   UNL     1      32.788 -22.059 -18.417  0.00  0.00    -0.283 N 
ATOM     28  C   UNL     1      32.983 -22.737 -17.217  0.00  0.00    +0.246 C 
ATOM     29  H   UNL     1      31.885 -22.109 -18.804  0.00  0.00    +0.155 HD
BRANCH  27  30
ATOM     30  C   UNL     1      33.739 -21.305 -19.146  0.00  0.00    +0.050 C 
ATOM     31  C   UNL     1      35.101 -21.560 -18.987  0.00  0.00    +0.016 C 
ATOM     32  C   UNL     1      33.314 -20.306 -20.022  0.00  0.00    +0.016 C 
ATOM     33  C   UNL     1      35.613 -19.818 -20.581  0.00  0.00    +0.143 C 
ATOM     34  C   UNL     1      36.038 -20.817 -19.705  0.00  0.00    +0.025 C 
ATOM     35  C   UNL     1      34.250 -19.563 -20.740  0.00  0.00    +0.025 C 
BRANCH  33  38
ATOM     36  O   UNL     1      36.265 -18.644 -22.456  0.00  0.00    -0.126 OA
ATOM     37  O   UNL     1      37.686 -18.829 -20.793  0.00  0.00    -0.126 OA
ATOM     38  N   UNL     1      36.567 -19.061 -21.312  0.00  0.00    +0.058 N 
ENDBRANCH  33  38
ENDBRANCH  27  30
ENDBRANCH  25  28
ENDBRANCH  22  25
ENDBRANCH   1  23
TORSDOF 11
ENDMDL
MODEL 9
REMARK VINA RESULT:      -9.6      4.035      9.214
REMARK  Name = 46937074
REMARK  11 active torsions:
REMARK  status: ('A' for Active; 'I' for Inactive)
REMARK    1  A    between atoms: C_1  and  N_4
REMARK    2  A    between atoms: C_1  and  C_23
REMARK    3  A    between atoms: C_5  and  C_7
REMARK    4  A    between atoms: C_7  and  C_10
REMARK    5  A    between atoms: C_7  and  C_14
REMARK    6  A    between atoms: N_9  and  O_12
REMARK    7  A    between atoms: C_14  and  C_15
REMARK    8  A    between atoms: N_22  and  C_25
REMARK    9  A    between atoms: C_25  and  C_28
REMARK   10  A    between atoms: N_27  and  C_30
REMARK   11  A    between atoms: C_33  and  N_38
REMARK                            x       y       z     vdW  Elec       q    Type
REMARK                         _______ _______ _______ _____ _____    ______ ____
ROOT
ATOM      1  C   UNL     1      36.001 -23.075 -15.510  0.00  0.00    +0.149 C 
ATOM      2  C   UNL     1      35.709 -21.850 -14.658  0.00  0.00    +0.031 C 
ENDROOT
BRANCH   1   4
ATOM      3  O   UNL     1      36.840 -21.368 -17.688  0.00  0.00    -0.275 OA
ATOM      4  N   UNL     1      35.393 -22.963 -16.816  0.00  0.00    -0.298 N 
ATOM      5  C   UNL     1      35.868 -22.112 -17.803  0.00  0.00    +0.231 C 
ATOM      6  H   UNL     1      34.605 -23.518 -17.015  0.00  0.00    +0.150 HD
BRANCH   5   7
ATOM      7  C   UNL     1      35.049 -22.196 -19.091  0.00  0.00    +0.159 C 
BRANCH   7  10
ATOM      8  O   UNL     1      33.057 -23.345 -18.320  0.00  0.00    -0.273 OA
ATOM      9  N   UNL     1      34.420 -24.395 -19.858  0.00  0.00    -0.197 N 
ATOM     10  C   UNL     1      34.052 -23.354 -19.041  0.00  0.00    +0.253 C 
ATOM     11  H   UNL     1      35.227 -24.360 -20.420  0.00  0.00    +0.182 HD
BRANCH   9  12
ATOM     12  O   UNL     1      33.575 -25.512 -19.839  0.00  0.00    -0.295 OA
ATOM     13  H   UNL     1      32.650 -25.219 -19.871  0.00  0.00    +0.241 HD
ENDBRANCH   9  12
ENDBRANCH   7  10
BRANCH   7  14
ATOM     14  C   UNL     1      34.339 -20.847 -19.317  0.00  0.00    +0.045 C 
BRANCH  14  15
ATOM     15  C   UNL     1      34.956 -20.037 -20.433  0.00  0.00    -0.021 C 
ATOM     16  C   UNL     1      36.212 -19.457 -20.261  0.00  0.00    -0.004 C 
ATOM     17  C   UNL     1      34.270 -19.870 -21.636  0.00  0.00    -0.004 C 
ATOM     18  C   UNL     1      36.783 -18.709 -21.292  0.00  0.00    -0.000 C 
ATOM     19  C   UNL     1      34.839 -19.122 -22.666  0.00  0.00    -0.000 C 
ATOM     20  C   UNL     1      36.096 -18.541 -22.494  0.00  0.00    -0.000 C 
ENDBRANCH  14  15
ENDBRANCH   7  14
ENDBRANCH   5   7
ENDBRANCH   1   4
BRANCH   1  23
ATOM     21  O   UNL     1      36.006 -25.437 -14.964  0.00  0.00    -0.273 OA
ATOM     22  N   UNL     1      34.290 -24.103 -14.150  0.00  0.00    -0.295 N 
ATOM     23  C   UNL     1      35.465 -24.339 -14.849  0.00  0.00    +0.241 C 
ATOM     24  H   UNL     1      33.936 -23.185 -14.116  0.00  0.00    +0.150 HD
BRANCH  22  25
ATOM     25  C   UNL     1      33.564 -25.151 -13.471  0.00  0.00    +0.176 C 
BRANCH  25  28
ATOM     26  O   UNL     1      31.350 -25.163 -12.525  0.00  0.00    -0.273 OA
ATOM     27  N   UNL     1      31.712 -24.180 -14.628  0.00  0.00    -0.283 N 
ATOM     28  C   UNL     1      32.077 -24.843 -13.460  0.00  0.00    +0.246 C 
ATOM     29  H   UNL     1      32.434 -24.007 -15.274  0.00  0.00    +0.155 HD
BRANCH  27  30
ATOM     30  C   UNL     1      30.423 -23.724 -14.995  0.00  0.00    +0.050 C 
ATOM     31  C   UNL     1      29.647 -24.470 -15.881  0.00  0.00    +0.016 C 
ATOM     32  C   UNL     1      29.930 -22.529 -14.469  0.00  0.00    +0.016 C 
ATOM     33  C   UNL     1      27.883 -22.826 -15.716  0.00  0.00    +0.143 C 
ATOM     34  C   UNL     1      28.376 -24.020 -16.242  0.00  0.00    +0.025 C 
ATOM     35  C   UNL     1      28.660 -22.080 -14.830  0.00  0.00    +0.025 C 
BRANCH  33  38
ATOM     36  O   UNL     1      25.703 -22.275 -15.201  0.00  0.00    -0.126 OA
ATOM     37  O   UNL     1      26.369 -22.069 -17.283  0.00  0.00    -0.126 OA
ATOM     38  N   UNL     1      26.590 -22.369 -16.084  0.00  0.00    +0.058 N 
ENDBRANCH  33  38
ENDBRANCH  27  30
ENDBRANCH  25  28
ENDBRANCH  22  25
ENDBRANCH   1  23
TORSDOF 11
ENDMDL
