MODEL 1
REMARK VINA RESULT:     -11.0      0.000      0.000
REMARK  Name = 1633
REMARK  3 active torsions:
REMARK  status: ('A' for Active; 'I' for Inactive)
REMARK    1  A    between atoms: C_1  and  N_8
REMARK    2  A    between atoms: C_2  and  C_15
REMARK    3  A    between atoms: C_15  and  C_18
REMARK                            x       y       z     vdW  Elec       q    Type
REMARK                         _______ _______ _______ _____ _____    ______ ____
ROOT
ATOM      1  C   UNL     1      34.549 -20.269 -20.344  0.00  0.00    +0.048 C 
ATOM      2  C   UNL     1      34.248 -22.296 -18.475  0.00  0.00    -0.021 C 
ATOM      3  C   UNL     1      35.670 -20.943 -19.859  0.00  0.00    +0.014 C 
ATOM      4  C   UNL     1      33.276 -20.615 -19.889  0.00  0.00    +0.014 C 
ATOM      5  C   UNL     1      35.518 -21.962 -18.919  0.00  0.00    -0.003 C 
ATOM      6  C   UNL     1      33.125 -21.635 -18.949  0.00  0.00    -0.003 C 
ENDROOT
BRANCH   1   8
ATOM      7  O   UNL     1      34.749 -16.123 -25.313  0.00  0.00    -0.265 OA
ATOM      8  N   UNL     1      34.699 -19.251 -21.283  0.00  0.00    -0.304 N 
ATOM      9  N   UNL     1      35.012 -17.147 -23.225  0.00  0.00    -0.269 N 
ATOM     10  C   UNL     1      34.806 -19.559 -22.714  0.00  0.00    +0.112 C 
ATOM     11  C   UNL     1      34.756 -17.846 -20.866  0.00  0.00    +0.112 C 
ATOM     12  C   UNL     1      34.318 -18.383 -23.558  0.00  0.00    +0.115 C 
ATOM     13  C   UNL     1      35.543 -17.012 -21.876  0.00  0.00    +0.115 C 
ATOM     14  C   UNL     1      35.154 -16.132 -24.156  0.00  0.00    +0.303 C 
ENDBRANCH   1   8
BRANCH   2  15
ATOM     15  C   UNL     1      34.084 -23.399 -17.460  0.00  0.00    +0.040 C 
BRANCH  15  18
ATOM     16  O   UNL     1      31.860 -23.558 -15.379  0.00  0.00    -0.274 OA
ATOM     17  N   UNL     1      33.730 -24.149 -14.084  0.00  0.00    -0.284 N 
ATOM     18  C   UNL     1      34.131 -22.871 -16.037  0.00  0.00    +0.105 C 
ATOM     19  C   UNL     1      35.402 -23.211 -15.313  0.00  0.00    -0.000 C 
ATOM     20  C   UNL     1      33.063 -23.552 -15.161  0.00  0.00    +0.230 C 
ATOM     21  C   UNL     1      35.103 -23.951 -14.171  0.00  0.00    +0.047 C 
ATOM     22  C   UNL     1      36.712 -22.886 -15.612  0.00  0.00    -0.003 C 
ATOM     23  C   UNL     1      36.073 -24.399 -13.298  0.00  0.00    +0.014 C 
ATOM     24  C   UNL     1      37.716 -23.328 -14.743  0.00  0.00    -0.000 C 
ATOM     25  C   UNL     1      37.398 -24.079 -13.596  0.00  0.00    +0.001 C 
ATOM     26  H   UNL     1      33.284 -24.643 -13.360  0.00  0.00    +0.155 HD
ENDBRANCH  15  18
ENDBRANCH   2  15
TORSDOF 3
ENDMDL
MODEL 2
REMARK VINA RESULT:     -10.5      2.172      9.085
REMARK  Name = 1633
REMARK  3 active torsions:
REMARK  status: ('A' for Active; 'I' for Inactive)
REMARK    1  A    between atoms: C_1  and  N_8
REMARK    2  A    between atoms: C_2  and  C_15
REMARK    3  A    between atoms: C_15  and  C_18
REMARK                            x       y       z     vdW  Elec       q    Type
REMARK                         _______ _______ _______ _____ _____    ______ ____
ROOT
ATOM      1  C   UNL     1      35.387 -21.798 -17.908  0.00  0.00    +0.048 C 
ATOM      2  C   UNL     1      34.457 -20.541 -20.199  0.00  0.00    -0.021 C 
ATOM      3  C   UNL     1      36.262 -21.052 -18.698  0.00  0.00    +0.014 C 
ATOM      4  C   UNL     1      34.045 -21.912 -18.270  0.00  0.00    +0.014 C 
ATOM      5  C   UNL     1      35.794 -20.420 -19.850  0.00  0.00    -0.003 C 
ATOM      6  C   UNL     1      33.577 -21.280 -19.423  0.00  0.00    -0.003 C 
ENDROOT
BRANCH   1   8
ATOM      7  O   UNL     1      38.234 -24.032 -12.539  0.00  0.00    -0.265 OA
ATOM      8  N   UNL     1      35.853 -22.430 -16.757  0.00  0.00    -0.304 N 
ATOM      9  N   UNL     1      36.818 -23.738 -14.379  0.00  0.00    -0.269 N 
ATOM     10  C   UNL     1      37.280 -22.409 -16.415  0.00  0.00    +0.112 C 
ATOM     11  C   UNL     1      34.931 -23.133 -15.860  0.00  0.00    +0.112 C 
ATOM     12  C   UNL     1      37.476 -22.550 -14.907  0.00  0.00    +0.115 C 
ATOM     13  C   UNL     1      35.655 -24.241 -15.097  0.00  0.00    +0.115 C 
ATOM     14  C   UNL     1      37.277 -24.361 -13.231  0.00  0.00    +0.303 C 
ENDBRANCH   1   8
BRANCH   2  15
ATOM     15  C   UNL     1      33.952 -19.857 -21.443  0.00  0.00    +0.040 C 
BRANCH  15  18
ATOM     16  O   UNL     1      34.933 -20.277 -24.301  0.00  0.00    -0.274 OA
ATOM     17  N   UNL     1      34.815 -17.933 -24.207  0.00  0.00    -0.284 N 
ATOM     18  C   UNL     1      35.051 -19.083 -22.150  0.00  0.00    +0.105 C 
ATOM     19  C   UNL     1      34.956 -17.596 -21.960  0.00  0.00    -0.000 C 
ATOM     20  C   UNL     1      34.928 -19.224 -23.680  0.00  0.00    +0.230 C 
ATOM     21  C   UNL     1      34.830 -16.975 -23.200  0.00  0.00    +0.047 C 
ATOM     22  C   UNL     1      34.996 -16.843 -20.801  0.00  0.00    -0.003 C 
ATOM     23  C   UNL     1      34.732 -15.605 -23.341  0.00  0.00    +0.014 C 
ATOM     24  C   UNL     1      34.898 -15.452 -20.915  0.00  0.00    -0.000 C 
ATOM     25  C   UNL     1      34.767 -14.839 -22.175  0.00  0.00    +0.001 C 
ATOM     26  H   UNL     1      34.736 -17.729 -25.167  0.00  0.00    +0.155 HD
ENDBRANCH  15  18
ENDBRANCH   2  15
TORSDOF 3
ENDMDL
MODEL 3
REMARK VINA RESULT:     -10.0      7.194     13.513
REMARK  Name = 1633
REMARK  3 active torsions:
REMARK  status: ('A' for Active; 'I' for Inactive)
REMARK    1  A    between atoms: C_1  and  N_8
REMARK    2  A    between atoms: C_2  and  C_15
REMARK    3  A    between atoms: C_15  and  C_18
REMARK                            x       y       z     vdW  Elec       q    Type
REMARK                         _______ _______ _______ _____ _____    ______ ____
ROOT
ATOM      1  C   UNL     1      32.961 -12.317 -22.460  0.00  0.00    +0.048 C 
ATOM      2  C   UNL     1      31.629  -9.909 -22.805  0.00  0.00    -0.021 C 
ATOM      3  C   UNL     1      33.395 -11.412 -23.429  0.00  0.00    +0.014 C 
ATOM      4  C   UNL     1      31.857 -12.010 -21.664  0.00  0.00    +0.014 C 
ATOM      5  C   UNL     1      32.725 -10.201 -23.603  0.00  0.00    -0.003 C 
ATOM      6  C   UNL     1      31.187 -10.799 -21.838  0.00  0.00    -0.003 C 
ENDROOT
BRANCH   1   8
ATOM      7  O   UNL     1      35.851 -17.838 -20.701  0.00  0.00    -0.265 OA
ATOM      8  N   UNL     1      33.630 -13.527 -22.286  0.00  0.00    -0.304 N 
ATOM      9  N   UNL     1      35.015 -16.026 -21.925  0.00  0.00    -0.269 N 
ATOM     10  C   UNL     1      34.354 -13.811 -21.042  0.00  0.00    +0.112 C 
ATOM     11  C   UNL     1      33.629 -14.545 -23.341  0.00  0.00    +0.112 C 
ATOM     12  C   UNL     1      34.432 -15.316 -20.794  0.00  0.00    +0.115 C 
ATOM     13  C   UNL     1      34.872 -15.427 -23.244  0.00  0.00    +0.115 C 
ATOM     14  C   UNL     1      35.672 -17.232 -21.752  0.00  0.00    +0.303 C 
ENDBRANCH   1   8
BRANCH   2  15
ATOM     15  C   UNL     1      30.906  -8.599 -22.992  0.00  0.00    +0.040 C 
BRANCH  15  18
ATOM     16  O   UNL     1      31.692  -8.218 -20.070  0.00  0.00    -0.274 OA
ATOM     17  N   UNL     1      33.685  -7.609 -21.154  0.00  0.00    -0.284 N 
ATOM     18  C   UNL     1      31.682  -7.434 -22.405  0.00  0.00    +0.105 C 
ATOM     19  C   UNL     1      32.888  -7.048 -23.212  0.00  0.00    -0.000 C 
ATOM     20  C   UNL     1      32.305  -7.815 -21.048  0.00  0.00    +0.230 C 
ATOM     21  C   UNL     1      34.031  -7.160 -22.423  0.00  0.00    +0.047 C 
ATOM     22  C   UNL     1      32.982  -6.615 -24.522  0.00  0.00    -0.003 C 
ATOM     23  C   UNL     1      35.293  -6.861 -22.894  0.00  0.00    +0.014 C 
ATOM     24  C   UNL     1      34.250  -6.305 -25.024  0.00  0.00    -0.000 C 
ATOM     25  C   UNL     1      35.396  -6.427 -24.217  0.00  0.00    +0.001 C 
ATOM     26  H   UNL     1      34.328  -7.763 -20.425  0.00  0.00    +0.155 HD
ENDBRANCH  15  18
ENDBRANCH   2  15
TORSDOF 3
ENDMDL
MODEL 4
REMARK VINA RESULT:      -9.7      6.896     10.993
REMARK  Name = 1633
REMARK  3 active torsions:
REMARK  status: ('A' for Active; 'I' for Inactive)
REMARK    1  A    between atoms: C_1  and  N_8
REMARK    2  A    between atoms: C_2  and  C_15
REMARK    3  A    between atoms: C_15  and  C_18
REMARK                            x       y       z     vdW  Elec       q    Type
REMARK                         _______ _______ _______ _____ _____    ______ ____
ROOT
ATOM      1  C   UNL     1      32.528  -9.982 -22.846  0.00  0.00    +0.048 C 
ATOM      2  C   UNL     1      32.934 -12.726 -22.904  0.00  0.00    -0.021 C 
ATOM      3  C   UNL     1      33.617 -10.512 -23.538  0.00  0.00    +0.014 C 
ATOM      4  C   UNL     1      31.643 -10.833 -22.182  0.00  0.00    +0.014 C 
ATOM      5  C   UNL     1      33.821 -11.891 -23.568  0.00  0.00    -0.003 C 
ATOM      6  C   UNL     1      31.848 -12.213 -22.211  0.00  0.00    -0.003 C 
ENDROOT
BRANCH   1   8
ATOM      7  O   UNL     1      30.633  -3.798 -22.551  0.00  0.00    -0.265 OA
ATOM      8  N   UNL     1      32.322  -8.605 -22.816  0.00  0.00    -0.304 N 
ATOM      9  N   UNL     1      31.898  -5.757 -22.758  0.00  0.00    -0.269 N 
ATOM     10  C   UNL     1      31.055  -8.025 -23.275  0.00  0.00    +0.112 C 
ATOM     11  C   UNL     1      33.368  -7.700 -22.328  0.00  0.00    +0.112 C 
ATOM     12  C   UNL     1      30.791  -6.688 -22.585  0.00  0.00    +0.115 C 
ATOM     13  C   UNL     1      33.226  -6.317 -22.961  0.00  0.00    +0.115 C 
ATOM     14  C   UNL     1      31.694  -4.388 -22.720  0.00  0.00    +0.303 C 
ENDBRANCH   1   8
BRANCH   2  15
ATOM     15  C   UNL     1      33.155 -14.216 -22.937  0.00  0.00    +0.040 C 
BRANCH  15  18
ATOM     16  O   UNL     1      34.275 -13.432 -20.210  0.00  0.00    -0.274 OA
ATOM     17  N   UNL     1      34.861 -15.705 -20.299  0.00  0.00    -0.284 N 
ATOM     18  C   UNL     1      34.507 -14.602 -22.365  0.00  0.00    +0.105 C 
ATOM     19  C   UNL     1      34.845 -16.053 -22.549  0.00  0.00    -0.000 C 
ATOM     20  C   UNL     1      34.519 -14.456 -20.831  0.00  0.00    +0.230 C 
ATOM     21  C   UNL     1      35.052 -16.645 -21.305  0.00  0.00    +0.047 C 
ATOM     22  C   UNL     1      34.981 -16.796 -23.708  0.00  0.00    -0.003 C 
ATOM     23  C   UNL     1      35.389 -17.976 -21.159  0.00  0.00    +0.014 C 
ATOM     24  C   UNL     1      35.322 -18.148 -23.588  0.00  0.00    -0.000 C 
ATOM     25  C   UNL     1      35.524 -18.732 -22.325  0.00  0.00    +0.001 C 
ATOM     26  H   UNL     1      34.954 -15.893 -19.338  0.00  0.00    +0.155 HD
ENDBRANCH  15  18
ENDBRANCH   2  15
TORSDOF 3
ENDMDL
MODEL 5
REMARK VINA RESULT:      -9.6      8.008     12.050
REMARK  Name = 1633
REMARK  3 active torsions:
REMARK  status: ('A' for Active; 'I' for Inactive)
REMARK    1  A    between atoms: C_1  and  N_8
REMARK    2  A    between atoms: C_2  and  C_15
REMARK    3  A    between atoms: C_15  and  C_18
REMARK                            x       y       z     vdW  Elec       q    Type
REMARK                         _______ _______ _______ _____ _____    ______ ____
ROOT
ATOM      1  C   UNL     1      31.837  -9.188 -21.575  0.00  0.00    +0.048 C 
ATOM      2  C   UNL     1      32.273 -11.926 -21.496  0.00  0.00    -0.021 C 
ATOM      3  C   UNL     1      32.151  -9.878 -22.745  0.00  0.00    +0.014 C 
ATOM      4  C   UNL     1      31.743  -9.874 -20.364  0.00  0.00    +0.014 C 
ATOM      5  C   UNL     1      32.370 -11.255 -22.705  0.00  0.00    -0.003 C 
ATOM      6  C   UNL     1      31.962 -11.252 -20.324  0.00  0.00    -0.003 C 
ENDROOT
BRANCH   1   8
ATOM      7  O   UNL     1      30.071  -3.007 -22.351  0.00  0.00    -0.265 OA
ATOM      8  N   UNL     1      31.618  -7.812 -21.613  0.00  0.00    -0.304 N 
ATOM      9  N   UNL     1      31.166  -4.969 -21.695  0.00  0.00    -0.269 N 
ATOM     10  C   UNL     1      31.066  -7.174 -22.813  0.00  0.00    +0.112 C 
ATOM     11  C   UNL     1      31.935  -6.968 -20.457  0.00  0.00    +0.112 C 
ATOM     12  C   UNL     1      30.325  -5.888 -22.450  0.00  0.00    +0.115 C 
ATOM     13  C   UNL     1      32.244  -5.538 -20.898  0.00  0.00    +0.115 C 
ATOM     14  C   UNL     1      30.943  -3.603 -21.728  0.00  0.00    +0.303 C 
ENDBRANCH   1   8
BRANCH   2  15
ATOM     15  C   UNL     1      32.509 -13.414 -21.453  0.00  0.00    +0.040 C 
BRANCH  15  18
ATOM     16  O   UNL     1      34.875 -14.230 -19.710  0.00  0.00    -0.274 OA
ATOM     17  N   UNL     1      35.031 -15.807 -21.445  0.00  0.00    -0.284 N 
ATOM     18  C   UNL     1      33.904 -13.780 -21.928  0.00  0.00    +0.105 C 
ATOM     19  C   UNL     1      33.911 -14.717 -23.102  0.00  0.00    -0.000 C 
ATOM     20  C   UNL     1      34.655 -14.594 -20.856  0.00  0.00    +0.230 C 
ATOM     21  C   UNL     1      34.595 -15.882 -22.763  0.00  0.00    +0.047 C 
ATOM     22  C   UNL     1      33.383 -14.560 -24.370  0.00  0.00    -0.003 C 
ATOM     23  C   UNL     1      34.773 -16.926 -23.648  0.00  0.00    +0.014 C 
ATOM     24  C   UNL     1      33.549 -15.603 -25.287  0.00  0.00    -0.000 C 
ATOM     25  C   UNL     1      34.238 -16.776 -24.929  0.00  0.00    +0.001 C 
ATOM     26  H   UNL     1      35.538 -16.514 -20.986  0.00  0.00    +0.155 HD
ENDBRANCH  15  18
ENDBRANCH   2  15
TORSDOF 3
ENDMDL
MODEL 6
REMARK VINA RESULT:      -9.6      1.393      2.069
REMARK  Name = 1633
REMARK  3 active torsions:
REMARK  status: ('A' for Active; 'I' for Inactive)
REMARK    1  A    between atoms: C_1  and  N_8
REMARK    2  A    between atoms: C_2  and  C_15
REMARK    3  A    between atoms: C_15  and  C_18
REMARK                            x       y       z     vdW  Elec       q    Type
REMARK                         _______ _______ _______ _____ _____    ______ ____
ROOT
ATOM      1  C   UNL     1      35.202 -18.895 -21.252  0.00  0.00    +0.048 C 
ATOM      2  C   UNL     1      35.695 -20.994 -19.507  0.00  0.00    -0.021 C 
ATOM      3  C   UNL     1      34.159 -19.730 -20.853  0.00  0.00    +0.014 C 
ATOM      4  C   UNL     1      36.494 -19.116 -20.774  0.00  0.00    +0.014 C 
ATOM      5  C   UNL     1      34.407 -20.785 -19.975  0.00  0.00    -0.003 C 
ATOM      6  C   UNL     1      36.742 -20.173 -19.896  0.00  0.00    -0.003 C 
ENDROOT
BRANCH   1   8
ATOM      7  O   UNL     1      33.644 -14.668 -25.902  0.00  0.00    -0.265 OA
ATOM      8  N   UNL     1      34.956 -17.840 -22.129  0.00  0.00    -0.304 N 
ATOM      9  N   UNL     1      34.450 -15.661 -23.941  0.00  0.00    -0.269 N 
ATOM     10  C   UNL     1      34.934 -18.060 -23.579  0.00  0.00    +0.112 C 
ATOM     11  C   UNL     1      34.715 -16.485 -21.624  0.00  0.00    +0.112 C 
ATOM     12  C   UNL     1      34.050 -17.023 -24.269  0.00  0.00    +0.115 C 
ATOM     13  C   UNL     1      35.114 -15.440 -22.665  0.00  0.00    +0.115 C 
ATOM     14  C   UNL     1      34.197 -14.612 -24.810  0.00  0.00    +0.303 C 
ENDBRANCH   1   8
BRANCH   2  15
ATOM     15  C   UNL     1      35.962 -22.134 -18.558  0.00  0.00    +0.040 C 
BRANCH  15  18
ATOM     16  O   UNL     1      32.988 -22.697 -18.188  0.00  0.00    -0.274 OA
ATOM     17  N   UNL     1      33.879 -23.718 -16.269  0.00  0.00    -0.284 N 
ATOM     18  C   UNL     1      35.165 -22.001 -17.273  0.00  0.00    +0.105 C 
ATOM     19  C   UNL     1      35.850 -22.595 -16.076  0.00  0.00    -0.000 C 
ATOM     20  C   UNL     1      33.862 -22.821 -17.344  0.00  0.00    +0.230 C 
ATOM     21  C   UNL     1      35.045 -23.588 -15.524  0.00  0.00    +0.047 C 
ATOM     22  C   UNL     1      37.069 -22.284 -15.502  0.00  0.00    -0.003 C 
ATOM     23  C   UNL     1      35.411 -24.307 -14.404  0.00  0.00    +0.014 C 
ATOM     24  C   UNL     1      37.464 -22.997 -14.366  0.00  0.00    -0.000 C 
ATOM     25  C   UNL     1      36.642 -24.001 -13.822  0.00  0.00    +0.001 C 
ATOM     26  H   UNL     1      33.159 -24.357 -16.068  0.00  0.00    +0.155 HD
ENDBRANCH  15  18
ENDBRANCH   2  15
TORSDOF 3
ENDMDL
MODEL 7
REMARK VINA RESULT:      -9.5      1.979      9.042
REMARK  Name = 1633
REMARK  3 active torsions:
REMARK  status: ('A' for Active; 'I' for Inactive)
REMARK    1  A    between atoms: C_1  and  N_8
REMARK    2  A    between atoms: C_2  and  C_15
REMARK    3  A    between atoms: C_15  and  C_18
REMARK                            x       y       z     vdW  Elec       q    Type
REMARK                         _______ _______ _______ _____ _____    ______ ____
ROOT
ATOM      1  C   UNL     1      34.994 -21.117 -19.106  0.00  0.00    +0.048 C 
ATOM      2  C   UNL     1      34.412 -19.673 -21.402  0.00  0.00    -0.021 C 
ATOM      3  C   UNL     1      36.028 -20.600 -19.887  0.00  0.00    +0.014 C 
ATOM      4  C   UNL     1      33.666 -20.908 -19.481  0.00  0.00    +0.014 C 
ATOM      5  C   UNL     1      35.736 -19.874 -21.040  0.00  0.00    -0.003 C 
ATOM      6  C   UNL     1      33.374 -20.182 -20.637  0.00  0.00    -0.003 C 
ENDROOT
BRANCH   1   8
ATOM      7  O   UNL     1      35.609 -25.074 -14.018  0.00  0.00    -0.265 OA
ATOM      8  N   UNL     1      35.285 -21.843 -17.953  0.00  0.00    -0.304 N 
ATOM      9  N   UNL     1      35.884 -23.341 -15.568  0.00  0.00    -0.269 N 
ATOM     10  C   UNL     1      34.225 -22.547 -17.222  0.00  0.00    +0.112 C 
ATOM     11  C   UNL     1      36.656 -21.919 -17.439  0.00  0.00    +0.112 C 
ATOM     12  C   UNL     1      34.797 -23.736 -16.453  0.00  0.00    +0.115 C 
ATOM     13  C   UNL     1      36.657 -22.161 -15.931  0.00  0.00    +0.115 C 
ATOM     14  C   UNL     1      36.178 -24.067 -14.425  0.00  0.00    +0.303 C 
ENDBRANCH   1   8
BRANCH   2  15
ATOM     15  C   UNL     1      34.096 -18.887 -22.649  0.00  0.00    +0.040 C 
BRANCH  15  18
ATOM     16  O   UNL     1      34.981 -17.749 -25.337  0.00  0.00    -0.274 OA
ATOM     17  N   UNL     1      34.663 -15.779 -24.098  0.00  0.00    -0.284 N 
ATOM     18  C   UNL     1      35.090 -17.762 -22.877  0.00  0.00    +0.105 C 
ATOM     19  C   UNL     1      34.874 -16.579 -21.977  0.00  0.00    -0.000 C 
ATOM     20  C   UNL     1      34.912 -17.144 -24.277  0.00  0.00    +0.230 C 
ATOM     21  C   UNL     1      34.639 -15.444 -22.749  0.00  0.00    +0.047 C 
ATOM     22  C   UNL     1      34.900 -16.494 -20.597  0.00  0.00    -0.003 C 
ATOM     23  C   UNL     1      34.415 -14.200 -22.195  0.00  0.00    +0.014 C 
ATOM     24  C   UNL     1      34.676 -15.244 -20.010  0.00  0.00    -0.000 C 
ATOM     25  C   UNL     1      34.435 -14.107 -20.803  0.00  0.00    +0.001 C 
ATOM     26  H   UNL     1      34.523 -15.138 -24.832  0.00  0.00    +0.155 HD
ENDBRANCH  15  18
ENDBRANCH   2  15
TORSDOF 3
ENDMDL
MODEL 8
REMARK VINA RESULT:      -9.5      7.492     13.876
REMARK  Name = 1633
REMARK  3 active torsions:
REMARK  status: ('A' for Active; 'I' for Inactive)
REMARK    1  A    between atoms: C_1  and  N_8
REMARK    2  A    between atoms: C_2  and  C_15
REMARK    3  A    between atoms: C_15  and  C_18
REMARK                            x       y       z     vdW  Elec       q    Type
REMARK                         _______ _______ _______ _____ _____    ______ ____
ROOT
ATOM      1  C   UNL     1      33.379 -13.032 -22.330  0.00  0.00    +0.048 C 
ATOM      2  C   UNL     1      32.068 -10.609 -22.647  0.00  0.00    -0.021 C 
ATOM      3  C   UNL     1      33.764 -12.158 -23.347  0.00  0.00    +0.014 C 
ATOM      4  C   UNL     1      32.334 -12.687 -21.472  0.00  0.00    +0.014 C 
ATOM      5  C   UNL     1      33.105 -10.940 -23.506  0.00  0.00    -0.003 C 
ATOM      6  C   UNL     1      31.674 -11.468 -21.632  0.00  0.00    -0.003 C 
ENDROOT
BRANCH   1   8
ATOM      7  O   UNL     1      36.170 -18.627 -20.646  0.00  0.00    -0.265 OA
ATOM      8  N   UNL     1      34.038 -14.250 -22.170  0.00  0.00    -0.304 N 
ATOM      9  N   UNL     1      35.401 -16.765 -21.838  0.00  0.00    -0.269 N 
ATOM     10  C   UNL     1      34.694 -14.586 -20.901  0.00  0.00    +0.112 C 
ATOM     11  C   UNL     1      34.093 -15.224 -23.264  0.00  0.00    +0.112 C 
ATOM     12  C   UNL     1      34.758 -16.101 -20.711  0.00  0.00    +0.115 C 
ATOM     13  C   UNL     1      35.329 -16.112 -23.137  0.00  0.00    +0.115 C 
ATOM     14  C   UNL     1      36.048 -17.979 -21.679  0.00  0.00    +0.303 C 
ENDBRANCH   1   8
BRANCH   2  15
ATOM     15  C   UNL     1      31.356  -9.291 -22.819  0.00  0.00    +0.040 C 
BRANCH  15  18
ATOM     16  O   UNL     1      31.785  -8.448 -25.719  0.00  0.00    -0.274 OA
ATOM     17  N   UNL     1      31.652  -6.356 -24.658  0.00  0.00    -0.284 N 
ATOM     18  C   UNL     1      32.289  -8.204 -23.321  0.00  0.00    +0.105 C 
ATOM     19  C   UNL     1      32.210  -6.932 -22.527  0.00  0.00    -0.000 C 
ATOM     20  C   UNL     1      31.882  -7.735 -24.731  0.00  0.00    +0.230 C 
ATOM     21  C   UNL     1      31.843  -5.882 -23.365  0.00  0.00    +0.047 C 
ATOM     22  C   UNL     1      32.457  -6.702 -21.186  0.00  0.00    -0.003 C 
ATOM     23  C   UNL     1      31.700  -4.584 -22.916  0.00  0.00    +0.014 C 
ATOM     24  C   UNL     1      32.319  -5.396 -20.704  0.00  0.00    -0.000 C 
ATOM     25  C   UNL     1      31.943  -4.346 -21.563  0.00  0.00    +0.001 C 
ATOM     26  H   UNL     1      31.390  -5.795 -25.423  0.00  0.00    +0.155 HD
ENDBRANCH  15  18
ENDBRANCH   2  15
TORSDOF 3
ENDMDL
MODEL 9
REMARK VINA RESULT:      -9.4      8.225     14.071
REMARK  Name = 1633
REMARK  3 active torsions:
REMARK  status: ('A' for Active; 'I' for Inactive)
REMARK    1  A    between atoms: C_1  and  N_8
REMARK    2  A    between atoms: C_2  and  C_15
REMARK    3  A    between atoms: C_15  and  C_18
REMARK                            x       y       z     vdW  Elec       q    Type
REMARK                         _______ _______ _______ _____ _____    ______ ____
ROOT
ATOM      1  C   UNL     1      32.769 -11.658 -22.948  0.00  0.00    +0.048 C 
ATOM      2  C   UNL     1      31.712  -9.123 -22.557  0.00  0.00    -0.021 C 
ATOM      3  C   UNL     1      32.897 -10.687 -23.942  0.00  0.00    +0.014 C 
ATOM      4  C   UNL     1      32.108 -11.354 -21.757  0.00  0.00    +0.014 C 
ATOM      5  C   UNL     1      32.366  -9.413 -23.745  0.00  0.00    -0.003 C 
ATOM      6  C   UNL     1      31.577 -10.078 -21.561  0.00  0.00    -0.003 C 
ENDROOT
BRANCH   1   8
ATOM      7  O   UNL     1      35.389 -17.578 -22.890  0.00  0.00    -0.265 OA
ATOM      8  N   UNL     1      33.299 -12.931 -23.143  0.00  0.00    -0.304 N 
ATOM      9  N   UNL     1      34.398 -15.562 -23.548  0.00  0.00    -0.269 N 
ATOM     10  C   UNL     1      34.384 -13.431 -22.291  0.00  0.00    +0.112 C 
ATOM     11  C   UNL     1      32.789 -13.803 -24.207  0.00  0.00    +0.112 C 
ATOM     12  C   UNL     1      34.359 -14.957 -22.223  0.00  0.00    +0.115 C 
ATOM     13  C   UNL     1      33.863 -14.790 -24.660  0.00  0.00    +0.115 C 
ATOM     14  C   UNL     1      34.919 -16.831 -23.740  0.00  0.00    +0.303 C 
ENDBRANCH   1   8
BRANCH   2  15
ATOM     15  C   UNL     1      31.139  -7.745 -22.344  0.00  0.00    +0.040 C 
BRANCH  15  18
ATOM     16  O   UNL     1      33.038  -7.706 -19.957  0.00  0.00    -0.274 OA
ATOM     17  N   UNL     1      34.514  -7.200 -21.713  0.00  0.00    -0.284 N 
ATOM     18  C   UNL     1      32.222  -6.719 -22.060  0.00  0.00    +0.105 C 
ATOM     19  C   UNL     1      33.059  -6.382 -23.261  0.00  0.00    -0.000 C 
ATOM     20  C   UNL     1      33.269  -7.279 -21.078  0.00  0.00    +0.230 C 
ATOM     21  C   UNL     1      34.394  -6.675 -22.994  0.00  0.00    +0.047 C 
ATOM     22  C   UNL     1      32.691  -5.845 -24.481  0.00  0.00    -0.003 C 
ATOM     23  C   UNL     1      35.402  -6.460 -23.913  0.00  0.00    +0.014 C 
ATOM     24  C   UNL     1      33.693  -5.617 -25.430  0.00  0.00    -0.000 C 
ATOM     25  C   UNL     1      35.037  -5.922 -25.148  0.00  0.00    +0.001 C 
ATOM     26  H   UNL     1      35.364  -7.481 -21.304  0.00  0.00    +0.155 HD
ENDBRANCH  15  18
ENDBRANCH   2  15
TORSDOF 3
ENDMDL
