MODEL 1
REMARK VINA RESULT:     -11.5      0.000      0.000
REMARK  Name = 9801640
REMARK  6 active torsions:
REMARK  status: ('A' for Active; 'I' for Inactive)
REMARK    1  A    between atoms: C_1  and  C_2
REMARK    2  A    between atoms: C_1  and  C_16
REMARK    3  A    between atoms: C_2  and  N_3
REMARK    4  A    between atoms: C_7  and  C_11
REMARK    5  A    between atoms: C_16  and  C_17
REMARK    6  A    between atoms: C_17  and  N_21
REMARK                            x       y       z     vdW  Elec       q    Type
REMARK                         _______ _______ _______ _____ _____    ______ ____
ROOT
ATOM      1  C   UNL     1      33.449 -15.529 -24.953  0.00  0.00    -0.021 C 
ENDROOT
BRANCH   1   2
ATOM      2  C   UNL     1      34.792 -15.962 -24.366  0.00  0.00    -0.077 C 
BRANCH   2   3
ATOM      3  N   UNL     1      34.589 -16.969 -23.327  0.00  0.00    +0.390 N 
ATOM      4  C   UNL     1      34.938 -18.308 -23.812  0.00  0.00    -0.072 C 
ATOM      5  C   UNL     1      35.363 -16.636 -22.120  0.00  0.00    -0.051 C 
ATOM      6  C   UNL     1      34.559 -19.360 -22.760  0.00  0.00    +0.005 C 
ATOM      7  C   UNL     1      35.033 -19.002 -21.369  0.00  0.00    -0.013 C 
ATOM      8  C   UNL     1      35.403 -17.737 -21.095  0.00  0.00    -0.052 C 
ATOM      9  H   UNL     1      33.599 -16.973 -23.082  0.00  0.00    -0.079 HD
BRANCH   7  11
ATOM     10  N   UNL     1      36.283 -20.346 -19.812  0.00  0.00    -0.244 NA
ATOM     11  C   UNL     1      35.069 -20.070 -20.341  0.00  0.00    +0.077 C 
ATOM     12  C   UNL     1      33.900 -20.722 -19.976  0.00  0.00    +0.019 C 
ATOM     13  C   UNL     1      33.983 -21.717 -19.008  0.00  0.00    +0.003 C 
ATOM     14  C   UNL     1      36.325 -21.321 -18.875  0.00  0.00    +0.099 C 
ATOM     15  C   UNL     1      35.215 -22.028 -18.442  0.00  0.00    +0.021 C 
ENDBRANCH   7  11
ENDBRANCH   2   3
ENDBRANCH   1   2
BRANCH   1  16
ATOM     16  C   UNL     1      33.095 -14.101 -24.524  0.00  0.00    +0.020 C 
BRANCH  16  17
ATOM     17  C   UNL     1      33.789 -13.687 -23.232  0.00  0.00    +0.099 C 
BRANCH  17  21
ATOM     18 CL   UNL     1      34.802 -11.190 -24.401  0.00  0.00    -0.062 Cl
ATOM     19  O   UNL     1      31.595  -9.957 -22.437  0.00  0.00    -0.448 OA
ATOM     20  O   UNL     1      32.063 -13.736 -21.071  0.00  0.00    -0.269 OA
ATOM     21  N   UNL     1      33.215 -12.463 -22.653  0.00  0.00    -0.244 N 
ATOM     22  C   UNL     1      32.435 -12.636 -21.488  0.00  0.00    +0.256 C 
ATOM     23  C   UNL     1      33.467 -11.246 -23.284  0.00  0.00    +0.151 C 
ATOM     24  C   UNL     1      32.104 -11.479 -20.622  0.00  0.00    +0.088 C 
ATOM     25  C   UNL     1      31.699 -10.239 -21.105  0.00  0.00    +0.150 C 
ATOM     26  C   UNL     1      32.739 -10.129 -23.165  0.00  0.00    +0.206 C 
ATOM     27  C   UNL     1      32.148 -11.683 -19.232  0.00  0.00    +0.008 C 
ATOM     28  C   UNL     1      31.318  -9.221 -20.223  0.00  0.00    +0.038 C 
ATOM     29  C   UNL     1      31.789 -10.661 -18.351  0.00  0.00    +0.000 C 
ATOM     30  C   UNL     1      31.369  -9.431 -18.848  0.00  0.00    +0.003 C 
ENDBRANCH  17  21
ENDBRANCH  16  17
ENDBRANCH   1  16
TORSDOF 6
ENDMDL
MODEL 2
REMARK VINA RESULT:     -11.2      1.601      2.769
REMARK  Name = 9801640
REMARK  6 active torsions:
REMARK  status: ('A' for Active; 'I' for Inactive)
REMARK    1  A    between atoms: C_1  and  C_2
REMARK    2  A    between atoms: C_1  and  C_16
REMARK    3  A    between atoms: C_2  and  N_3
REMARK    4  A    between atoms: C_7  and  C_11
REMARK    5  A    between atoms: C_16  and  C_17
REMARK    6  A    between atoms: C_17  and  N_21
REMARK                            x       y       z     vdW  Elec       q    Type
REMARK                         _______ _______ _______ _____ _____    ______ ____
ROOT
ATOM      1  C   UNL     1      33.632 -15.322 -24.298  0.00  0.00    -0.021 C 
ENDROOT
BRANCH   1   2
ATOM      2  C   UNL     1      35.121 -15.667 -24.293  0.00  0.00    -0.077 C 
BRANCH   2   3
ATOM      3  N   UNL     1      35.386 -16.754 -23.354  0.00  0.00    +0.390 N 
ATOM      4  C   UNL     1      35.034 -16.368 -21.984  0.00  0.00    -0.072 C 
ATOM      5  C   UNL     1      34.665 -17.974 -23.751  0.00  0.00    -0.051 C 
ATOM      6  C   UNL     1      35.477 -17.463 -21.002  0.00  0.00    +0.005 C 
ATOM      7  C   UNL     1      35.063 -18.850 -21.440  0.00  0.00    -0.013 C 
ATOM      8  C   UNL     1      34.689 -19.065 -22.715  0.00  0.00    -0.052 C 
ATOM      9  H   UNL     1      36.386 -16.951 -23.376  0.00  0.00    -0.079 HD
BRANCH   7  11
ATOM     10  N   UNL     1      36.298 -20.222 -19.894  0.00  0.00    -0.244 NA
ATOM     11  C   UNL     1      35.091 -19.942 -20.436  0.00  0.00    +0.077 C 
ATOM     12  C   UNL     1      33.921 -20.610 -20.105  0.00  0.00    +0.019 C 
ATOM     13  C   UNL     1      33.996 -21.627 -19.159  0.00  0.00    +0.003 C 
ATOM     14  C   UNL     1      36.332 -21.217 -18.978  0.00  0.00    +0.099 C 
ATOM     15  C   UNL     1      35.221 -21.942 -18.581  0.00  0.00    +0.021 C 
ENDBRANCH   7  11
ENDBRANCH   2   3
ENDBRANCH   1   2
BRANCH   1  16
ATOM     16  C   UNL     1      33.418 -13.805 -24.263  0.00  0.00    +0.020 C 
BRANCH  16  17
ATOM     17  C   UNL     1      34.005 -13.158 -23.013  0.00  0.00    +0.099 C 
BRANCH  17  21
ATOM     18 CL   UNL     1      31.890 -13.666 -21.039  0.00  0.00    -0.062 Cl
ATOM     19  O   UNL     1      32.281  -9.732 -20.857  0.00  0.00    -0.448 OA
ATOM     20  O   UNL     1      34.416 -10.677 -24.161  0.00  0.00    -0.269 OA
ATOM     21  N   UNL     1      33.258 -11.963 -22.595  0.00  0.00    -0.244 N 
ATOM     22  C   UNL     1      33.499 -10.790 -23.344  0.00  0.00    +0.256 C 
ATOM     23  C   UNL     1      32.388 -12.066 -21.511  0.00  0.00    +0.151 C 
ATOM     24  C   UNL     1      32.571  -9.637 -23.262  0.00  0.00    +0.088 C 
ATOM     25  C   UNL     1      32.031  -9.159 -22.072  0.00  0.00    +0.150 C 
ATOM     26  C   UNL     1      31.950 -11.054 -20.752  0.00  0.00    +0.206 C 
ATOM     27  C   UNL     1      32.280  -8.958 -24.457  0.00  0.00    +0.008 C 
ATOM     28  C   UNL     1      31.231  -8.010 -22.063  0.00  0.00    +0.038 C 
ATOM     29  C   UNL     1      31.465  -7.825 -24.453  0.00  0.00    +0.000 C 
ATOM     30  C   UNL     1      30.944  -7.348 -23.254  0.00  0.00    +0.003 C 
ENDBRANCH  17  21
ENDBRANCH  16  17
ENDBRANCH   1  16
TORSDOF 6
ENDMDL
MODEL 3
REMARK VINA RESULT:     -11.2      2.615      3.835
REMARK  Name = 9801640
REMARK  6 active torsions:
REMARK  status: ('A' for Active; 'I' for Inactive)
REMARK    1  A    between atoms: C_1  and  C_2
REMARK    2  A    between atoms: C_1  and  C_16
REMARK    3  A    between atoms: C_2  and  N_3
REMARK    4  A    between atoms: C_7  and  C_11
REMARK    5  A    between atoms: C_16  and  C_17
REMARK    6  A    between atoms: C_17  and  N_21
REMARK                            x       y       z     vdW  Elec       q    Type
REMARK                         _______ _______ _______ _____ _____    ______ ____
ROOT
ATOM      1  C   UNL     1      33.006 -13.108 -22.879  0.00  0.00    -0.021 C 
ENDROOT
BRANCH   1   2
ATOM      2  C   UNL     1      34.191 -13.660 -23.670  0.00  0.00    -0.077 C 
BRANCH   2   3
ATOM      3  N   UNL     1      34.788 -14.792 -22.964  0.00  0.00    +0.390 N 
ATOM      4  C   UNL     1      34.181 -14.971 -21.641  0.00  0.00    -0.072 C 
ATOM      5  C   UNL     1      34.670 -16.024 -23.760  0.00  0.00    -0.051 C 
ATOM      6  C   UNL     1      34.939 -16.056 -20.862  0.00  0.00    +0.005 C 
ATOM      7  C   UNL     1      35.172 -17.311 -21.673  0.00  0.00    -0.013 C 
ATOM      8  C   UNL     1      35.040 -17.276 -23.012  0.00  0.00    -0.052 C 
ATOM      9  H   UNL     1      35.779 -14.591 -22.829  0.00  0.00    -0.079 HD
BRANCH   7  11
ATOM     10  N   UNL     1      36.831 -18.630 -20.530  0.00  0.00    -0.244 NA
ATOM     11  C   UNL     1      35.549 -18.553 -20.954  0.00  0.00    +0.077 C 
ATOM     12  C   UNL     1      34.607 -19.551 -20.752  0.00  0.00    +0.019 C 
ATOM     13  C   UNL     1      35.006 -20.698 -20.074  0.00  0.00    +0.003 C 
ATOM     14  C   UNL     1      37.183 -19.760 -19.875  0.00  0.00    +0.099 C 
ATOM     15  C   UNL     1      36.317 -20.812 -19.624  0.00  0.00    +0.021 C 
ENDBRANCH   7  11
ENDBRANCH   2   3
ENDBRANCH   1   2
BRANCH   1  16
ATOM     16  C   UNL     1      32.994 -11.576 -22.902  0.00  0.00    +0.020 C 
BRANCH  16  17
ATOM     17  C   UNL     1      31.683 -10.992 -22.388  0.00  0.00    +0.099 C 
BRANCH  17  21
ATOM     18 CL   UNL     1      31.442 -10.846 -19.464  0.00  0.00    -0.062 Cl
ATOM     19  O   UNL     1      33.090  -7.358 -20.346  0.00  0.00    -0.448 OA
ATOM     20  O   UNL     1      31.981  -8.750 -23.979  0.00  0.00    -0.269 OA
ATOM     21  N   UNL     1      31.851  -9.644 -21.826  0.00  0.00    -0.244 N 
ATOM     22  C   UNL     1      31.885  -8.584 -22.760  0.00  0.00    +0.256 C 
ATOM     23  C   UNL     1      31.970  -9.507 -20.445  0.00  0.00    +0.151 C 
ATOM     24  C   UNL     1      31.694  -7.182 -22.319  0.00  0.00    +0.088 C 
ATOM     25  C   UNL     1      32.290  -6.637 -21.186  0.00  0.00    +0.150 C 
ATOM     26  C   UNL     1      32.516  -8.470 -19.798  0.00  0.00    +0.206 C 
ATOM     27  C   UNL     1      30.913  -6.350 -23.140  0.00  0.00    +0.008 C 
ATOM     28  C   UNL     1      32.133  -5.280 -20.882  0.00  0.00    +0.038 C 
ATOM     29  C   UNL     1      30.739  -5.001 -22.826  0.00  0.00    +0.000 C 
ATOM     30  C   UNL     1      31.353  -4.465 -21.698  0.00  0.00    +0.003 C 
ENDBRANCH  17  21
ENDBRANCH  16  17
ENDBRANCH   1  16
TORSDOF 6
ENDMDL
MODEL 4
REMARK VINA RESULT:     -10.8      3.908      9.856
REMARK  Name = 9801640
REMARK  6 active torsions:
REMARK  status: ('A' for Active; 'I' for Inactive)
REMARK    1  A    between atoms: C_1  and  C_2
REMARK    2  A    between atoms: C_1  and  C_16
REMARK    3  A    between atoms: C_2  and  N_3
REMARK    4  A    between atoms: C_7  and  C_11
REMARK    5  A    between atoms: C_16  and  C_17
REMARK    6  A    between atoms: C_17  and  N_21
REMARK                            x       y       z     vdW  Elec       q    Type
REMARK                         _______ _______ _______ _____ _____    ______ ____
ROOT
ATOM      1  C   UNL     1      36.296 -18.355 -21.966  0.00  0.00    -0.021 C 
ENDROOT
BRANCH   1   2
ATOM      2  C   UNL     1      35.375 -18.166 -23.171  0.00  0.00    -0.077 C 
BRANCH   2   3
ATOM      3  N   UNL     1      34.611 -16.927 -23.036  0.00  0.00    +0.390 N 
ATOM      4  C   UNL     1      35.267 -15.999 -22.110  0.00  0.00    -0.072 C 
ATOM      5  C   UNL     1      34.408 -16.294 -24.349  0.00  0.00    -0.051 C 
ATOM      6  C   UNL     1      34.362 -14.783 -21.861  0.00  0.00    +0.005 C 
ATOM      7  C   UNL     1      33.811 -14.187 -23.137  0.00  0.00    -0.013 C 
ATOM      8  C   UNL     1      33.844 -14.901 -24.278  0.00  0.00    -0.052 C 
ATOM      9  H   UNL     1      33.698 -17.163 -22.649  0.00  0.00    -0.079 HD
BRANCH   7  11
ATOM     10  N   UNL     1      32.186 -12.645 -22.255  0.00  0.00    -0.244 NA
ATOM     11  C   UNL     1      33.240 -12.819 -23.085  0.00  0.00    +0.077 C 
ATOM     12  C   UNL     1      33.787 -11.808 -23.861  0.00  0.00    +0.019 C 
ATOM     13  C   UNL     1      33.217 -10.542 -23.779  0.00  0.00    +0.003 C 
ATOM     14  C   UNL     1      31.658 -11.401 -22.202  0.00  0.00    +0.099 C 
ATOM     15  C   UNL     1      32.132 -10.326 -22.937  0.00  0.00    +0.021 C 
ENDBRANCH   7  11
ENDBRANCH   2   3
ENDBRANCH   1   2
BRANCH   1  16
ATOM     16  C   UNL     1      35.525 -18.911 -20.765  0.00  0.00    +0.020 C 
BRANCH  16  17
ATOM     17  C   UNL     1      35.066 -20.350 -20.978  0.00  0.00    +0.099 C 
BRANCH  17  21
ATOM     18 CL   UNL     1      32.335 -20.193 -19.907  0.00  0.00    -0.062 Cl
ATOM     19  O   UNL     1      33.898 -23.150 -17.791  0.00  0.00    -0.448 OA
ATOM     20  O   UNL     1      37.143 -21.560 -19.610  0.00  0.00    -0.269 OA
ATOM     21  N   UNL     1      34.863 -21.068 -19.711  0.00  0.00    -0.244 N 
ATOM     22  C   UNL     1      36.032 -21.542 -19.074  0.00  0.00    +0.256 C 
ATOM     23  C   UNL     1      33.562 -21.232 -19.239  0.00  0.00    +0.151 C 
ATOM     24  C   UNL     1      36.002 -21.956 -17.651  0.00  0.00    +0.088 C 
ATOM     25  C   UNL     1      34.989 -22.725 -17.088  0.00  0.00    +0.150 C 
ATOM     26  C   UNL     1      33.150 -22.163 -18.369  0.00  0.00    +0.206 C 
ATOM     27  C   UNL     1      37.101 -21.595 -16.854  0.00  0.00    +0.008 C 
ATOM     28  C   UNL     1      35.074 -23.151 -15.757  0.00  0.00    +0.038 C 
ATOM     29  C   UNL     1      37.177 -22.002 -15.520  0.00  0.00    +0.000 C 
ATOM     30  C   UNL     1      36.164 -22.784 -14.973  0.00  0.00    +0.003 C 
ENDBRANCH  17  21
ENDBRANCH  16  17
ENDBRANCH   1  16
TORSDOF 6
ENDMDL
MODEL 5
REMARK VINA RESULT:     -10.8      5.913     11.354
REMARK  Name = 9801640
REMARK  6 active torsions:
REMARK  status: ('A' for Active; 'I' for Inactive)
REMARK    1  A    between atoms: C_1  and  C_2
REMARK    2  A    between atoms: C_1  and  C_16
REMARK    3  A    between atoms: C_2  and  N_3
REMARK    4  A    between atoms: C_7  and  C_11
REMARK    5  A    between atoms: C_16  and  C_17
REMARK    6  A    between atoms: C_17  and  N_21
REMARK                            x       y       z     vdW  Elec       q    Type
REMARK                         _______ _______ _______ _____ _____    ______ ____
ROOT
ATOM      1  C   UNL     1      36.834 -21.243 -16.876  0.00  0.00    -0.021 C 
ENDROOT
BRANCH   1   2
ATOM      2  C   UNL     1      36.416 -21.715 -18.268  0.00  0.00    -0.077 C 
BRANCH   2   3
ATOM      3  N   UNL     1      36.056 -20.572 -19.104  0.00  0.00    +0.390 N 
ATOM      4  C   UNL     1      37.164 -20.191 -19.986  0.00  0.00    -0.072 C 
ATOM      5  C   UNL     1      34.844 -20.859 -19.887  0.00  0.00    -0.051 C 
ATOM      6  C   UNL     1      36.818 -18.891 -20.727  0.00  0.00    +0.005 C 
ATOM      7  C   UNL     1      35.439 -18.914 -21.348  0.00  0.00    -0.013 C 
ATOM      8  C   UNL     1      34.541 -19.834 -20.947  0.00  0.00    -0.052 C 
ATOM      9  H   UNL     1      35.860 -19.782 -18.488  0.00  0.00    -0.079 HD
BRANCH   7  11
ATOM     10  N   UNL     1      35.350 -16.615 -22.054  0.00  0.00    -0.244 NA
ATOM     11  C   UNL     1      35.118 -17.905 -22.386  0.00  0.00    +0.077 C 
ATOM     12  C   UNL     1      34.609 -18.308 -23.613  0.00  0.00    +0.019 C 
ATOM     13  C   UNL     1      34.323 -17.326 -24.555  0.00  0.00    +0.003 C 
ATOM     14  C   UNL     1      35.058 -15.688 -22.995  0.00  0.00    +0.099 C 
ATOM     15  C   UNL     1      34.548 -15.989 -24.248  0.00  0.00    +0.021 C 
ENDBRANCH   7  11
ENDBRANCH   2   3
ENDBRANCH   1   2
BRANCH   1  16
ATOM     16  C   UNL     1      36.113 -22.040 -15.784  0.00  0.00    +0.020 C 
BRANCH  16  17
ATOM     17  C   UNL     1      35.176 -23.099 -16.353  0.00  0.00    +0.099 C 
BRANCH  17  21
ATOM     18 CL   UNL     1      36.220 -24.943 -14.319  0.00  0.00    -0.062 Cl
ATOM     19  O   UNL     1      32.752 -23.850 -12.758  0.00  0.00    -0.448 OA
ATOM     20  O   UNL     1      32.496 -22.443 -16.543  0.00  0.00    -0.269 OA
ATOM     21  N   UNL     1      34.181 -23.554 -15.370  0.00  0.00    -0.244 N 
ATOM     22  C   UNL     1      32.836 -23.229 -15.656  0.00  0.00    +0.256 C 
ATOM     23  C   UNL     1      34.624 -24.252 -14.249  0.00  0.00    +0.151 C 
ATOM     24  C   UNL     1      31.727 -23.919 -14.954  0.00  0.00    +0.088 C 
ATOM     25  C   UNL     1      31.717 -24.179 -13.587  0.00  0.00    +0.150 C 
ATOM     26  C   UNL     1      33.964 -24.386 -13.091  0.00  0.00    +0.206 C 
ATOM     27  C   UNL     1      30.600 -24.266 -15.717  0.00  0.00    +0.008 C 
ATOM     28  C   UNL     1      30.596 -24.755 -12.979  0.00  0.00    +0.038 C 
ATOM     29  C   UNL     1      29.489 -24.861 -15.116  0.00  0.00    +0.000 C 
ATOM     30  C   UNL     1      29.485 -25.101 -13.746  0.00  0.00    +0.003 C 
ENDBRANCH  17  21
ENDBRANCH  16  17
ENDBRANCH   1  16
TORSDOF 6
ENDMDL
MODEL 6
REMARK VINA RESULT:     -10.7      1.475      2.104
REMARK  Name = 9801640
REMARK  6 active torsions:
REMARK  status: ('A' for Active; 'I' for Inactive)
REMARK    1  A    between atoms: C_1  and  C_2
REMARK    2  A    between atoms: C_1  and  C_16
REMARK    3  A    between atoms: C_2  and  N_3
REMARK    4  A    between atoms: C_7  and  C_11
REMARK    5  A    between atoms: C_16  and  C_17
REMARK    6  A    between atoms: C_17  and  N_21
REMARK                            x       y       z     vdW  Elec       q    Type
REMARK                         _______ _______ _______ _____ _____    ______ ____
ROOT
ATOM      1  C   UNL     1      34.236 -12.816 -23.265  0.00  0.00    -0.021 C 
ENDROOT
BRANCH   1   2
ATOM      2  C   UNL     1      33.855 -14.023 -24.121  0.00  0.00    -0.077 C 
BRANCH   2   3
ATOM      3  N   UNL     1      34.014 -15.257 -23.355  0.00  0.00    +0.390 N 
ATOM      4  C   UNL     1      34.892 -16.203 -24.050  0.00  0.00    -0.072 C 
ATOM      5  C   UNL     1      34.524 -14.971 -22.005  0.00  0.00    -0.051 C 
ATOM      6  C   UNL     1      34.906 -17.547 -23.307  0.00  0.00    +0.005 C 
ATOM      7  C   UNL     1      35.123 -17.395 -21.818  0.00  0.00    -0.013 C 
ATOM      8  C   UNL     1      34.943 -16.195 -21.235  0.00  0.00    -0.052 C 
ATOM      9  H   UNL     1      33.095 -15.691 -23.265  0.00  0.00    -0.079 HD
BRANCH   7  11
ATOM     10  N   UNL     1      36.823 -18.649 -20.663  0.00  0.00    -0.244 NA
ATOM     11  C   UNL     1      35.525 -18.592 -21.040  0.00  0.00    +0.077 C 
ATOM     12  C   UNL     1      34.590 -19.572 -20.740  0.00  0.00    +0.019 C 
ATOM     13  C   UNL     1      35.013 -20.677 -20.009  0.00  0.00    +0.003 C 
ATOM     14  C   UNL     1      37.198 -19.738 -19.954  0.00  0.00    +0.099 C 
ATOM     15  C   UNL     1      36.341 -20.769 -19.605  0.00  0.00    +0.021 C 
ENDBRANCH   7  11
ENDBRANCH   2   3
ENDBRANCH   1   2
BRANCH   1  16
ATOM     16  C   UNL     1      34.394 -11.558 -24.126  0.00  0.00    +0.020 C 
BRANCH  16  17
ATOM     17  C   UNL     1      33.110 -10.740 -24.210  0.00  0.00    +0.099 C 
BRANCH  17  21
ATOM     18 CL   UNL     1      34.751  -8.338 -23.800  0.00  0.00    -0.062 Cl
ATOM     19  O   UNL     1      31.859  -7.842 -21.146  0.00  0.00    -0.448 OA
ATOM     20  O   UNL     1      31.332 -11.680 -22.312  0.00  0.00    -0.269 OA
ATOM     21  N   UNL     1      32.827 -10.010 -22.966  0.00  0.00    -0.244 N 
ATOM     22  C   UNL     1      31.978 -10.663 -22.045  0.00  0.00    +0.256 C 
ATOM     23  C   UNL     1      33.396  -8.750 -22.788  0.00  0.00    +0.151 C 
ATOM     24  C   UNL     1      31.902 -10.210 -20.635  0.00  0.00    +0.088 C 
ATOM     25  C   UNL     1      31.832  -8.875 -20.253  0.00  0.00    +0.150 C 
ATOM     26  C   UNL     1      32.957  -7.796 -21.958  0.00  0.00    +0.206 C 
ATOM     27  C   UNL     1      31.833 -11.203 -19.644  0.00  0.00    +0.008 C 
ATOM     28  C   UNL     1      31.672  -8.527 -18.906  0.00  0.00    +0.038 C 
ATOM     29  C   UNL     1      31.696 -10.857 -18.298  0.00  0.00    +0.000 C 
ATOM     30  C   UNL     1      31.611  -9.518 -17.930  0.00  0.00    +0.003 C 
ENDBRANCH  17  21
ENDBRANCH  16  17
ENDBRANCH   1  16
TORSDOF 6
ENDMDL
MODEL 7
REMARK VINA RESULT:     -10.6      5.980     11.667
REMARK  Name = 9801640
REMARK  6 active torsions:
REMARK  status: ('A' for Active; 'I' for Inactive)
REMARK    1  A    between atoms: C_1  and  C_2
REMARK    2  A    between atoms: C_1  and  C_16
REMARK    3  A    between atoms: C_2  and  N_3
REMARK    4  A    between atoms: C_7  and  C_11
REMARK    5  A    between atoms: C_16  and  C_17
REMARK    6  A    between atoms: C_17  and  N_21
REMARK                            x       y       z     vdW  Elec       q    Type
REMARK                         _______ _______ _______ _____ _____    ______ ____
ROOT
ATOM      1  C   UNL     1      34.968 -22.284 -18.588  0.00  0.00    -0.021 C 
ENDROOT
BRANCH   1   2
ATOM      2  C   UNL     1      36.272 -21.696 -19.124  0.00  0.00    -0.077 C 
BRANCH   2   3
ATOM      3  N   UNL     1      35.996 -20.748 -20.201  0.00  0.00    +0.390 N 
ATOM      4  C   UNL     1      34.601 -20.299 -20.167  0.00  0.00    -0.072 C 
ATOM      5  C   UNL     1      36.914 -19.600 -20.133  0.00  0.00    -0.051 C 
ATOM      6  C   UNL     1      34.298 -19.438 -21.402  0.00  0.00    +0.005 C 
ATOM      7  C   UNL     1      35.344 -18.374 -21.651  0.00  0.00    -0.013 C 
ATOM      8  C   UNL     1      36.546 -18.466 -21.053  0.00  0.00    -0.052 C 
ATOM      9  H   UNL     1      36.148 -21.228 -21.088  0.00  0.00    -0.079 HD
BRANCH   7  11
ATOM     10  N   UNL     1      34.677 -17.597 -23.830  0.00  0.00    -0.244 NA
ATOM     11  C   UNL     1      35.006 -17.255 -22.563  0.00  0.00    +0.077 C 
ATOM     12  C   UNL     1      35.038 -15.947 -22.100  0.00  0.00    +0.019 C 
ATOM     13  C   UNL     1      34.713 -14.931 -22.991  0.00  0.00    +0.003 C 
ATOM     14  C   UNL     1      34.368 -16.582 -24.668  0.00  0.00    +0.099 C 
ATOM     15  C   UNL     1      34.371 -15.246 -24.302  0.00  0.00    +0.021 C 
ENDBRANCH   7  11
ENDBRANCH   2   3
ENDBRANCH   1   2
BRANCH   1  16
ATOM     16  C   UNL     1      34.991 -22.373 -17.059  0.00  0.00    +0.020 C 
BRANCH  16  17
ATOM     17  C   UNL     1      34.132 -23.514 -16.524  0.00  0.00    +0.099 C 
BRANCH  17  21
ATOM     18 CL   UNL     1      31.752 -22.724 -14.995  0.00  0.00    -0.062 Cl
ATOM     19  O   UNL     1      33.821 -24.784 -12.323  0.00  0.00    -0.448 OA
ATOM     20  O   UNL     1      36.496 -24.292 -15.319  0.00  0.00    -0.269 OA
ATOM     21  N   UNL     1      34.258 -23.677 -15.069  0.00  0.00    -0.244 N 
ATOM     22  C   UNL     1      35.553 -23.976 -14.589  0.00  0.00    +0.256 C 
ATOM     23  C   UNL     1      33.117 -23.537 -14.281  0.00  0.00    +0.151 C 
ATOM     24  C   UNL     1      35.882 -23.815 -13.153  0.00  0.00    +0.088 C 
ATOM     25  C   UNL     1      35.048 -24.221 -12.116  0.00  0.00    +0.150 C 
ATOM     26  C   UNL     1      32.943 -24.028 -13.048  0.00  0.00    +0.206 C 
ATOM     27  C   UNL     1      37.141 -23.277 -12.838  0.00  0.00    +0.008 C 
ATOM     28  C   UNL     1      35.466 -24.118 -10.784  0.00  0.00    +0.038 C 
ATOM     29  C   UNL     1      37.551 -23.153 -11.509  0.00  0.00    +0.000 C 
ATOM     30  C   UNL     1      36.713 -23.577 -10.482  0.00  0.00    +0.003 C 
ENDBRANCH  17  21
ENDBRANCH  16  17
ENDBRANCH   1  16
TORSDOF 6
ENDMDL
MODEL 8
REMARK VINA RESULT:     -10.4      3.885      9.736
REMARK  Name = 9801640
REMARK  6 active torsions:
REMARK  status: ('A' for Active; 'I' for Inactive)
REMARK    1  A    between atoms: C_1  and  C_2
REMARK    2  A    between atoms: C_1  and  C_16
REMARK    3  A    between atoms: C_2  and  N_3
REMARK    4  A    between atoms: C_7  and  C_11
REMARK    5  A    between atoms: C_16  and  C_17
REMARK    6  A    between atoms: C_17  and  N_21
REMARK                            x       y       z     vdW  Elec       q    Type
REMARK                         _______ _______ _______ _____ _____    ______ ____
ROOT
ATOM      1  C   UNL     1      34.943 -19.153 -22.962  0.00  0.00    -0.021 C 
ENDROOT
BRANCH   1   2
ATOM      2  C   UNL     1      36.064 -18.224 -22.498  0.00  0.00    -0.077 C 
BRANCH   2   3
ATOM      3  N   UNL     1      35.657 -16.828 -22.640  0.00  0.00    +0.390 N 
ATOM      4  C   UNL     1      34.667 -16.671 -23.710  0.00  0.00    -0.072 C 
ATOM      5  C   UNL     1      35.135 -16.305 -21.367  0.00  0.00    -0.051 C 
ATOM      6  C   UNL     1      34.385 -15.179 -23.946  0.00  0.00    +0.005 C 
ATOM      7  C   UNL     1      34.122 -14.419 -22.665  0.00  0.00    -0.013 C 
ATOM      8  C   UNL     1      34.474 -14.958 -21.483  0.00  0.00    -0.052 C 
ATOM      9  H   UNL     1      36.482 -16.285 -22.894  0.00  0.00    -0.079 HD
BRANCH   7  11
ATOM     10  N   UNL     1      34.115 -12.173 -23.533  0.00  0.00    -0.244 NA
ATOM     11  C   UNL     1      33.482 -13.085 -22.759  0.00  0.00    +0.077 C 
ATOM     12  C   UNL     1      32.302 -12.831 -22.075  0.00  0.00    +0.019 C 
ATOM     13  C   UNL     1      31.739 -11.564 -22.192  0.00  0.00    +0.003 C 
ATOM     14  C   UNL     1      33.539 -10.953 -23.622  0.00  0.00    +0.099 C 
ATOM     15  C   UNL     1      32.363 -10.602 -22.979  0.00  0.00    +0.021 C 
ENDBRANCH   7  11
ENDBRANCH   2   3
ENDBRANCH   1   2
BRANCH   1  16
ATOM     16  C   UNL     1      34.577 -20.164 -21.871  0.00  0.00    +0.020 C 
BRANCH  16  17
ATOM     17  C   UNL     1      35.235 -19.847 -20.532  0.00  0.00    +0.099 C 
BRANCH  17  21
ATOM     18 CL   UNL     1      32.375 -19.925 -19.868  0.00  0.00    -0.062 Cl
ATOM     19  O   UNL     1      33.714 -23.257 -18.206  0.00  0.00    -0.448 OA
ATOM     20  O   UNL     1      37.133 -21.313 -19.154  0.00  0.00    -0.269 OA
ATOM     21  N   UNL     1      34.876 -20.815 -19.486  0.00  0.00    -0.244 N 
ATOM     22  C   UNL     1      35.956 -21.411 -18.797  0.00  0.00    +0.256 C 
ATOM     23  C   UNL     1      33.527 -21.079 -19.257  0.00  0.00    +0.151 C 
ATOM     24  C   UNL     1      35.735 -22.115 -17.511  0.00  0.00    +0.088 C 
ATOM     25  C   UNL     1      34.677 -22.987 -17.277  0.00  0.00    +0.150 C 
ATOM     26  C   UNL     1      33.025 -22.172 -18.670  0.00  0.00    +0.206 C 
ATOM     27  C   UNL     1      36.695 -21.928 -16.503  0.00  0.00    +0.008 C 
ATOM     28  C   UNL     1      34.584 -23.684 -16.066  0.00  0.00    +0.038 C 
ATOM     29  C   UNL     1      36.591 -22.606 -15.286  0.00  0.00    +0.000 C 
ATOM     30  C   UNL     1      35.537 -23.488 -15.070  0.00  0.00    +0.003 C 
ENDBRANCH  17  21
ENDBRANCH  16  17
ENDBRANCH   1  16
TORSDOF 6
ENDMDL
MODEL 9
REMARK VINA RESULT:     -10.3      6.725     12.576
REMARK  Name = 9801640
REMARK  6 active torsions:
REMARK  status: ('A' for Active; 'I' for Inactive)
REMARK    1  A    between atoms: C_1  and  C_2
REMARK    2  A    between atoms: C_1  and  C_16
REMARK    3  A    between atoms: C_2  and  N_3
REMARK    4  A    between atoms: C_7  and  C_11
REMARK    5  A    between atoms: C_16  and  C_17
REMARK    6  A    between atoms: C_17  and  N_21
REMARK                            x       y       z     vdW  Elec       q    Type
REMARK                         _______ _______ _______ _____ _____    ______ ____
ROOT
ATOM      1  C   UNL     1      33.054 -22.788 -16.443  0.00  0.00    -0.021 C 
ENDROOT
BRANCH   1   2
ATOM      2  C   UNL     1      33.686 -23.541 -17.613  0.00  0.00    -0.077 C 
BRANCH   2   3
ATOM      3  N   UNL     1      33.902 -22.636 -18.740  0.00  0.00    +0.390 N 
ATOM      4  C   UNL     1      32.930 -21.539 -18.733  0.00  0.00    -0.072 C 
ATOM      5  C   UNL     1      35.277 -22.112 -18.731  0.00  0.00    -0.051 C 
ATOM      6  C   UNL     1      33.076 -20.704 -20.014  0.00  0.00    +0.005 C 
ATOM      7  C   UNL     1      34.511 -20.333 -20.316  0.00  0.00    -0.013 C 
ATOM      8  C   UNL     1      35.514 -20.995 -19.710  0.00  0.00    -0.052 C 
ATOM      9  H   UNL     1      33.768 -23.168 -19.599  0.00  0.00    -0.079 HD
BRANCH   7  11
ATOM     10  N   UNL     1      35.177 -18.063 -20.764  0.00  0.00    -0.244 NA
ATOM     11  C   UNL     1      34.765 -19.241 -21.287  0.00  0.00    +0.077 C 
ATOM     12  C   UNL     1      34.577 -19.461 -22.644  0.00  0.00    +0.019 C 
ATOM     13  C   UNL     1      34.827 -18.407 -23.517  0.00  0.00    +0.003 C 
ATOM     14  C   UNL     1      35.410 -17.062 -21.644  0.00  0.00    +0.099 C 
ATOM     15  C   UNL     1      35.252 -17.182 -23.015  0.00  0.00    +0.021 C 
ENDBRANCH   7  11
ENDBRANCH   2   3
ENDBRANCH   1   2
BRANCH   1  16
ATOM     16  C   UNL     1      33.436 -23.428 -15.104  0.00  0.00    +0.020 C 
BRANCH  16  17
ATOM     17  C   UNL     1      34.632 -22.746 -14.448  0.00  0.00    +0.099 C 
BRANCH  17  21
ATOM     18 CL   UNL     1      34.478 -23.562 -11.631  0.00  0.00    -0.062 Cl
ATOM     19  O   UNL     1      36.913 -26.281 -13.161  0.00  0.00    -0.448 OA
ATOM     20  O   UNL     1      36.681 -23.539 -16.127  0.00  0.00    -0.269 OA
ATOM     21  N   UNL     1      35.666 -23.704 -14.031  0.00  0.00    -0.244 N 
ATOM     22  C   UNL     1      36.707 -23.933 -14.958  0.00  0.00    +0.256 C 
ATOM     23  C   UNL     1      35.546 -24.312 -12.783  0.00  0.00    +0.151 C 
ATOM     24  C   UNL     1      37.969 -24.583 -14.531  0.00  0.00    +0.088 C 
ATOM     25  C   UNL     1      38.025 -25.695 -13.697  0.00  0.00    +0.150 C 
ATOM     26  C   UNL     1      36.123 -25.460 -12.406  0.00  0.00    +0.206 C 
ATOM     27  C   UNL     1      39.167 -24.073 -15.060  0.00  0.00    +0.008 C 
ATOM     28  C   UNL     1      39.249 -26.309 -13.408  0.00  0.00    +0.038 C 
ATOM     29  C   UNL     1      40.391 -24.671 -14.756  0.00  0.00    +0.000 C 
ATOM     30  C   UNL     1      40.432 -25.792 -13.933  0.00  0.00    +0.003 C 
ENDBRANCH  17  21
ENDBRANCH  16  17
ENDBRANCH   1  16
TORSDOF 6
ENDMDL
