MODEL 1
REMARK VINA RESULT:     -11.1      0.000      0.000
REMARK  Name = 447994
REMARK  10 active torsions:
REMARK  status: ('A' for Active; 'I' for Inactive)
REMARK    1  A    between atoms: C_2  and  C_10
REMARK    2  A    between atoms: C_3  and  C_17
REMARK    3  A    between atoms: C_12  and  C_14
REMARK    4  A    between atoms: C_14  and  O_15
REMARK    5  A    between atoms: C_18  and  C_19
REMARK    6  A    between atoms: C_19  and  O_20
REMARK    7  A    between atoms: O_20  and  C_21
REMARK    8  A    between atoms: C_22  and  C_30
REMARK    9  A    between atoms: C_23  and  O_27
REMARK   10  A    between atoms: C_30  and  O_31
REMARK                            x       y       z     vdW  Elec       q    Type
REMARK                         _______ _______ _______ _____ _____    ______ ____
ROOT
ATOM      1  F   UNL     1      37.638 -17.948 -21.877  0.00  0.00    -0.204 F 
ATOM      2  C   UNL     1      35.448 -18.846 -21.658  0.00  0.00    +0.065 C 
ATOM      3  C   UNL     1      35.041 -20.546 -19.990  0.00  0.00    +0.000 C 
ATOM      4  C   UNL     1      34.576 -19.726 -21.017  0.00  0.00    +0.005 C 
ATOM      5  C   UNL     1      36.787 -18.787 -21.272  0.00  0.00    +0.143 C 
ATOM      6  C   UNL     1      36.381 -20.487 -19.604  0.00  0.00    +0.002 C 
ATOM      7  C   UNL     1      37.254 -19.608 -20.245  0.00  0.00    +0.030 C 
ENDROOT
BRANCH   2  10
ATOM      8  O   UNL     1      34.595 -18.644 -23.853  0.00  0.00    -0.353 OA
ATOM      9  N   UNL     1      34.151 -17.708 -24.780  0.00  0.00    -0.070 NA
ATOM     10  C   UNL     1      34.962 -17.999 -22.720  0.00  0.00    +0.179 C 
ATOM     11  C   UNL     1      34.775 -16.656 -22.859  0.00  0.00    +0.069 C 
ATOM     12  C   UNL     1      34.268 -16.529 -24.164  0.00  0.00    +0.198 C 
BRANCH  12  14
ATOM     13  O   UNL     1      33.457 -15.267 -26.007  0.00  0.00    -0.243 OA
ATOM     14  C   UNL     1      33.889 -15.325 -24.844  0.00  0.00    +0.359 C 
BRANCH  14  15
ATOM     15  O   UNL     1      34.034 -14.173 -24.112  0.00  0.00    -0.476 OA
ATOM     16  H   UNL     1      33.353 -13.528 -24.112  0.00  0.00    +0.295 HD
ENDBRANCH  14  15
ENDBRANCH  12  14
ENDBRANCH   2  10
BRANCH   3  17
ATOM     17  C   UNL     1      34.132 -21.464 -19.322  0.00  0.00    -0.001 C 
ATOM     18  C   UNL     1      34.460 -22.322 -18.329  0.00  0.00    +0.021 C 
BRANCH  18  19
ATOM     19  C   UNL     1      33.485 -23.237 -17.661  0.00  0.00    +0.232 C 
BRANCH  19  20
ATOM     20  O   UNL     1      34.167 -23.978 -16.660  0.00  0.00    -0.470 OA
BRANCH  20  21
ATOM     21  C   UNL     1      33.686 -23.877 -15.379  0.00  0.00    +0.148 C 
ATOM     22  C   UNL     1      34.400 -24.406 -14.309  0.00  0.00    +0.143 C 
ATOM     23  C   UNL     1      33.893 -24.292 -13.016  0.00  0.00    +0.143 C 
ATOM     24  C   UNL     1      32.471 -23.234 -15.170  0.00  0.00    +0.037 C 
ATOM     25  C   UNL     1      32.675 -23.648 -12.798  0.00  0.00    +0.037 C 
ATOM     26  C   UNL     1      31.964 -23.119 -13.876  0.00  0.00    +0.006 C 
BRANCH  23  27
ATOM     27  O   UNL     1      34.572 -24.799 -11.949  0.00  0.00    -0.505 OA
ATOM     28  H   UNL     1      34.747 -25.719 -11.898  0.00  0.00    +0.292 HD
ENDBRANCH  23  27
BRANCH  22  30
ATOM     29  O   UNL     1      35.792 -26.184 -15.077  0.00  0.00    -0.245 OA
ATOM     30  C   UNL     1      35.675 -25.079 -14.536  0.00  0.00    +0.347 C 
BRANCH  30  31
ATOM     31  O   UNL     1      36.722 -24.331 -14.077  0.00  0.00    -0.441 OA
ATOM     32  C   UNL     1      37.321 -23.423 -15.008  0.00  0.00    +0.256 C 
ENDBRANCH  30  31
ENDBRANCH  22  30
ENDBRANCH  20  21
ENDBRANCH  19  20
ENDBRANCH  18  19
ENDBRANCH   3  17
TORSDOF 10
ENDMDL
MODEL 2
REMARK VINA RESULT:     -11.0      7.056      8.255
REMARK  Name = 447994
REMARK  10 active torsions:
REMARK  status: ('A' for Active; 'I' for Inactive)
REMARK    1  A    between atoms: C_2  and  C_10
REMARK    2  A    between atoms: C_3  and  C_17
REMARK    3  A    between atoms: C_12  and  C_14
REMARK    4  A    between atoms: C_14  and  O_15
REMARK    5  A    between atoms: C_18  and  C_19
REMARK    6  A    between atoms: C_19  and  O_20
REMARK    7  A    between atoms: O_20  and  C_21
REMARK    8  A    between atoms: C_22  and  C_30
REMARK    9  A    between atoms: C_23  and  O_27
REMARK   10  A    between atoms: C_30  and  O_31
REMARK                            x       y       z     vdW  Elec       q    Type
REMARK                         _______ _______ _______ _____ _____    ______ ____
ROOT
ATOM      1  F   UNL     1      29.146 -25.375 -13.740  0.00  0.00    -0.204 F 
ATOM      2  C   UNL     1      30.376 -23.823 -15.056  0.00  0.00    +0.065 C 
ATOM      3  C   UNL     1      32.743 -23.558 -14.646  0.00  0.00    +0.000 C 
ATOM      4  C   UNL     1      31.594 -23.213 -15.357  0.00  0.00    +0.005 C 
ATOM      5  C   UNL     1      30.308 -24.779 -14.042  0.00  0.00    +0.143 C 
ATOM      6  C   UNL     1      32.674 -24.514 -13.632  0.00  0.00    +0.002 C 
ATOM      7  C   UNL     1      31.457 -25.125 -13.330  0.00  0.00    +0.030 C 
ENDROOT
BRANCH   2  10
ATOM      8  O   UNL     1      28.715 -24.419 -16.628  0.00  0.00    -0.353 OA
ATOM      9  N   UNL     1      27.579 -23.936 -17.266  0.00  0.00    -0.070 NA
ATOM     10  C   UNL     1      29.190 -23.464 -15.794  0.00  0.00    +0.179 C 
ATOM     11  C   UNL     1      28.404 -22.351 -15.854  0.00  0.00    +0.069 C 
ATOM     12  C   UNL     1      27.413 -22.700 -16.788  0.00  0.00    +0.198 C 
BRANCH  12  14
ATOM     13  O   UNL     1      26.009 -21.708 -18.429  0.00  0.00    -0.243 OA
ATOM     14  C   UNL     1      26.314 -21.899 -17.241  0.00  0.00    +0.359 C 
BRANCH  14  15
ATOM     15  O   UNL     1      25.569 -21.317 -16.244  0.00  0.00    -0.476 OA
ATOM     16  H   UNL     1      24.904 -21.811 -15.807  0.00  0.00    +0.295 HD
ENDBRANCH  14  15
ENDBRANCH  12  14
ENDBRANCH   2  10
BRANCH   3  17
ATOM     17  C   UNL     1      34.012 -22.922 -14.961  0.00  0.00    -0.001 C 
ATOM     18  C   UNL     1      35.158 -23.560 -15.291  0.00  0.00    +0.021 C 
BRANCH  18  19
ATOM     19  C   UNL     1      36.438 -22.861 -15.621  0.00  0.00    +0.232 C 
BRANCH  19  20
ATOM     20  O   UNL     1      37.508 -23.544 -14.984  0.00  0.00    -0.470 OA
BRANCH  20  21
ATOM     21  C   UNL     1      37.342 -23.858 -13.660  0.00  0.00    +0.148 C 
ATOM     22  C   UNL     1      37.372 -25.181 -13.234  0.00  0.00    +0.143 C 
ATOM     23  C   UNL     1      37.202 -25.477 -11.883  0.00  0.00    +0.143 C 
ATOM     24  C   UNL     1      37.146 -22.826 -12.748  0.00  0.00    +0.037 C 
ATOM     25  C   UNL     1      37.005 -24.448 -10.962  0.00  0.00    +0.037 C 
ATOM     26  C   UNL     1      36.977 -23.122 -11.396  0.00  0.00    +0.006 C 
BRANCH  23  27
ATOM     27  O   UNL     1      37.229 -26.765 -11.438  0.00  0.00    -0.505 OA
ATOM     28  H   UNL     1      37.182 -27.474 -12.050  0.00  0.00    +0.292 HD
ENDBRANCH  23  27
BRANCH  22  30
ATOM     29  O   UNL     1      36.765 -26.579 -15.069  0.00  0.00    -0.245 OA
ATOM     30  C   UNL     1      37.580 -26.259 -14.197  0.00  0.00    +0.347 C 
BRANCH  30  31
ATOM     31  O   UNL     1      38.789 -26.867 -14.011  0.00  0.00    -0.441 OA
ATOM     32  C   UNL     1      39.953 -26.066 -14.244  0.00  0.00    +0.256 C 
ENDBRANCH  30  31
ENDBRANCH  22  30
ENDBRANCH  20  21
ENDBRANCH  19  20
ENDBRANCH  18  19
ENDBRANCH   3  17
TORSDOF 10
ENDMDL
MODEL 3
REMARK VINA RESULT:     -10.7      4.667     11.605
REMARK  Name = 447994
REMARK  10 active torsions:
REMARK  status: ('A' for Active; 'I' for Inactive)
REMARK    1  A    between atoms: C_2  and  C_10
REMARK    2  A    between atoms: C_3  and  C_17
REMARK    3  A    between atoms: C_12  and  C_14
REMARK    4  A    between atoms: C_14  and  O_15
REMARK    5  A    between atoms: C_18  and  C_19
REMARK    6  A    between atoms: C_19  and  O_20
REMARK    7  A    between atoms: O_20  and  C_21
REMARK    8  A    between atoms: C_22  and  C_30
REMARK    9  A    between atoms: C_23  and  O_27
REMARK   10  A    between atoms: C_30  and  O_31
REMARK                            x       y       z     vdW  Elec       q    Type
REMARK                         _______ _______ _______ _____ _____    ______ ____
ROOT
ATOM      1  F   UNL     1      34.894 -19.815 -23.765  0.00  0.00    -0.204 F 
ATOM      2  C   UNL     1      35.175 -17.982 -22.277  0.00  0.00    +0.065 C 
ATOM      3  C   UNL     1      34.668 -15.752 -23.058  0.00  0.00    +0.000 C 
ATOM      4  C   UNL     1      35.097 -16.609 -22.045  0.00  0.00    +0.005 C 
ATOM      5  C   UNL     1      34.824 -18.499 -23.525  0.00  0.00    +0.143 C 
ATOM      6  C   UNL     1      34.318 -16.269 -24.306  0.00  0.00    +0.002 C 
ATOM      7  C   UNL     1      34.396 -17.642 -24.539  0.00  0.00    +0.030 C 
ENDROOT
BRANCH   2  10
ATOM      8  O   UNL     1      36.777 -18.509 -20.622  0.00  0.00    -0.353 OA
ATOM      9  N   UNL     1      37.077 -19.443 -19.638  0.00  0.00    -0.070 NA
ATOM     10  C   UNL     1      35.618 -18.864 -21.226  0.00  0.00    +0.179 C 
ATOM     11  C   UNL     1      35.131 -20.012 -20.674  0.00  0.00    +0.069 C 
ATOM     12  C   UNL     1      36.080 -20.331 -19.688  0.00  0.00    +0.198 C 
BRANCH  12  14
ATOM     13  O   UNL     1      36.707 -21.516 -17.726  0.00  0.00    -0.243 OA
ATOM     14  C   UNL     1      36.071 -21.449 -18.790  0.00  0.00    +0.359 C 
BRANCH  14  15
ATOM     15  O   UNL     1      35.285 -22.504 -19.183  0.00  0.00    -0.476 OA
ATOM     16  H   UNL     1      34.708 -22.411 -19.916  0.00  0.00    +0.295 HD
ENDBRANCH  14  15
ENDBRANCH  12  14
ENDBRANCH   2  10
BRANCH   3  17
ATOM     17  C   UNL     1      34.586 -14.320 -22.816  0.00  0.00    -0.001 C 
ATOM     18  C   UNL     1      33.836 -13.440 -23.516  0.00  0.00    +0.021 C 
BRANCH  18  19
ATOM     19  C   UNL     1      33.773 -11.976 -23.219  0.00  0.00    +0.232 C 
BRANCH  19  20
ATOM     20  O   UNL     1      32.443 -11.642 -22.851  0.00  0.00    -0.470 OA
BRANCH  20  21
ATOM     21  C   UNL     1      32.241 -11.239 -21.556  0.00  0.00    +0.148 C 
ATOM     22  C   UNL     1      32.053  -9.895 -21.251  0.00  0.00    +0.143 C 
ATOM     23  C   UNL     1      31.848  -9.508 -19.928  0.00  0.00    +0.143 C 
ATOM     24  C   UNL     1      32.226 -12.200 -20.551  0.00  0.00    +0.037 C 
ATOM     25  C   UNL     1      31.831 -10.466 -18.915  0.00  0.00    +0.037 C 
ATOM     26  C   UNL     1      32.020 -11.813 -19.227  0.00  0.00    +0.006 C 
BRANCH  23  27
ATOM     27  O   UNL     1      31.660  -8.198 -19.601  0.00  0.00    -0.505 OA
ATOM     28  H   UNL     1      31.631  -7.938 -18.701  0.00  0.00    +0.292 HD
ENDBRANCH  23  27
BRANCH  22  30
ATOM     29  O   UNL     1      31.177  -8.757 -23.156  0.00  0.00    -0.245 OA
ATOM     30  C   UNL     1      32.069  -8.891 -22.311  0.00  0.00    +0.347 C 
BRANCH  30  31
ATOM     31  O   UNL     1      33.194  -8.120 -22.249  0.00  0.00    -0.441 OA
ATOM     32  C   UNL     1      34.136  -8.269 -23.317  0.00  0.00    +0.256 C 
ENDBRANCH  30  31
ENDBRANCH  22  30
ENDBRANCH  20  21
ENDBRANCH  19  20
ENDBRANCH  18  19
ENDBRANCH   3  17
TORSDOF 10
ENDMDL
MODEL 4
REMARK VINA RESULT:     -10.5      3.491     10.676
REMARK  Name = 447994
REMARK  10 active torsions:
REMARK  status: ('A' for Active; 'I' for Inactive)
REMARK    1  A    between atoms: C_2  and  C_10
REMARK    2  A    between atoms: C_3  and  C_17
REMARK    3  A    between atoms: C_12  and  C_14
REMARK    4  A    between atoms: C_14  and  O_15
REMARK    5  A    between atoms: C_18  and  C_19
REMARK    6  A    between atoms: C_19  and  O_20
REMARK    7  A    between atoms: O_20  and  C_21
REMARK    8  A    between atoms: C_22  and  C_30
REMARK    9  A    between atoms: C_23  and  O_27
REMARK   10  A    between atoms: C_30  and  O_31
REMARK                            x       y       z     vdW  Elec       q    Type
REMARK                         _______ _______ _______ _____ _____    ______ ____
ROOT
ATOM      1  F   UNL     1      32.753 -22.935 -17.165  0.00  0.00    -0.204 F 
ATOM      2  C   UNL     1      34.793 -22.001 -17.955  0.00  0.00    +0.065 C 
ATOM      3  C   UNL     1      34.754 -20.603 -19.925  0.00  0.00    +0.000 C 
ATOM      4  C   UNL     1      35.463 -21.213 -18.890  0.00  0.00    +0.005 C 
ATOM      5  C   UNL     1      33.413 -22.180 -18.055  0.00  0.00    +0.143 C 
ATOM      6  C   UNL     1      33.374 -20.782 -20.025  0.00  0.00    +0.002 C 
ATOM      7  C   UNL     1      32.703 -21.571 -19.090  0.00  0.00    +0.030 C 
ENDROOT
BRANCH   2  10
ATOM      8  O   UNL     1      34.970 -23.754 -16.380  0.00  0.00    -0.353 OA
ATOM      9  N   UNL     1      35.784 -24.246 -15.367  0.00  0.00    -0.070 NA
ATOM     10  C   UNL     1      35.529 -22.630 -16.886  0.00  0.00    +0.179 C 
ATOM     11  C   UNL     1      36.698 -22.352 -16.240  0.00  0.00    +0.069 C 
ATOM     12  C   UNL     1      36.809 -23.393 -15.302  0.00  0.00    +0.198 C 
BRANCH  12  14
ATOM     13  O   UNL     1      37.792 -23.320 -13.140  0.00  0.00    -0.243 OA
ATOM     14  C   UNL     1      37.857 -23.604 -14.346  0.00  0.00    +0.359 C 
BRANCH  14  15
ATOM     15  O   UNL     1      39.002 -24.166 -14.854  0.00  0.00    -0.476 OA
ATOM     16  H   UNL     1      39.136 -25.092 -14.797  0.00  0.00    +0.295 HD
ENDBRANCH  14  15
ENDBRANCH  12  14
ENDBRANCH   2  10
BRANCH   3  17
ATOM     17  C   UNL     1      35.453 -19.780 -20.900  0.00  0.00    -0.001 C 
ATOM     18  C   UNL     1      34.914 -18.763 -21.611  0.00  0.00    +0.021 C 
BRANCH  18  19
ATOM     19  C   UNL     1      35.678 -17.935 -22.593  0.00  0.00    +0.232 C 
BRANCH  19  20
ATOM     20  O   UNL     1      35.570 -16.569 -22.219  0.00  0.00    -0.470 OA
BRANCH  20  21
ATOM     21  C   UNL     1      34.749 -15.780 -22.983  0.00  0.00    +0.148 C 
ATOM     22  C   UNL     1      34.125 -14.665 -22.435  0.00  0.00    +0.143 C 
ATOM     23  C   UNL     1      33.295 -13.876 -23.230  0.00  0.00    +0.143 C 
ATOM     24  C   UNL     1      34.552 -16.116 -24.318  0.00  0.00    +0.037 C 
ATOM     25  C   UNL     1      33.093 -14.206 -24.570  0.00  0.00    +0.037 C 
ATOM     26  C   UNL     1      33.722 -15.326 -25.113  0.00  0.00    +0.006 C 
BRANCH  23  27
ATOM     27  O   UNL     1      32.673 -12.777 -22.719  0.00  0.00    -0.505 OA
ATOM     28  H   UNL     1      32.369 -12.101 -23.292  0.00  0.00    +0.292 HD
ENDBRANCH  23  27
BRANCH  22  30
ATOM     29  O   UNL     1      35.155 -13.479 -20.640  0.00  0.00    -0.245 OA
ATOM     30  C   UNL     1      34.338 -14.318 -21.033  0.00  0.00    +0.347 C 
BRANCH  30  31
ATOM     31  O   UNL     1      33.517 -15.039 -20.212  0.00  0.00    -0.441 OA
ATOM     32  C   UNL     1      32.403 -14.341 -19.644  0.00  0.00    +0.256 C 
ENDBRANCH  30  31
ENDBRANCH  22  30
ENDBRANCH  20  21
ENDBRANCH  19  20
ENDBRANCH  18  19
ENDBRANCH   3  17
TORSDOF 10
ENDMDL
MODEL 5
REMARK VINA RESULT:     -10.5      7.141      8.563
REMARK  Name = 447994
REMARK  10 active torsions:
REMARK  status: ('A' for Active; 'I' for Inactive)
REMARK    1  A    between atoms: C_2  and  C_10
REMARK    2  A    between atoms: C_3  and  C_17
REMARK    3  A    between atoms: C_12  and  C_14
REMARK    4  A    between atoms: C_14  and  O_15
REMARK    5  A    between atoms: C_18  and  C_19
REMARK    6  A    between atoms: C_19  and  O_20
REMARK    7  A    between atoms: O_20  and  C_21
REMARK    8  A    between atoms: C_22  and  C_30
REMARK    9  A    between atoms: C_23  and  O_27
REMARK   10  A    between atoms: C_30  and  O_31
REMARK                            x       y       z     vdW  Elec       q    Type
REMARK                         _______ _______ _______ _____ _____    ______ ____
ROOT
ATOM      1  F   UNL     1      28.433 -25.441 -13.910  0.00  0.00    -0.204 F 
ATOM      2  C   UNL     1      29.783 -23.703 -14.810  0.00  0.00    +0.065 C 
ATOM      3  C   UNL     1      32.159 -23.721 -14.376  0.00  0.00    +0.000 C 
ATOM      4  C   UNL     1      31.043 -23.126 -14.964  0.00  0.00    +0.005 C 
ATOM      5  C   UNL     1      29.638 -24.875 -14.067  0.00  0.00    +0.143 C 
ATOM      6  C   UNL     1      32.014 -24.892 -13.632  0.00  0.00    +0.002 C 
ATOM      7  C   UNL     1      30.753 -25.469 -13.478  0.00  0.00    +0.030 C 
ENDROOT
BRANCH   2  10
ATOM      8  O   UNL     1      27.580 -22.874 -14.594  0.00  0.00    -0.353 OA
ATOM      9  N   UNL     1      26.552 -22.277 -15.314  0.00  0.00    -0.070 NA
ATOM     10  C   UNL     1      28.631 -23.085 -15.421  0.00  0.00    +0.179 C 
ATOM     11  C   UNL     1      28.338 -22.644 -16.678  0.00  0.00    +0.069 C 
ATOM     12  C   UNL     1      27.028 -22.150 -16.556  0.00  0.00    +0.198 C 
BRANCH  12  14
ATOM     13  O   UNL     1      25.749 -22.162 -18.558  0.00  0.00    -0.243 OA
ATOM     14  C   UNL     1      26.214 -21.560 -17.577  0.00  0.00    +0.359 C 
BRANCH  14  15
ATOM     15  O   UNL     1      25.957 -20.221 -17.415  0.00  0.00    -0.476 OA
ATOM     16  H   UNL     1      25.205 -19.835 -17.819  0.00  0.00    +0.295 HD
ENDBRANCH  14  15
ENDBRANCH  12  14
ENDBRANCH   2  10
BRANCH   3  17
ATOM     17  C   UNL     1      33.474 -23.120 -14.536  0.00  0.00    -0.001 C 
ATOM     18  C   UNL     1      34.440 -23.540 -15.384  0.00  0.00    +0.021 C 
BRANCH  18  19
ATOM     19  C   UNL     1      35.774 -22.880 -15.524  0.00  0.00    +0.232 C 
BRANCH  19  20
ATOM     20  O   UNL     1      36.412 -22.869 -14.256  0.00  0.00    -0.470 OA
BRANCH  20  21
ATOM     21  C   UNL     1      37.136 -23.984 -13.917  0.00  0.00    +0.148 C 
ATOM     22  C   UNL     1      36.840 -24.698 -12.761  0.00  0.00    +0.143 C 
ATOM     23  C   UNL     1      37.588 -25.829 -12.437  0.00  0.00    +0.143 C 
ATOM     24  C   UNL     1      38.172 -24.388 -14.753  0.00  0.00    +0.037 C 
ATOM     25  C   UNL     1      38.628 -26.241 -13.270  0.00  0.00    +0.037 C 
ATOM     26  C   UNL     1      38.919 -25.520 -14.428  0.00  0.00    +0.006 C 
BRANCH  23  27
ATOM     27  O   UNL     1      37.319 -26.549 -11.311  0.00  0.00    -0.505 OA
ATOM     28  H   UNL     1      36.678 -26.241 -10.700  0.00  0.00    +0.292 HD
ENDBRANCH  23  27
BRANCH  22  30
ATOM     29  O   UNL     1      34.740 -24.940 -11.656  0.00  0.00    -0.245 OA
ATOM     30  C   UNL     1      35.751 -24.268 -11.889  0.00  0.00    +0.347 C 
BRANCH  30  31
ATOM     31  O   UNL     1      35.992 -23.031 -11.364  0.00  0.00    -0.441 OA
ATOM     32  C   UNL     1      37.297 -22.808 -10.817  0.00  0.00    +0.256 C 
ENDBRANCH  30  31
ENDBRANCH  22  30
ENDBRANCH  20  21
ENDBRANCH  19  20
ENDBRANCH  18  19
ENDBRANCH   3  17
TORSDOF 10
ENDMDL
MODEL 6
REMARK VINA RESULT:     -10.3      4.563     11.511
REMARK  Name = 447994
REMARK  10 active torsions:
REMARK  status: ('A' for Active; 'I' for Inactive)
REMARK    1  A    between atoms: C_2  and  C_10
REMARK    2  A    between atoms: C_3  and  C_17
REMARK    3  A    between atoms: C_12  and  C_14
REMARK    4  A    between atoms: C_14  and  O_15
REMARK    5  A    between atoms: C_18  and  C_19
REMARK    6  A    between atoms: C_19  and  O_20
REMARK    7  A    between atoms: O_20  and  C_21
REMARK    8  A    between atoms: C_22  and  C_30
REMARK    9  A    between atoms: C_23  and  O_27
REMARK   10  A    between atoms: C_30  and  O_31
REMARK                            x       y       z     vdW  Elec       q    Type
REMARK                         _______ _______ _______ _____ _____    ______ ____
ROOT
ATOM      1  F   UNL     1      34.629 -19.968 -23.648  0.00  0.00    -0.204 F 
ATOM      2  C   UNL     1      35.156 -18.065 -22.323  0.00  0.00    +0.065 C 
ATOM      3  C   UNL     1      34.756 -15.861 -23.228  0.00  0.00    +0.000 C 
ATOM      4  C   UNL     1      35.197 -16.677 -22.188  0.00  0.00    +0.005 C 
ATOM      5  C   UNL     1      34.674 -18.636 -23.501  0.00  0.00    +0.143 C 
ATOM      6  C   UNL     1      34.274 -16.433 -24.406  0.00  0.00    +0.002 C 
ATOM      7  C   UNL     1      34.233 -17.820 -24.543  0.00  0.00    +0.030 C 
ENDROOT
BRANCH   2  10
ATOM      8  O   UNL     1      36.757 -18.503 -20.641  0.00  0.00    -0.353 OA
ATOM      9  N   UNL     1      37.072 -19.401 -19.628  0.00  0.00    -0.070 NA
ATOM     10  C   UNL     1      35.613 -18.906 -21.244  0.00  0.00    +0.179 C 
ATOM     11  C   UNL     1      35.151 -20.050 -20.663  0.00  0.00    +0.069 C 
ATOM     12  C   UNL     1      36.099 -20.316 -19.661  0.00  0.00    +0.198 C 
BRANCH  12  14
ATOM     13  O   UNL     1      36.758 -21.439 -17.673  0.00  0.00    -0.243 OA
ATOM     14  C   UNL     1      36.112 -21.408 -18.732  0.00  0.00    +0.359 C 
BRANCH  14  15
ATOM     15  O   UNL     1      35.333 -22.482 -19.088  0.00  0.00    -0.476 OA
ATOM     16  H   UNL     1      34.451 -22.544 -18.779  0.00  0.00    +0.295 HD
ENDBRANCH  14  15
ENDBRANCH  12  14
ENDBRANCH   2  10
BRANCH   3  17
ATOM     17  C   UNL     1      34.798 -14.414 -23.087  0.00  0.00    -0.001 C 
ATOM     18  C   UNL     1      33.936 -13.537 -23.651  0.00  0.00    +0.021 C 
BRANCH  18  19
ATOM     19  C   UNL     1      34.011 -12.056 -23.464  0.00  0.00    +0.232 C 
BRANCH  19  20
ATOM     20  O   UNL     1      32.748 -11.588 -23.013  0.00  0.00    -0.470 OA
BRANCH  20  21
ATOM     21  C   UNL     1      32.714 -10.336 -22.456  0.00  0.00    +0.148 C 
ATOM     22  C   UNL     1      32.052 -10.111 -21.254  0.00  0.00    +0.143 C 
ATOM     23  C   UNL     1      32.031  -8.830 -20.706  0.00  0.00    +0.143 C 
ATOM     24  C   UNL     1      33.357  -9.293 -23.115  0.00  0.00    +0.037 C 
ATOM     25  C   UNL     1      32.673  -7.779 -21.361  0.00  0.00    +0.037 C 
ATOM     26  C   UNL     1      33.336  -8.012 -22.566  0.00  0.00    +0.006 C 
BRANCH  23  27
ATOM     27  O   UNL     1      31.390  -8.581 -19.528  0.00  0.00    -0.505 OA
ATOM     28  H   UNL     1      31.863  -8.219 -18.805  0.00  0.00    +0.292 HD
ENDBRANCH  23  27
BRANCH  22  30
ATOM     29  O   UNL     1      30.161 -11.410 -20.600  0.00  0.00    -0.245 OA
ATOM     30  C   UNL     1      31.380 -11.210 -20.568  0.00  0.00    +0.347 C 
BRANCH  30  31
ATOM     31  O   UNL     1      32.271 -11.989 -19.885  0.00  0.00    -0.441 OA
ATOM     32  C   UNL     1      32.253 -13.391 -20.177  0.00  0.00    +0.256 C 
ENDBRANCH  30  31
ENDBRANCH  22  30
ENDBRANCH  20  21
ENDBRANCH  19  20
ENDBRANCH  18  19
ENDBRANCH   3  17
TORSDOF 10
ENDMDL
MODEL 7
REMARK VINA RESULT:     -10.3      3.008      5.122
REMARK  Name = 447994
REMARK  10 active torsions:
REMARK  status: ('A' for Active; 'I' for Inactive)
REMARK    1  A    between atoms: C_2  and  C_10
REMARK    2  A    between atoms: C_3  and  C_17
REMARK    3  A    between atoms: C_12  and  C_14
REMARK    4  A    between atoms: C_14  and  O_15
REMARK    5  A    between atoms: C_18  and  C_19
REMARK    6  A    between atoms: C_19  and  O_20
REMARK    7  A    between atoms: O_20  and  C_21
REMARK    8  A    between atoms: C_22  and  C_30
REMARK    9  A    between atoms: C_23  and  O_27
REMARK   10  A    between atoms: C_30  and  O_31
REMARK                            x       y       z     vdW  Elec       q    Type
REMARK                         _______ _______ _______ _____ _____    ______ ____
ROOT
ATOM      1  F   UNL     1      33.454 -15.240 -25.349  0.00  0.00    -0.204 F 
ATOM      2  C   UNL     1      34.175 -15.267 -23.083  0.00  0.00    +0.065 C 
ATOM      3  C   UNL     1      35.323 -17.219 -22.243  0.00  0.00    +0.000 C 
ATOM      4  C   UNL     1      34.807 -15.940 -22.038  0.00  0.00    +0.005 C 
ATOM      5  C   UNL     1      34.058 -15.873 -24.334  0.00  0.00    +0.143 C 
ATOM      6  C   UNL     1      35.207 -17.826 -23.494  0.00  0.00    +0.002 C 
ATOM      7  C   UNL     1      34.574 -17.153 -24.540  0.00  0.00    +0.030 C 
ENDROOT
BRANCH   2  10
ATOM      8  O   UNL     1      34.227 -12.960 -23.591  0.00  0.00    -0.353 OA
ATOM      9  N   UNL     1      33.616 -11.750 -23.282  0.00  0.00    -0.070 NA
ATOM     10  C   UNL     1      33.643 -13.944 -22.867  0.00  0.00    +0.179 C 
ATOM     11  C   UNL     1      32.655 -13.429 -22.081  0.00  0.00    +0.069 C 
ATOM     12  C   UNL     1      32.681 -12.055 -22.378  0.00  0.00    +0.198 C 
BRANCH  12  14
ATOM     13  O   UNL     1      32.189  -9.842 -21.667  0.00  0.00    -0.243 OA
ATOM     14  C   UNL     1      31.847 -11.024 -21.835  0.00  0.00    +0.359 C 
BRANCH  14  15
ATOM     15  O   UNL     1      30.581 -11.424 -21.486  0.00  0.00    -0.476 OA
ATOM     16  H   UNL     1      29.952 -10.791 -21.197  0.00  0.00    +0.295 HD
ENDBRANCH  14  15
ENDBRANCH  12  14
ENDBRANCH   2  10
BRANCH   3  17
ATOM     17  C   UNL     1      35.983 -17.922 -21.154  0.00  0.00    -0.001 C 
ATOM     18  C   UNL     1      36.019 -19.263 -20.982  0.00  0.00    +0.021 C 
BRANCH  18  19
ATOM     19  C   UNL     1      36.724 -19.941 -19.851  0.00  0.00    +0.232 C 
BRANCH  19  20
ATOM     20  O   UNL     1      36.087 -21.185 -19.597  0.00  0.00    -0.470 OA
BRANCH  20  21
ATOM     21  C   UNL     1      36.033 -21.598 -18.291  0.00  0.00    +0.148 C 
ATOM     22  C   UNL     1      34.974 -22.374 -17.834  0.00  0.00    +0.143 C 
ATOM     23  C   UNL     1      34.940 -22.783 -16.503  0.00  0.00    +0.143 C 
ATOM     24  C   UNL     1      37.061 -21.227 -17.429  0.00  0.00    +0.037 C 
ATOM     25  C   UNL     1      35.966 -22.416 -15.633  0.00  0.00    +0.037 C 
ATOM     26  C   UNL     1      37.027 -21.638 -16.097  0.00  0.00    +0.006 C 
BRANCH  23  27
ATOM     27  O   UNL     1      33.914 -23.546 -16.029  0.00  0.00    -0.505 OA
ATOM     28  H   UNL     1      33.696 -23.526 -15.118  0.00  0.00    +0.292 HD
ENDBRANCH  23  27
BRANCH  22  30
ATOM     29  O   UNL     1      33.943 -23.740 -19.496  0.00  0.00    -0.245 OA
ATOM     30  C   UNL     1      33.899 -22.760 -18.744  0.00  0.00    +0.347 C 
BRANCH  30  31
ATOM     31  O   UNL     1      32.841 -21.901 -18.658  0.00  0.00    -0.441 OA
ATOM     32  C   UNL     1      32.791 -20.844 -19.623  0.00  0.00    +0.256 C 
ENDBRANCH  30  31
ENDBRANCH  22  30
ENDBRANCH  20  21
ENDBRANCH  19  20
ENDBRANCH  18  19
ENDBRANCH   3  17
TORSDOF 10
ENDMDL
MODEL 8
REMARK VINA RESULT:     -10.2      3.369     10.482
REMARK  Name = 447994
REMARK  10 active torsions:
REMARK  status: ('A' for Active; 'I' for Inactive)
REMARK    1  A    between atoms: C_2  and  C_10
REMARK    2  A    between atoms: C_3  and  C_17
REMARK    3  A    between atoms: C_12  and  C_14
REMARK    4  A    between atoms: C_14  and  O_15
REMARK    5  A    between atoms: C_18  and  C_19
REMARK    6  A    between atoms: C_19  and  O_20
REMARK    7  A    between atoms: O_20  and  C_21
REMARK    8  A    between atoms: C_22  and  C_30
REMARK    9  A    between atoms: C_23  and  O_27
REMARK   10  A    between atoms: C_30  and  O_31
REMARK                            x       y       z     vdW  Elec       q    Type
REMARK                         _______ _______ _______ _____ _____    ______ ____
ROOT
ATOM      1  F   UNL     1      35.690 -22.980 -16.405  0.00  0.00    -0.204 F 
ATOM      2  C   UNL     1      34.156 -22.051 -17.968  0.00  0.00    +0.065 C 
ATOM      3  C   UNL     1      35.014 -20.786 -19.839  0.00  0.00    +0.000 C 
ATOM      4  C   UNL     1      33.935 -21.309 -19.128  0.00  0.00    +0.005 C 
ATOM      5  C   UNL     1      35.459 -22.269 -17.518  0.00  0.00    +0.143 C 
ATOM      6  C   UNL     1      36.316 -21.005 -19.390  0.00  0.00    +0.002 C 
ATOM      7  C   UNL     1      36.539 -21.746 -18.229  0.00  0.00    +0.030 C 
ENDROOT
BRANCH   2  10
ATOM      8  O   UNL     1      31.824 -22.110 -17.596  0.00  0.00    -0.353 OA
ATOM      9  N   UNL     1      30.848 -22.715 -16.812  0.00  0.00    -0.070 NA
ATOM     10  C   UNL     1      33.037 -22.590 -17.235  0.00  0.00    +0.179 C 
ATOM     11  C   UNL     1      32.904 -23.503 -16.230  0.00  0.00    +0.069 C 
ATOM     12  C   UNL     1      31.518 -23.543 -16.005  0.00  0.00    +0.198 C 
BRANCH  12  14
ATOM     13  O   UNL     1      29.906 -25.150 -15.322  0.00  0.00    -0.243 OA
ATOM     14  C   UNL     1      30.807 -24.341 -15.049  0.00  0.00    +0.359 C 
BRANCH  14  15
ATOM     15  O   UNL     1      31.187 -24.159 -13.742  0.00  0.00    -0.476 OA
ATOM     16  H   UNL     1      31.225 -23.295 -13.380  0.00  0.00    +0.295 HD
ENDBRANCH  14  15
ENDBRANCH  12  14
ENDBRANCH   2  10
BRANCH   3  17
ATOM     17  C   UNL     1      34.783 -20.013 -21.049  0.00  0.00    -0.001 C 
ATOM     18  C   UNL     1      35.354 -18.825 -21.352  0.00  0.00    +0.021 C 
BRANCH  18  19
ATOM     19  C   UNL     1      35.095 -18.073 -22.618  0.00  0.00    +0.232 C 
BRANCH  19  20
ATOM     20  O   UNL     1      35.363 -16.697 -22.394  0.00  0.00    -0.470 OA
BRANCH  20  21
ATOM     21  C   UNL     1      34.607 -15.795 -23.098  0.00  0.00    +0.148 C 
ATOM     22  C   UNL     1      34.082 -14.668 -22.475  0.00  0.00    +0.143 C 
ATOM     23  C   UNL     1      33.317 -13.765 -23.210  0.00  0.00    +0.143 C 
ATOM     24  C   UNL     1      34.374 -16.029 -24.449  0.00  0.00    +0.037 C 
ATOM     25  C   UNL     1      33.080 -13.992 -24.565  0.00  0.00    +0.037 C 
ATOM     26  C   UNL     1      33.609 -15.124 -25.185  0.00  0.00    +0.006 C 
BRANCH  23  27
ATOM     27  O   UNL     1      32.792 -12.651 -22.625  0.00  0.00    -0.505 OA
ATOM     28  H   UNL     1      32.666 -11.871 -23.130  0.00  0.00    +0.292 HD
ENDBRANCH  23  27
BRANCH  22  30
ATOM     29  O   UNL     1      35.215 -13.684 -20.621  0.00  0.00    -0.245 OA
ATOM     30  C   UNL     1      34.331 -14.429 -21.056  0.00  0.00    +0.347 C 
BRANCH  30  31
ATOM     31  O   UNL     1      33.461 -15.133 -20.272  0.00  0.00    -0.441 OA
ATOM     32  C   UNL     1      32.405 -14.389 -19.656  0.00  0.00    +0.256 C 
ENDBRANCH  30  31
ENDBRANCH  22  30
ENDBRANCH  20  21
ENDBRANCH  19  20
ENDBRANCH  18  19
ENDBRANCH   3  17
TORSDOF 10
ENDMDL
MODEL 9
REMARK VINA RESULT:     -10.2      4.908     11.736
REMARK  Name = 447994
REMARK  10 active torsions:
REMARK  status: ('A' for Active; 'I' for Inactive)
REMARK    1  A    between atoms: C_2  and  C_10
REMARK    2  A    between atoms: C_3  and  C_17
REMARK    3  A    between atoms: C_12  and  C_14
REMARK    4  A    between atoms: C_14  and  O_15
REMARK    5  A    between atoms: C_18  and  C_19
REMARK    6  A    between atoms: C_19  and  O_20
REMARK    7  A    between atoms: O_20  and  C_21
REMARK    8  A    between atoms: C_22  and  C_30
REMARK    9  A    between atoms: C_23  and  O_27
REMARK   10  A    between atoms: C_30  and  O_31
REMARK                            x       y       z     vdW  Elec       q    Type
REMARK                         _______ _______ _______ _____ _____    ______ ____
ROOT
ATOM      1  F   UNL     1      35.719 -18.710 -23.552  0.00  0.00    -0.204 F 
ATOM      2  C   UNL     1      35.203 -17.578 -21.526  0.00  0.00    +0.065 C 
ATOM      3  C   UNL     1      34.461 -15.281 -21.625  0.00  0.00    +0.000 C 
ATOM      4  C   UNL     1      34.778 -16.417 -20.881  0.00  0.00    +0.005 C 
ATOM      5  C   UNL     1      35.312 -17.603 -22.917  0.00  0.00    +0.143 C 
ATOM      6  C   UNL     1      34.571 -15.306 -23.015  0.00  0.00    +0.002 C 
ATOM      7  C   UNL     1      34.996 -16.466 -23.661  0.00  0.00    +0.030 C 
ENDROOT
BRANCH   2  10
ATOM      8  O   UNL     1      36.771 -18.764 -20.215  0.00  0.00    -0.353 OA
ATOM      9  N   UNL     1      36.942 -19.945 -19.502  0.00  0.00    -0.070 NA
ATOM     10  C   UNL     1      35.528 -18.752 -20.753  0.00  0.00    +0.179 C 
ATOM     11  C   UNL     1      34.859 -19.892 -20.421  0.00  0.00    +0.069 C 
ATOM     12  C   UNL     1      35.787 -20.602 -19.640  0.00  0.00    +0.198 C 
BRANCH  12  14
ATOM     13  O   UNL     1      34.836 -22.768 -19.410  0.00  0.00    -0.243 OA
ATOM     14  C   UNL     1      35.614 -21.883 -19.019  0.00  0.00    +0.359 C 
BRANCH  14  15
ATOM     15  O   UNL     1      36.391 -22.099 -17.908  0.00  0.00    -0.476 OA
ATOM     16  H   UNL     1      37.313 -22.241 -18.000  0.00  0.00    +0.295 HD
ENDBRANCH  14  15
ENDBRANCH  12  14
ENDBRANCH   2  10
BRANCH   3  17
ATOM     17  C   UNL     1      34.017 -14.070 -20.952  0.00  0.00    -0.001 C 
ATOM     18  C   UNL     1      32.752 -13.800 -20.560  0.00  0.00    +0.021 C 
BRANCH  18  19
ATOM     19  C   UNL     1      32.346 -12.544 -19.857  0.00  0.00    +0.232 C 
BRANCH  19  20
ATOM     20  O   UNL     1      31.731 -11.674 -20.796  0.00  0.00    -0.470 OA
BRANCH  20  21
ATOM     21  C   UNL     1      31.843 -10.328 -20.560  0.00  0.00    +0.148 C 
ATOM     22  C   UNL     1      32.248  -9.461 -21.568  0.00  0.00    +0.143 C 
ATOM     23  C   UNL     1      32.354  -8.096 -21.306  0.00  0.00    +0.143 C 
ATOM     24  C   UNL     1      31.543  -9.845 -19.290  0.00  0.00    +0.037 C 
ATOM     25  C   UNL     1      32.054  -7.604 -20.036  0.00  0.00    +0.037 C 
ATOM     26  C   UNL     1      31.648  -8.479 -19.028  0.00  0.00    +0.006 C 
BRANCH  23  27
ATOM     27  O   UNL     1      32.747  -7.223 -22.277  0.00  0.00    -0.505 OA
ATOM     28  H   UNL     1      33.600  -6.836 -22.242  0.00  0.00    +0.292 HD
ENDBRANCH  23  27
BRANCH  22  30
ATOM     29  O   UNL     1      32.013  -9.593 -23.938  0.00  0.00    -0.245 OA
ATOM     30  C   UNL     1      32.561  -9.975 -22.898  0.00  0.00    +0.347 C 
BRANCH  30  31
ATOM     31  O   UNL     1      33.537 -10.929 -22.847  0.00  0.00    -0.441 OA
ATOM     32  C   UNL     1      33.636 -11.808 -23.972  0.00  0.00    +0.256 C 
ENDBRANCH  30  31
ENDBRANCH  22  30
ENDBRANCH  20  21
ENDBRANCH  19  20
ENDBRANCH  18  19
ENDBRANCH   3  17
TORSDOF 10
ENDMDL
