MODEL 1
REMARK VINA RESULT:     -11.8      0.000      0.000
REMARK  Name = 10050566
REMARK  9 active torsions:
REMARK  status: ('A' for Active; 'I' for Inactive)
REMARK    1  A    between atoms: C_2  and  N_11
REMARK    2  A    between atoms: C_3  and  O_22
REMARK    3  A    between atoms: C_12  and  C_14
REMARK    4  A    between atoms: C_19  and  O_20
REMARK    5  A    between atoms: O_22  and  C_24
REMARK    6  A    between atoms: C_24  and  C_25
REMARK    7  A    between atoms: C_30  and  C_32
REMARK    8  A    between atoms: C_32  and  C_33
REMARK    9  A    between atoms: C_34  and  O_39
REMARK                            x       y       z     vdW  Elec       q    Type
REMARK                         _______ _______ _______ _____ _____    ______ ____
ROOT
ATOM      1  N   UNL     1      34.960 -25.062 -13.839  0.00  0.00    +0.385 N 
ATOM      2  C   UNL     1      33.046 -24.237 -15.222  0.00  0.00    +0.091 C 
ATOM      3  C   UNL     1      33.819 -23.035 -15.795  0.00  0.00    +0.185 C 
ATOM      4  C   UNL     1      34.570 -22.162 -14.782  0.00  0.00    +0.043 C 
ATOM      5  C   UNL     1      33.526 -24.779 -13.872  0.00  0.00    -0.058 C 
ATOM      6  C   UNL     1      35.875 -22.754 -14.245  0.00  0.00    -0.020 C 
ATOM      7  C   UNL     1      35.715 -23.933 -13.293  0.00  0.00    -0.082 C 
ATOM      8  H   UNL     1      35.284 -25.249 -14.788  0.00  0.00    -0.084 HD
ATOM      9  H   UNL     1      35.114 -25.871 -13.237  0.00  0.00    -0.084 HD
ENDROOT
BRANCH   2  11
ATOM     10  O   UNL     1      31.506 -22.702 -17.095  0.00  0.00    -0.270 OA
ATOM     11  N   UNL     1      31.637 -23.907 -15.119  0.00  0.00    -0.301 N 
ATOM     12  C   UNL     1      30.986 -23.158 -16.081  0.00  0.00    +0.246 C 
ATOM     13  H   UNL     1      31.129 -24.227 -14.339  0.00  0.00    +0.150 HD
BRANCH  12  14
ATOM     14  C   UNL     1      29.550 -22.885 -15.816  0.00  0.00    +0.054 C 
ATOM     15  C   UNL     1      29.177 -22.441 -14.563  0.00  0.00    +0.008 C 
ATOM     16  C   UNL     1      28.634 -23.083 -16.828  0.00  0.00    +0.008 C 
ATOM     17  C   UNL     1      27.829 -22.184 -14.313  0.00  0.00    +0.037 C 
ATOM     18  C   UNL     1      27.287 -22.825 -16.579  0.00  0.00    +0.037 C 
ATOM     19  C   UNL     1      26.884 -22.375 -15.321  0.00  0.00    +0.134 C 
BRANCH  19  20
ATOM     20  O   UNL     1      25.569 -22.122 -15.078  0.00  0.00    -0.506 OA
ATOM     21  H   UNL     1      25.149 -21.394 -15.492  0.00  0.00    +0.292 HD
ENDBRANCH  19  20
ENDBRANCH  12  14
ENDBRANCH   2  11
BRANCH   3  22
ATOM     22  O   UNL     1      34.719 -23.490 -16.810  0.00  0.00    -0.448 OA
BRANCH  22  24
ATOM     23  O   UNL     1      33.508 -24.369 -18.558  0.00  0.00    -0.245 OA
ATOM     24  C   UNL     1      34.221 -23.505 -18.071  0.00  0.00    +0.341 C 
BRANCH  24  25
ATOM     25  C   UNL     1      34.664 -22.300 -18.815  0.00  0.00    +0.076 C 
ATOM     26  C   UNL     1      33.722 -21.547 -19.487  0.00  0.00    +0.007 C 
ATOM     27  C   UNL     1      36.004 -21.969 -18.813  0.00  0.00    +0.007 C 
ATOM     28  C   UNL     1      34.139 -20.415 -20.188  0.00  0.00    +0.003 C 
ATOM     29  C   UNL     1      36.421 -20.837 -19.512  0.00  0.00    +0.003 C 
ATOM     30  C   UNL     1      35.488 -20.059 -20.200  0.00  0.00    +0.039 C 
BRANCH  30  32
ATOM     31  O   UNL     1      36.847 -18.179 -20.493  0.00  0.00    -0.286 OA
ATOM     32  C   UNL     1      35.923 -18.880 -20.930  0.00  0.00    +0.198 C 
BRANCH  32  33
ATOM     33  C   UNL     1      35.291 -18.457 -22.217  0.00  0.00    +0.073 C 
ATOM     34  C   UNL     1      35.097 -17.118 -22.471  0.00  0.00    +0.137 C 
ATOM     35  C   UNL     1      34.927 -19.443 -23.106  0.00  0.00    +0.006 C 
ATOM     36  C   UNL     1      34.507 -16.745 -23.677  0.00  0.00    +0.037 C 
ATOM     37  C   UNL     1      34.337 -19.070 -24.314  0.00  0.00    +0.000 C 
ATOM     38  C   UNL     1      34.126 -17.721 -24.599  0.00  0.00    +0.003 C 
BRANCH  34  39
ATOM     39  O   UNL     1      35.462 -16.151 -21.583  0.00  0.00    -0.505 OA
ATOM     40  H   UNL     1      36.296 -16.195 -21.157  0.00  0.00    +0.292 HD
ENDBRANCH  34  39
ENDBRANCH  32  33
ENDBRANCH  30  32
ENDBRANCH  24  25
ENDBRANCH  22  24
ENDBRANCH   3  22
TORSDOF 9
ENDMDL
MODEL 2
REMARK VINA RESULT:     -11.4      1.330      1.980
REMARK  Name = 10050566
REMARK  9 active torsions:
REMARK  status: ('A' for Active; 'I' for Inactive)
REMARK    1  A    between atoms: C_2  and  N_11
REMARK    2  A    between atoms: C_3  and  O_22
REMARK    3  A    between atoms: C_12  and  C_14
REMARK    4  A    between atoms: C_19  and  O_20
REMARK    5  A    between atoms: O_22  and  C_24
REMARK    6  A    between atoms: C_24  and  C_25
REMARK    7  A    between atoms: C_30  and  C_32
REMARK    8  A    between atoms: C_32  and  C_33
REMARK    9  A    between atoms: C_34  and  O_39
REMARK                            x       y       z     vdW  Elec       q    Type
REMARK                         _______ _______ _______ _____ _____    ______ ____
ROOT
ATOM      1  N   UNL     1      35.889 -24.998 -14.994  0.00  0.00    +0.385 N 
ATOM      2  C   UNL     1      33.815 -23.961 -15.932  0.00  0.00    +0.091 C 
ATOM      3  C   UNL     1      34.492 -22.621 -16.273  0.00  0.00    +0.185 C 
ATOM      4  C   UNL     1      35.331 -21.979 -15.162  0.00  0.00    +0.043 C 
ATOM      5  C   UNL     1      34.454 -24.786 -14.810  0.00  0.00    -0.058 C 
ATOM      6  C   UNL     1      36.701 -22.618 -14.921  0.00  0.00    -0.020 C 
ATOM      7  C   UNL     1      36.675 -23.997 -14.271  0.00  0.00    -0.082 C 
ATOM      8  H   UNL     1      36.109 -24.937 -15.988  0.00  0.00    -0.084 HD
ATOM      9  H   UNL     1      36.127 -25.919 -14.625  0.00  0.00    -0.084 HD
ENDROOT
BRANCH   2  11
ATOM     10  O   UNL     1      31.933 -22.422 -17.456  0.00  0.00    -0.270 OA
ATOM     11  N   UNL     1      32.419 -23.734 -15.608  0.00  0.00    -0.301 N 
ATOM     12  C   UNL     1      31.593 -22.974 -16.413  0.00  0.00    +0.246 C 
ATOM     13  H   UNL     1      32.049 -24.135 -14.789  0.00  0.00    +0.150 HD
BRANCH  12  14
ATOM     14  C   UNL     1      30.197 -22.815 -15.929  0.00  0.00    +0.054 C 
ATOM     15  C   UNL     1      29.157 -23.092 -16.793  0.00  0.00    +0.008 C 
ATOM     16  C   UNL     1      29.984 -22.394 -14.633  0.00  0.00    +0.008 C 
ATOM     17  C   UNL     1      27.847 -22.943 -16.340  0.00  0.00    +0.037 C 
ATOM     18  C   UNL     1      28.674 -22.246 -14.179  0.00  0.00    +0.037 C 
ATOM     19  C   UNL     1      27.605 -22.520 -15.033  0.00  0.00    +0.134 C 
BRANCH  19  20
ATOM     20  O   UNL     1      26.326 -22.377 -14.589  0.00  0.00    -0.506 OA
ATOM     21  H   UNL     1      26.142 -22.422 -13.671  0.00  0.00    +0.292 HD
ENDBRANCH  19  20
ENDBRANCH  12  14
ENDBRANCH   2  11
BRANCH   3  22
ATOM     22  O   UNL     1      35.284 -22.777 -17.455  0.00  0.00    -0.448 OA
BRANCH  22  24
ATOM     23  O   UNL     1      33.774 -23.544 -19.013  0.00  0.00    -0.245 OA
ATOM     24  C   UNL     1      34.602 -22.734 -18.626  0.00  0.00    +0.341 C 
BRANCH  24  25
ATOM     25  C   UNL     1      34.999 -21.538 -19.411  0.00  0.00    +0.076 C 
ATOM     26  C   UNL     1      34.044 -20.888 -20.166  0.00  0.00    +0.007 C 
ATOM     27  C   UNL     1      36.312 -21.114 -19.362  0.00  0.00    +0.007 C 
ATOM     28  C   UNL     1      34.419 -19.765 -20.904  0.00  0.00    +0.003 C 
ATOM     29  C   UNL     1      36.686 -19.992 -20.100  0.00  0.00    +0.003 C 
ATOM     30  C   UNL     1      35.739 -19.316 -20.872  0.00  0.00    +0.039 C 
BRANCH  30  32
ATOM     31  O   UNL     1      37.112 -18.193 -22.395  0.00  0.00    -0.286 OA
ATOM     32  C   UNL     1      36.129 -18.147 -21.641  0.00  0.00    +0.198 C 
BRANCH  32  33
ATOM     33  C   UNL     1      35.384 -16.853 -21.565  0.00  0.00    +0.073 C 
ATOM     34  C   UNL     1      35.042 -16.198 -22.725  0.00  0.00    +0.137 C 
ATOM     35  C   UNL     1      35.066 -16.369 -20.316  0.00  0.00    +0.006 C 
ATOM     36  C   UNL     1      34.346 -14.993 -22.632  0.00  0.00    +0.037 C 
ATOM     37  C   UNL     1      34.370 -15.165 -20.222  0.00  0.00    +0.000 C 
ATOM     38  C   UNL     1      34.011 -14.476 -21.381  0.00  0.00    +0.003 C 
BRANCH  34  39
ATOM     39  O   UNL     1      35.361 -16.686 -23.957  0.00  0.00    -0.505 OA
ATOM     40  H   UNL     1      35.777 -17.523 -24.037  0.00  0.00    +0.292 HD
ENDBRANCH  34  39
ENDBRANCH  32  33
ENDBRANCH  30  32
ENDBRANCH  24  25
ENDBRANCH  22  24
ENDBRANCH   3  22
TORSDOF 9
ENDMDL
MODEL 3
REMARK VINA RESULT:     -11.0      6.939     12.867
REMARK  Name = 10050566
REMARK  9 active torsions:
REMARK  status: ('A' for Active; 'I' for Inactive)
REMARK    1  A    between atoms: C_2  and  N_11
REMARK    2  A    between atoms: C_3  and  O_22
REMARK    3  A    between atoms: C_12  and  C_14
REMARK    4  A    between atoms: C_19  and  O_20
REMARK    5  A    between atoms: O_22  and  C_24
REMARK    6  A    between atoms: C_24  and  C_25
REMARK    7  A    between atoms: C_30  and  C_32
REMARK    8  A    between atoms: C_32  and  C_33
REMARK    9  A    between atoms: C_34  and  O_39
REMARK                            x       y       z     vdW  Elec       q    Type
REMARK                         _______ _______ _______ _____ _____    ______ ____
ROOT
ATOM      1  N   UNL     1      30.287 -11.523 -21.242  0.00  0.00    +0.385 N 
ATOM      2  C   UNL     1      31.985 -10.995 -23.002  0.00  0.00    +0.091 C 
ATOM      3  C   UNL     1      33.050 -11.951 -22.434  0.00  0.00    +0.185 C 
ATOM      4  C   UNL     1      33.329 -11.845 -20.930  0.00  0.00    +0.043 C 
ATOM      5  C   UNL     1      30.942 -10.466 -22.013  0.00  0.00    -0.058 C 
ATOM      6  C   UNL     1      32.270 -12.473 -20.020  0.00  0.00    -0.020 C 
ATOM      7  C   UNL     1      30.942 -11.727 -19.950  0.00  0.00    -0.082 C 
ATOM      8  H   UNL     1      30.325 -12.393 -21.774  0.00  0.00    -0.084 HD
ATOM      9  H   UNL     1      29.321 -11.244 -21.071  0.00  0.00    -0.084 HD
ENDROOT
BRANCH   2  11
ATOM     10  O   UNL     1      32.809  -8.551 -21.745  0.00  0.00    -0.270 OA
ATOM     11  N   UNL     1      32.633  -9.868 -23.645  0.00  0.00    -0.301 N 
ATOM     12  C   UNL     1      32.992  -8.731 -22.946  0.00  0.00    +0.246 C 
ATOM     13  H   UNL     1      32.823  -9.913 -24.610  0.00  0.00    +0.150 HD
BRANCH  12  14
ATOM     14  C   UNL     1      33.622  -7.654 -23.753  0.00  0.00    +0.054 C 
ATOM     15  C   UNL     1      34.904  -7.251 -23.440  0.00  0.00    +0.008 C 
ATOM     16  C   UNL     1      32.907  -7.092 -24.790  0.00  0.00    +0.008 C 
ATOM     17  C   UNL     1      35.497  -6.241 -24.197  0.00  0.00    +0.037 C 
ATOM     18  C   UNL     1      33.500  -6.082 -25.548  0.00  0.00    +0.037 C 
ATOM     19  C   UNL     1      34.795  -5.657 -25.251  0.00  0.00    +0.134 C 
BRANCH  19  20
ATOM     20  O   UNL     1      35.373  -4.673 -25.992  0.00  0.00    -0.506 OA
ATOM     21  H   UNL     1      36.209  -4.818 -26.391  0.00  0.00    +0.292 HD
ENDBRANCH  19  20
ENDBRANCH  12  14
ENDBRANCH   2  11
BRANCH   3  22
ATOM     22  O   UNL     1      32.708 -13.298 -22.774  0.00  0.00    -0.448 OA
BRANCH  22  24
ATOM     23  O   UNL     1      33.711 -13.531 -24.832  0.00  0.00    -0.245 OA
ATOM     24  C   UNL     1      33.517 -13.896 -23.682  0.00  0.00    +0.341 C 
BRANCH  24  25
ATOM     25  C   UNL     1      34.161 -15.095 -23.089  0.00  0.00    +0.076 C 
ATOM     26  C   UNL     1      34.449 -15.098 -21.739  0.00  0.00    +0.007 C 
ATOM     27  C   UNL     1      34.452 -16.169 -23.905  0.00  0.00    +0.007 C 
ATOM     28  C   UNL     1      35.055 -16.225 -21.182  0.00  0.00    +0.003 C 
ATOM     29  C   UNL     1      35.057 -17.295 -23.349  0.00  0.00    +0.003 C 
ATOM     30  C   UNL     1      35.359 -17.323 -21.986  0.00  0.00    +0.039 C 
BRANCH  30  32
ATOM     31  O   UNL     1      37.214 -18.665 -21.511  0.00  0.00    -0.286 OA
ATOM     32  C   UNL     1      35.990 -18.497 -21.405  0.00  0.00    +0.198 C 
BRANCH  32  33
ATOM     33  C   UNL     1      35.216 -19.540 -20.668  0.00  0.00    +0.073 C 
ATOM     34  C   UNL     1      35.877 -20.419 -19.840  0.00  0.00    +0.137 C 
ATOM     35  C   UNL     1      33.852 -19.576 -20.853  0.00  0.00    +0.006 C 
ATOM     36  C   UNL     1      35.135 -21.384 -19.162  0.00  0.00    +0.037 C 
ATOM     37  C   UNL     1      33.110 -20.542 -20.174  0.00  0.00    +0.000 C 
ATOM     38  C   UNL     1      33.751 -21.446 -19.329  0.00  0.00    +0.003 C 
BRANCH  34  39
ATOM     39  O   UNL     1      37.227 -20.375 -19.665  0.00  0.00    -0.505 OA
ATOM     40  H   UNL     1      37.800 -20.598 -20.373  0.00  0.00    +0.292 HD
ENDBRANCH  34  39
ENDBRANCH  32  33
ENDBRANCH  30  32
ENDBRANCH  24  25
ENDBRANCH  22  24
ENDBRANCH   3  22
TORSDOF 9
ENDMDL
MODEL 4
REMARK VINA RESULT:     -10.0     10.088     16.629
REMARK  Name = 10050566
REMARK  9 active torsions:
REMARK  status: ('A' for Active; 'I' for Inactive)
REMARK    1  A    between atoms: C_2  and  N_11
REMARK    2  A    between atoms: C_3  and  O_22
REMARK    3  A    between atoms: C_12  and  C_14
REMARK    4  A    between atoms: C_19  and  O_20
REMARK    5  A    between atoms: O_22  and  C_24
REMARK    6  A    between atoms: C_24  and  C_25
REMARK    7  A    between atoms: C_30  and  C_32
REMARK    8  A    between atoms: C_32  and  C_33
REMARK    9  A    between atoms: C_34  and  O_39
REMARK                            x       y       z     vdW  Elec       q    Type
REMARK                         _______ _______ _______ _____ _____    ______ ____
ROOT
ATOM      1  N   UNL     1      30.456  -4.961 -23.713  0.00  0.00    +0.385 N 
ATOM      2  C   UNL     1      32.596  -6.043 -24.426  0.00  0.00    +0.091 C 
ATOM      3  C   UNL     1      32.900  -6.637 -23.039  0.00  0.00    +0.185 C 
ATOM      4  C   UNL     1      32.792  -5.679 -21.848  0.00  0.00    +0.043 C 
ATOM      5  C   UNL     1      31.705  -4.797 -24.458  0.00  0.00    -0.058 C 
ATOM      6  C   UNL     1      31.367  -5.345 -21.400  0.00  0.00    -0.020 C 
ATOM      7  C   UNL     1      30.577  -4.450 -22.348  0.00  0.00    -0.082 C 
ATOM      8  H   UNL     1      30.220  -5.953 -23.676  0.00  0.00    -0.084 HD
ATOM      9  H   UNL     1      29.727  -4.431 -24.190  0.00  0.00    -0.084 HD
ENDROOT
BRANCH   2  11
ATOM     10  O   UNL     1      33.077  -6.222 -27.250  0.00  0.00    -0.270 OA
ATOM     11  N   UNL     1      33.839  -5.744 -25.113  0.00  0.00    -0.301 N 
ATOM     12  C   UNL     1      33.968  -5.863 -26.484  0.00  0.00    +0.246 C 
ATOM     13  H   UNL     1      34.616  -5.448 -24.585  0.00  0.00    +0.150 HD
BRANCH  12  14
ATOM     14  C   UNL     1      35.312  -5.546 -27.031  0.00  0.00    +0.054 C 
ATOM     15  C   UNL     1      35.741  -6.205 -28.165  0.00  0.00    +0.008 C 
ATOM     16  C   UNL     1      36.089  -4.605 -26.389  0.00  0.00    +0.008 C 
ATOM     17  C   UNL     1      37.003  -5.909 -28.679  0.00  0.00    +0.037 C 
ATOM     18  C   UNL     1      37.351  -4.307 -26.903  0.00  0.00    +0.037 C 
ATOM     19  C   UNL     1      37.808  -4.960 -28.049  0.00  0.00    +0.134 C 
BRANCH  19  20
ATOM     20  O   UNL     1      39.038  -4.668 -28.552  0.00  0.00    -0.506 OA
ATOM     21  H   UNL     1      39.221  -3.806 -28.871  0.00  0.00    +0.292 HD
ENDBRANCH  19  20
ENDBRANCH  12  14
ENDBRANCH   2  11
BRANCH   3  22
ATOM     22  O   UNL     1      32.069  -7.782 -22.823  0.00  0.00    -0.448 OA
BRANCH  22  24
ATOM     23  O   UNL     1      32.648  -8.351 -20.669  0.00  0.00    -0.245 OA
ATOM     24  C   UNL     1      32.482  -8.629 -21.847  0.00  0.00    +0.341 C 
BRANCH  24  25
ATOM     25  C   UNL     1      32.718  -9.983 -22.406  0.00  0.00    +0.076 C 
ATOM     26  C   UNL     1      31.904 -11.022 -22.003  0.00  0.00    +0.007 C 
ATOM     27  C   UNL     1      33.745 -10.163 -23.310  0.00  0.00    +0.007 C 
ATOM     28  C   UNL     1      32.127 -12.296 -22.527  0.00  0.00    +0.003 C 
ATOM     29  C   UNL     1      33.968 -11.435 -23.834  0.00  0.00    +0.003 C 
ATOM     30  C   UNL     1      33.158 -12.503 -23.443  0.00  0.00    +0.039 C 
BRANCH  30  32
ATOM     31  O   UNL     1      33.008 -14.110 -25.135  0.00  0.00    -0.286 OA
ATOM     32  C   UNL     1      33.391 -13.830 -23.989  0.00  0.00    +0.198 C 
BRANCH  32  33
ATOM     33  C   UNL     1      34.086 -14.903 -23.216  0.00  0.00    +0.073 C 
ATOM     34  C   UNL     1      34.506 -16.043 -23.863  0.00  0.00    +0.137 C 
ATOM     35  C   UNL     1      34.280 -14.699 -21.868  0.00  0.00    +0.006 C 
ATOM     36  C   UNL     1      35.152 -17.032 -23.123  0.00  0.00    +0.037 C 
ATOM     37  C   UNL     1      34.928 -15.688 -21.128  0.00  0.00    +0.000 C 
ATOM     38  C   UNL     1      35.363 -16.854 -21.756  0.00  0.00    +0.003 C 
BRANCH  34  39
ATOM     39  O   UNL     1      34.308 -16.235 -25.198  0.00  0.00    -0.505 OA
ATOM     40  H   UNL     1      34.929 -15.901 -25.816  0.00  0.00    +0.292 HD
ENDBRANCH  34  39
ENDBRANCH  32  33
ENDBRANCH  30  32
ENDBRANCH  24  25
ENDBRANCH  22  24
ENDBRANCH   3  22
TORSDOF 9
ENDMDL
MODEL 5
REMARK VINA RESULT:      -9.9     10.225     16.705
REMARK  Name = 10050566
REMARK  9 active torsions:
REMARK  status: ('A' for Active; 'I' for Inactive)
REMARK    1  A    between atoms: C_2  and  N_11
REMARK    2  A    between atoms: C_3  and  O_22
REMARK    3  A    between atoms: C_12  and  C_14
REMARK    4  A    between atoms: C_19  and  O_20
REMARK    5  A    between atoms: O_22  and  C_24
REMARK    6  A    between atoms: C_24  and  C_25
REMARK    7  A    between atoms: C_30  and  C_32
REMARK    8  A    between atoms: C_32  and  C_33
REMARK    9  A    between atoms: C_34  and  O_39
REMARK                            x       y       z     vdW  Elec       q    Type
REMARK                         _______ _______ _______ _____ _____    ______ ____
ROOT
ATOM      1  N   UNL     1      30.713  -4.365 -23.179  0.00  0.00    +0.385 N 
ATOM      2  C   UNL     1      32.583  -5.627 -24.260  0.00  0.00    +0.091 C 
ATOM      3  C   UNL     1      32.830  -6.542 -23.047  0.00  0.00    +0.185 C 
ATOM      4  C   UNL     1      32.952  -5.850 -21.685  0.00  0.00    +0.043 C 
ATOM      5  C   UNL     1      31.938  -4.267 -23.973  0.00  0.00    -0.058 C 
ATOM      6  C   UNL     1      31.633  -5.377 -21.068  0.00  0.00    -0.020 C 
ATOM      7  C   UNL     1      30.984  -4.180 -21.753  0.00  0.00    -0.082 C 
ATOM      8  H   UNL     1      30.298  -5.287 -23.321  0.00  0.00    -0.084 HD
ATOM      9  H   UNL     1      30.075  -3.629 -23.482  0.00  0.00    -0.084 HD
ENDROOT
BRANCH   2  11
ATOM     10  O   UNL     1      33.029  -5.962 -27.075  0.00  0.00    -0.270 OA
ATOM     11  N   UNL     1      33.830  -5.411 -24.970  0.00  0.00    -0.301 N 
ATOM     12  C   UNL     1      33.940  -5.601 -26.335  0.00  0.00    +0.246 C 
ATOM     13  H   UNL     1      34.622  -5.120 -24.464  0.00  0.00    +0.150 HD
BRANCH  12  14
ATOM     14  C   UNL     1      35.291  -5.363 -26.907  0.00  0.00    +0.054 C 
ATOM     15  C   UNL     1      36.057  -4.334 -26.400  0.00  0.00    +0.008 C 
ATOM     16  C   UNL     1      35.735  -6.178 -27.928  0.00  0.00    +0.008 C 
ATOM     17  C   UNL     1      37.325  -4.111 -26.937  0.00  0.00    +0.037 C 
ATOM     18  C   UNL     1      37.003  -5.956 -28.464  0.00  0.00    +0.037 C 
ATOM     19  C   UNL     1      37.798  -4.922 -27.969  0.00  0.00    +0.134 C 
BRANCH  19  20
ATOM     20  O   UNL     1      39.036  -4.706 -28.491  0.00  0.00    -0.506 OA
ATOM     21  H   UNL     1      39.127  -4.244 -29.302  0.00  0.00    +0.292 HD
ENDBRANCH  19  20
ENDBRANCH  12  14
ENDBRANCH   2  11
BRANCH   3  22
ATOM     22  O   UNL     1      31.811  -7.545 -22.996  0.00  0.00    -0.448 OA
BRANCH  22  24
ATOM     23  O   UNL     1      31.644  -8.285 -25.169  0.00  0.00    -0.245 OA
ATOM     24  C   UNL     1      31.856  -8.476 -23.982  0.00  0.00    +0.341 C 
BRANCH  24  25
ATOM     25  C   UNL     1      32.205  -9.805 -23.421  0.00  0.00    +0.076 C 
ATOM     26  C   UNL     1      31.351 -10.388 -22.506  0.00  0.00    +0.007 C 
ATOM     27  C   UNL     1      33.372 -10.417 -23.829  0.00  0.00    +0.007 C 
ATOM     28  C   UNL     1      31.679 -11.636 -21.977  0.00  0.00    +0.003 C 
ATOM     29  C   UNL     1      33.700 -11.665 -23.302  0.00  0.00    +0.003 C 
ATOM     30  C   UNL     1      32.853 -12.276 -22.375  0.00  0.00    +0.039 C 
BRANCH  30  32
ATOM     31  O   UNL     1      32.996 -13.820 -20.625  0.00  0.00    -0.286 OA
ATOM     32  C   UNL     1      33.196 -13.577 -21.824  0.00  0.00    +0.198 C 
BRANCH  32  33
ATOM     33  C   UNL     1      33.794 -14.665 -22.655  0.00  0.00    +0.073 C 
ATOM     34  C   UNL     1      34.665 -15.560 -22.077  0.00  0.00    +0.137 C 
ATOM     35  C   UNL     1      33.440 -14.725 -23.984  0.00  0.00    +0.006 C 
ATOM     36  C   UNL     1      35.212 -16.568 -22.869  0.00  0.00    +0.037 C 
ATOM     37  C   UNL     1      33.987 -15.734 -24.777  0.00  0.00    +0.000 C 
ATOM     38  C   UNL     1      34.873 -16.655 -24.219  0.00  0.00    +0.003 C 
BRANCH  34  39
ATOM     39  O   UNL     1      35.008 -15.492 -20.759  0.00  0.00    -0.505 OA
ATOM     40  H   UNL     1      34.787 -16.194 -20.180  0.00  0.00    +0.292 HD
ENDBRANCH  34  39
ENDBRANCH  32  33
ENDBRANCH  30  32
ENDBRANCH  24  25
ENDBRANCH  22  24
ENDBRANCH   3  22
TORSDOF 9
ENDMDL
MODEL 6
REMARK VINA RESULT:      -9.8      2.630      8.321
REMARK  Name = 10050566
REMARK  9 active torsions:
REMARK  status: ('A' for Active; 'I' for Inactive)
REMARK    1  A    between atoms: C_2  and  N_11
REMARK    2  A    between atoms: C_3  and  O_22
REMARK    3  A    between atoms: C_12  and  C_14
REMARK    4  A    between atoms: C_19  and  O_20
REMARK    5  A    between atoms: O_22  and  C_24
REMARK    6  A    between atoms: C_24  and  C_25
REMARK    7  A    between atoms: C_30  and  C_32
REMARK    8  A    between atoms: C_32  and  C_33
REMARK    9  A    between atoms: C_34  and  O_39
REMARK                            x       y       z     vdW  Elec       q    Type
REMARK                         _______ _______ _______ _____ _____    ______ ____
ROOT
ATOM      1  N   UNL     1      29.329 -24.803 -15.837  0.00  0.00    +0.385 N 
ATOM      2  C   UNL     1      31.431 -23.446 -15.840  0.00  0.00    +0.091 C 
ATOM      3  C   UNL     1      31.063 -22.651 -14.574  0.00  0.00    +0.185 C 
ATOM      4  C   UNL     1      29.660 -22.037 -14.538  0.00  0.00    +0.043 C 
ATOM      5  C   UNL     1      30.265 -24.024 -16.648  0.00  0.00    -0.058 C 
ATOM      6  C   UNL     1      28.520 -23.019 -14.259  0.00  0.00    -0.020 C 
ATOM      7  C   UNL     1      28.199 -23.987 -15.393  0.00  0.00    -0.082 C 
ATOM      8  H   UNL     1      29.820 -25.164 -15.019  0.00  0.00    -0.084 HD
ATOM      9  H   UNL     1      28.968 -25.566 -16.409  0.00  0.00    -0.084 HD
ENDROOT
BRANCH   2  11
ATOM     10  O   UNL     1      33.493 -24.355 -17.616  0.00  0.00    -0.270 OA
ATOM     11  N   UNL     1      32.243 -22.623 -16.716  0.00  0.00    -0.301 N 
ATOM     12  C   UNL     1      33.215 -23.162 -17.537  0.00  0.00    +0.246 C 
ATOM     13  H   UNL     1      32.097 -21.649 -16.725  0.00  0.00    +0.150 HD
BRANCH  12  14
ATOM     14  C   UNL     1      33.979 -22.183 -18.353  0.00  0.00    +0.054 C 
ATOM     15  C   UNL     1      33.289 -21.351 -19.211  0.00  0.00    +0.008 C 
ATOM     16  C   UNL     1      35.352 -22.137 -18.229  0.00  0.00    +0.008 C 
ATOM     17  C   UNL     1      34.005 -20.431 -19.978  0.00  0.00    +0.037 C 
ATOM     18  C   UNL     1      36.067 -21.217 -18.994  0.00  0.00    +0.037 C 
ATOM     19  C   UNL     1      35.394 -20.364 -19.869  0.00  0.00    +0.134 C 
BRANCH  19  20
ATOM     20  O   UNL     1      36.093 -19.466 -20.615  0.00  0.00    -0.506 OA
ATOM     21  H   UNL     1      36.062 -18.554 -20.400  0.00  0.00    +0.292 HD
ENDBRANCH  19  20
ENDBRANCH  12  14
ENDBRANCH   2  11
BRANCH   3  22
ATOM     22  O   UNL     1      31.266 -23.475 -13.422  0.00  0.00    -0.448 OA
BRANCH  22  24
ATOM     23  O   UNL     1      31.491 -25.703 -13.953  0.00  0.00    -0.245 OA
ATOM     24  C   UNL     1      31.960 -24.620 -13.635  0.00  0.00    +0.341 C 
BRANCH  24  25
ATOM     25  C   UNL     1      33.411 -24.391 -13.426  0.00  0.00    +0.076 C 
ATOM     26  C   UNL     1      33.839 -23.891 -12.213  0.00  0.00    +0.007 C 
ATOM     27  C   UNL     1      34.288 -24.683 -14.451  0.00  0.00    +0.007 C 
ATOM     28  C   UNL     1      35.204 -23.674 -12.017  0.00  0.00    +0.003 C 
ATOM     29  C   UNL     1      35.651 -24.467 -14.256  0.00  0.00    +0.003 C 
ATOM     30  C   UNL     1      36.110 -23.962 -13.038  0.00  0.00    +0.039 C 
BRANCH  30  32
ATOM     31  O   UNL     1      37.920 -22.795 -12.126  0.00  0.00    -0.286 OA
ATOM     32  C   UNL     1      37.531 -23.736 -12.834  0.00  0.00    +0.198 C 
BRANCH  32  33
ATOM     33  C   UNL     1      38.577 -24.606 -13.453  0.00  0.00    +0.073 C 
ATOM     34  C   UNL     1      39.076 -24.288 -14.696  0.00  0.00    +0.137 C 
ATOM     35  C   UNL     1      39.003 -25.704 -12.740  0.00  0.00    +0.006 C 
ATOM     36  C   UNL     1      40.051 -25.111 -15.256  0.00  0.00    +0.037 C 
ATOM     37  C   UNL     1      39.979 -26.528 -13.300  0.00  0.00    +0.000 C 
ATOM     38  C   UNL     1      40.502 -26.232 -14.558  0.00  0.00    +0.003 C 
BRANCH  34  39
ATOM     39  O   UNL     1      38.647 -23.198 -15.393  0.00  0.00    -0.505 OA
ATOM     40  H   UNL     1      38.078 -22.574 -14.986  0.00  0.00    +0.292 HD
ENDBRANCH  34  39
ENDBRANCH  32  33
ENDBRANCH  30  32
ENDBRANCH  24  25
ENDBRANCH  22  24
ENDBRANCH   3  22
TORSDOF 9
ENDMDL
MODEL 7
REMARK VINA RESULT:      -9.7      7.234     13.144
REMARK  Name = 10050566
REMARK  9 active torsions:
REMARK  status: ('A' for Active; 'I' for Inactive)
REMARK    1  A    between atoms: C_2  and  N_11
REMARK    2  A    between atoms: C_3  and  O_22
REMARK    3  A    between atoms: C_12  and  C_14
REMARK    4  A    between atoms: C_19  and  O_20
REMARK    5  A    between atoms: O_22  and  C_24
REMARK    6  A    between atoms: C_24  and  C_25
REMARK    7  A    between atoms: C_30  and  C_32
REMARK    8  A    between atoms: C_32  and  C_33
REMARK    9  A    between atoms: C_34  and  O_39
REMARK                            x       y       z     vdW  Elec       q    Type
REMARK                         _______ _______ _______ _____ _____    ______ ____
ROOT
ATOM      1  N   UNL     1      30.238 -11.463 -21.684  0.00  0.00    +0.385 N 
ATOM      2  C   UNL     1      32.217 -10.761 -23.044  0.00  0.00    +0.091 C 
ATOM      3  C   UNL     1      33.251 -11.354 -22.069  0.00  0.00    +0.185 C 
ATOM      4  C   UNL     1      33.073 -11.000 -20.588  0.00  0.00    +0.043 C 
ATOM      5  C   UNL     1      30.856 -10.382 -22.452  0.00  0.00    -0.058 C 
ATOM      6  C   UNL     1      31.951 -11.749 -19.864  0.00  0.00    -0.020 C 
ATOM      7  C   UNL     1      30.535 -11.343 -20.257  0.00  0.00    -0.082 C 
ATOM      8  H   UNL     1      30.595 -12.357 -22.023  0.00  0.00    -0.084 HD
ATOM      9  H   UNL     1      29.227 -11.406 -21.808  0.00  0.00    -0.084 HD
ENDROOT
BRANCH   2  11
ATOM     10  O   UNL     1      32.565  -8.149 -21.906  0.00  0.00    -0.270 OA
ATOM     11  N   UNL     1      32.780  -9.597 -23.703  0.00  0.00    -0.301 N 
ATOM     12  C   UNL     1      32.904  -8.379 -23.064  0.00  0.00    +0.246 C 
ATOM     13  H   UNL     1      33.082  -9.678 -24.637  0.00  0.00    +0.150 HD
BRANCH  12  14
ATOM     14  C   UNL     1      33.474  -7.279 -23.885  0.00  0.00    +0.054 C 
ATOM     15  C   UNL     1      34.810  -6.966 -23.742  0.00  0.00    +0.008 C 
ATOM     16  C   UNL     1      32.651  -6.606 -24.763  0.00  0.00    +0.008 C 
ATOM     17  C   UNL     1      35.346  -5.934 -24.512  0.00  0.00    +0.037 C 
ATOM     18  C   UNL     1      33.186  -5.575 -25.534  0.00  0.00    +0.037 C 
ATOM     19  C   UNL     1      34.535  -5.239 -25.408  0.00  0.00    +0.134 C 
BRANCH  19  20
ATOM     20  O   UNL     1      35.058  -4.234 -26.161  0.00  0.00    -0.506 OA
ATOM     21  H   UNL     1      35.084  -3.360 -25.823  0.00  0.00    +0.292 HD
ENDBRANCH  19  20
ENDBRANCH  12  14
ENDBRANCH   2  11
BRANCH   3  22
ATOM     22  O   UNL     1      33.293 -12.775 -22.231  0.00  0.00    -0.448 OA
BRANCH  22  24
ATOM     23  O   UNL     1      34.155 -12.557 -24.354  0.00  0.00    -0.245 OA
ATOM     24  C   UNL     1      33.903 -13.218 -23.358  0.00  0.00    +0.341 C 
BRANCH  24  25
ATOM     25  C   UNL     1      34.238 -14.658 -23.231  0.00  0.00    +0.076 C 
ATOM     26  C   UNL     1      34.139 -15.467 -24.345  0.00  0.00    +0.007 C 
ATOM     27  C   UNL     1      34.637 -15.145 -22.003  0.00  0.00    +0.007 C 
ATOM     28  C   UNL     1      34.453 -16.821 -24.226  0.00  0.00    +0.003 C 
ATOM     29  C   UNL     1      34.951 -16.499 -21.883  0.00  0.00    +0.003 C 
ATOM     30  C   UNL     1      34.859 -17.337 -22.995  0.00  0.00    +0.039 C 
BRANCH  30  32
ATOM     31  O   UNL     1      35.147 -19.489 -23.864  0.00  0.00    -0.286 OA
ATOM     32  C   UNL     1      35.185 -18.748 -22.870  0.00  0.00    +0.198 C 
BRANCH  32  33
ATOM     33  C   UNL     1      35.574 -19.368 -21.567  0.00  0.00    +0.073 C 
ATOM     34  C   UNL     1      36.856 -19.206 -21.094  0.00  0.00    +0.137 C 
ATOM     35  C   UNL     1      34.615 -20.083 -20.886  0.00  0.00    +0.006 C 
ATOM     36  C   UNL     1      37.198 -19.791 -19.876  0.00  0.00    +0.037 C 
ATOM     37  C   UNL     1      34.957 -20.668 -19.667  0.00  0.00    +0.000 C 
ATOM     38  C   UNL     1      36.249 -20.523 -19.163  0.00  0.00    +0.003 C 
BRANCH  34  39
ATOM     39  O   UNL     1      37.798 -18.495 -21.777  0.00  0.00    -0.505 OA
ATOM     40  H   UNL     1      38.064 -18.770 -22.633  0.00  0.00    +0.292 HD
ENDBRANCH  34  39
ENDBRANCH  32  33
ENDBRANCH  30  32
ENDBRANCH  24  25
ENDBRANCH  22  24
ENDBRANCH   3  22
TORSDOF 9
ENDMDL
MODEL 8
REMARK VINA RESULT:      -9.4      2.684      7.911
REMARK  Name = 10050566
REMARK  9 active torsions:
REMARK  status: ('A' for Active; 'I' for Inactive)
REMARK    1  A    between atoms: C_2  and  N_11
REMARK    2  A    between atoms: C_3  and  O_22
REMARK    3  A    between atoms: C_12  and  C_14
REMARK    4  A    between atoms: C_19  and  O_20
REMARK    5  A    between atoms: O_22  and  C_24
REMARK    6  A    between atoms: C_24  and  C_25
REMARK    7  A    between atoms: C_30  and  C_32
REMARK    8  A    between atoms: C_32  and  C_33
REMARK    9  A    between atoms: C_34  and  O_39
REMARK                            x       y       z     vdW  Elec       q    Type
REMARK                         _______ _______ _______ _____ _____    ______ ____
ROOT
ATOM      1  N   UNL     1      39.480 -24.710 -14.121  0.00  0.00    +0.385 N 
ATOM      2  C   UNL     1      37.358 -23.637 -14.896  0.00  0.00    +0.091 C 
ATOM      3  C   UNL     1      36.444 -24.685 -14.238  0.00  0.00    +0.185 C 
ATOM      4  C   UNL     1      36.793 -26.155 -14.499  0.00  0.00    +0.043 C 
ATOM      5  C   UNL     1      38.780 -24.089 -15.244  0.00  0.00    -0.058 C 
ATOM      6  C   UNL     1      37.990 -26.695 -13.712  0.00  0.00    -0.020 C 
ATOM      7  C   UNL     1      39.352 -26.168 -14.150  0.00  0.00    -0.082 C 
ATOM      8  H   UNL     1      39.084 -24.360 -13.248  0.00  0.00    -0.084 HD
ATOM      9  H   UNL     1      40.470 -24.475 -14.191  0.00  0.00    -0.084 HD
ENDROOT
BRANCH   2  11
ATOM     10  O   UNL     1      37.831 -21.083 -16.117  0.00  0.00    -0.270 OA
ATOM     11  N   UNL     1      36.725 -23.121 -16.096  0.00  0.00    -0.301 N 
ATOM     12  C   UNL     1      37.025 -21.871 -16.605  0.00  0.00    +0.246 C 
ATOM     13  H   UNL     1      36.061 -23.678 -16.562  0.00  0.00    +0.150 HD
BRANCH  12  14
ATOM     14  C   UNL     1      36.272 -21.479 -17.824  0.00  0.00    +0.054 C 
ATOM     15  C   UNL     1      34.996 -21.972 -18.005  0.00  0.00    +0.008 C 
ATOM     16  C   UNL     1      36.871 -20.635 -18.736  0.00  0.00    +0.008 C 
ATOM     17  C   UNL     1      34.288 -21.604 -19.149  0.00  0.00    +0.037 C 
ATOM     18  C   UNL     1      36.164 -20.266 -19.879  0.00  0.00    +0.037 C 
ATOM     19  C   UNL     1      34.872 -20.751 -20.086  0.00  0.00    +0.134 C 
BRANCH  19  20
ATOM     20  O   UNL     1      34.181 -20.390 -21.201  0.00  0.00    -0.506 OA
ATOM     21  H   UNL     1      34.234 -19.510 -21.520  0.00  0.00    +0.292 HD
ENDBRANCH  19  20
ENDBRANCH  12  14
ENDBRANCH   2  11
BRANCH   3  22
ATOM     22  O   UNL     1      36.380 -24.441 -12.830  0.00  0.00    -0.448 OA
BRANCH  22  24
ATOM     23  O   UNL     1      34.902 -24.937 -11.136  0.00  0.00    -0.245 OA
ATOM     24  C   UNL     1      35.150 -24.557 -12.270  0.00  0.00    +0.341 C 
BRANCH  24  25
ATOM     25  C   UNL     1      34.101 -24.155 -13.241  0.00  0.00    +0.076 C 
ATOM     26  C   UNL     1      33.022 -24.992 -13.441  0.00  0.00    +0.007 C 
ATOM     27  C   UNL     1      34.239 -22.958 -13.914  0.00  0.00    +0.007 C 
ATOM     28  C   UNL     1      32.037 -24.614 -14.355  0.00  0.00    +0.003 C 
ATOM     29  C   UNL     1      33.254 -22.580 -14.826  0.00  0.00    +0.003 C 
ATOM     30  C   UNL     1      32.152 -23.409 -15.047  0.00  0.00    +0.039 C 
BRANCH  30  32
ATOM     31  O   UNL     1      31.414 -22.840 -17.192  0.00  0.00    -0.286 OA
ATOM     32  C   UNL     1      31.127 -23.015 -15.999  0.00  0.00    +0.198 C 
BRANCH  32  33
ATOM     33  C   UNL     1      29.702 -22.804 -15.599  0.00  0.00    +0.073 C 
ATOM     34  C   UNL     1      28.693 -23.234 -16.429  0.00  0.00    +0.137 C 
ATOM     35  C   UNL     1      29.461 -22.178 -14.396  0.00  0.00    +0.006 C 
ATOM     36  C   UNL     1      27.371 -23.028 -16.036  0.00  0.00    +0.037 C 
ATOM     37  C   UNL     1      28.138 -21.972 -14.003  0.00  0.00    +0.000 C 
ATOM     38  C   UNL     1      27.094 -22.396 -14.824  0.00  0.00    +0.003 C 
BRANCH  34  39
ATOM     39  O   UNL     1      28.944 -23.853 -17.617  0.00  0.00    -0.505 OA
ATOM     40  H   UNL     1      29.706 -24.389 -17.715  0.00  0.00    +0.292 HD
ENDBRANCH  34  39
ENDBRANCH  32  33
ENDBRANCH  30  32
ENDBRANCH  24  25
ENDBRANCH  22  24
ENDBRANCH   3  22
TORSDOF 9
ENDMDL
MODEL 9
REMARK VINA RESULT:      -9.4      5.396      9.089
REMARK  Name = 10050566
REMARK  9 active torsions:
REMARK  status: ('A' for Active; 'I' for Inactive)
REMARK    1  A    between atoms: C_2  and  N_11
REMARK    2  A    between atoms: C_3  and  O_22
REMARK    3  A    between atoms: C_12  and  C_14
REMARK    4  A    between atoms: C_19  and  O_20
REMARK    5  A    between atoms: O_22  and  C_24
REMARK    6  A    between atoms: C_24  and  C_25
REMARK    7  A    between atoms: C_30  and  C_32
REMARK    8  A    between atoms: C_32  and  C_33
REMARK    9  A    between atoms: C_34  and  O_39
REMARK                            x       y       z     vdW  Elec       q    Type
REMARK                         _______ _______ _______ _____ _____    ______ ____
ROOT
ATOM      1  N   UNL     1      33.499 -18.970 -23.516  0.00  0.00    +0.385 N 
ATOM      2  C   UNL     1      34.211 -18.907 -21.118  0.00  0.00    +0.091 C 
ATOM      3  C   UNL     1      35.043 -17.621 -21.272  0.00  0.00    +0.185 C 
ATOM      4  C   UNL     1      36.026 -17.582 -22.448  0.00  0.00    +0.043 C 
ATOM      5  C   UNL     1      34.005 -19.746 -22.383  0.00  0.00    -0.058 C 
ATOM      6  C   UNL     1      35.397 -17.347 -23.823  0.00  0.00    -0.020 C 
ATOM      7  C   UNL     1      34.588 -18.514 -24.380  0.00  0.00    -0.082 C 
ATOM      8  H   UNL     1      32.994 -18.157 -23.162  0.00  0.00    -0.084 HD
ATOM      9  H   UNL     1      32.884 -19.569 -24.065  0.00  0.00    -0.084 HD
ENDROOT
BRANCH   2  11
ATOM     10  O   UNL     1      32.955 -21.127 -19.805  0.00  0.00    -0.270 OA
ATOM     11  N   UNL     1      34.795 -19.747 -20.091  0.00  0.00    -0.301 N 
ATOM     12  C   UNL     1      34.103 -20.798 -19.519  0.00  0.00    +0.246 C 
ATOM     13  H   UNL     1      35.715 -19.564 -19.791  0.00  0.00    +0.150 HD
BRANCH  12  14
ATOM     14  C   UNL     1      34.831 -21.546 -18.462  0.00  0.00    +0.054 C 
ATOM     15  C   UNL     1      34.139 -22.464 -17.699  0.00  0.00    +0.008 C 
ATOM     16  C   UNL     1      36.175 -21.299 -18.275  0.00  0.00    +0.008 C 
ATOM     17  C   UNL     1      34.822 -23.167 -16.707  0.00  0.00    +0.037 C 
ATOM     18  C   UNL     1      36.858 -22.002 -17.283  0.00  0.00    +0.037 C 
ATOM     19  C   UNL     1      36.181 -22.936 -16.499  0.00  0.00    +0.134 C 
BRANCH  19  20
ATOM     20  O   UNL     1      36.849 -23.623 -15.532  0.00  0.00    -0.506 OA
ATOM     21  H   UNL     1      36.592 -24.499 -15.319  0.00  0.00    +0.292 HD
ENDBRANCH  19  20
ENDBRANCH  12  14
ENDBRANCH   2  11
BRANCH   3  22
ATOM     22  O   UNL     1      34.166 -16.493 -21.331  0.00  0.00    -0.448 OA
BRANCH  22  24
ATOM     23  O   UNL     1      35.145 -15.589 -19.455  0.00  0.00    -0.245 OA
ATOM     24  C   UNL     1      34.414 -15.510 -20.430  0.00  0.00    +0.341 C 
BRANCH  24  25
ATOM     25  C   UNL     1      33.658 -14.283 -20.784  0.00  0.00    +0.076 C 
ATOM     26  C   UNL     1      33.957 -13.633 -21.964  0.00  0.00    +0.007 C 
ATOM     27  C   UNL     1      32.681 -13.829 -19.922  0.00  0.00    +0.007 C 
ATOM     28  C   UNL     1      33.247 -12.478 -22.296  0.00  0.00    +0.003 C 
ATOM     29  C   UNL     1      31.971 -12.675 -20.253  0.00  0.00    +0.003 C 
ATOM     30  C   UNL     1      32.254 -11.999 -21.441  0.00  0.00    +0.039 C 
BRANCH  30  32
ATOM     31  O   UNL     1      30.414 -10.879 -22.350  0.00  0.00    -0.286 OA
ATOM     32  C   UNL     1      31.515 -10.796 -21.787  0.00  0.00    +0.198 C 
BRANCH  32  33
ATOM     33  C   UNL     1      32.032  -9.426 -21.490  0.00  0.00    +0.073 C 
ATOM     34  C   UNL     1      32.571  -8.669 -22.505  0.00  0.00    +0.137 C 
ATOM     35  C   UNL     1      31.943  -8.975 -20.192  0.00  0.00    +0.006 C 
ATOM     36  C   UNL     1      33.047  -7.393 -22.206  0.00  0.00    +0.037 C 
ATOM     37  C   UNL     1      32.419  -7.699 -19.893  0.00  0.00    +0.000 C 
ATOM     38  C   UNL     1      32.972  -6.908 -20.900  0.00  0.00    +0.003 C 
BRANCH  34  39
ATOM     39  O   UNL     1      32.653  -9.125 -23.786  0.00  0.00    -0.505 OA
ATOM     40  H   UNL     1      32.248  -9.937 -24.022  0.00  0.00    +0.292 HD
ENDBRANCH  34  39
ENDBRANCH  32  33
ENDBRANCH  30  32
ENDBRANCH  24  25
ENDBRANCH  22  24
ENDBRANCH   3  22
TORSDOF 9
ENDMDL
