MODEL 1
REMARK VINA RESULT:     -11.2      0.000      0.000
REMARK  Name = 656948
REMARK  8 active torsions:
REMARK  status: ('A' for Active; 'I' for Inactive)
REMARK    1  A    between atoms: N_1  and  C_3
REMARK    2  A    between atoms: N_1  and  C_18
REMARK    3  A    between atoms: C_6  and  C_10
REMARK    4  A    between atoms: C_10  and  O_11
REMARK    5  A    between atoms: O_11  and  P_12
REMARK    6  A    between atoms: P_12  and  O_14
REMARK    7  A    between atoms: P_12  and  O_16
REMARK    8  A    between atoms: C_18  and  C_25
REMARK                            x       y       z     vdW  Elec       q    Type
REMARK                         _______ _______ _______ _____ _____    ______ ____
ROOT
ATOM      1  N   UNL     1      35.953 -19.263 -21.426  0.00  0.00    -0.327 N 
ATOM      2  H   UNL     1      36.850 -18.926 -21.198  0.00  0.00    +0.147 HD
ENDROOT
BRANCH   1   3
ATOM      3  C   UNL     1      35.321 -20.100 -20.525  0.00  0.00    +0.045 C 
ATOM      4  C   UNL     1      36.063 -20.952 -19.684  0.00  0.00    +0.015 C 
ATOM      5  C   UNL     1      33.917 -20.126 -20.422  0.00  0.00    +0.015 C 
ATOM      6  C   UNL     1      34.033 -21.806 -18.690  0.00  0.00    +0.076 C 
ATOM      7  C   UNL     1      35.426 -21.796 -18.775  0.00  0.00    +0.008 C 
ATOM      8  C   UNL     1      33.279 -20.971 -19.513  0.00  0.00    +0.008 C 
BRANCH   6  10
ATOM      9  O   UNL     1      32.151 -22.708 -17.526  0.00  0.00    -0.245 OA
ATOM     10  C   UNL     1      33.369 -22.686 -17.742  0.00  0.00    +0.348 C 
BRANCH  10  11
ATOM     11  O   UNL     1      34.252 -23.503 -17.100  0.00  0.00    -0.368 OA
BRANCH  11  12
ATOM     12  P   UNL     1      34.524 -23.532 -15.506  0.00  0.00    +0.530 P 
ATOM     13  O   UNL     1      35.171 -22.294 -14.954  0.00  0.00    -0.216 OA
BRANCH  12  14
ATOM     14  O   UNL     1      35.352 -24.902 -15.286  0.00  0.00    -0.293 OA
ATOM     15  H   UNL     1      34.766 -25.579 -14.913  0.00  0.00    +0.223 HD
ENDBRANCH  12  14
BRANCH  12  16
ATOM     16  O   UNL     1      33.067 -23.872 -14.895  0.00  0.00    -0.293 OA
ATOM     17  H   UNL     1      32.477 -24.159 -15.609  0.00  0.00    +0.223 HD
ENDBRANCH  12  16
ENDBRANCH  11  12
ENDBRANCH  10  11
ENDBRANCH   6  10
ENDBRANCH   1   3
BRANCH   1  18
ATOM     18  C   UNL     1      35.369 -18.855 -22.687  0.00  0.00    +0.145 C 
BRANCH  18  25
ATOM     19  O   UNL     1      33.340 -15.694 -25.889  0.00  0.00    -0.206 OA
ATOM     20  N   UNL     1      34.478 -16.886 -23.787  0.00  0.00    -0.391 NA
ATOM     21  N   UNL     1      34.159 -13.411 -22.711  0.00  0.00    -0.259 N 
ATOM     22  N   UNL     1      35.061 -15.305 -21.541  0.00  0.00    -0.246 NA
ATOM     23  N   UNL     1      33.286 -13.610 -24.918  0.00  0.00    -0.300 NA
ATOM     24  N   UNL     1      33.310 -11.563 -23.775  0.00  0.00    -0.320 N 
ATOM     25  C   UNL     1      35.049 -17.402 -22.683  0.00  0.00    +0.132 C 
ATOM     26  C   UNL     1      34.207 -15.565 -23.736  0.00  0.00    +0.255 C 
ATOM     27  C   UNL     1      34.488 -14.768 -22.639  0.00  0.00    +0.173 C 
ATOM     28  C   UNL     1      35.336 -16.625 -21.581  0.00  0.00    +0.183 C 
ATOM     29  C   UNL     1      33.578 -14.963 -24.933  0.00  0.00    +0.240 C 
ATOM     30  C   UNL     1      33.574 -12.908 -23.852  0.00  0.00    +0.249 C 
ATOM     31  H   UNL     1      34.345 -12.817 -21.948  0.00  0.00    +0.157 HD
ATOM     32  H   UNL     1      33.540 -11.062 -22.959  0.00  0.00    +0.146 HD
ATOM     33  H   UNL     1      32.892 -11.099 -24.537  0.00  0.00    +0.146 HD
ENDBRANCH  18  25
ENDBRANCH   1  18
TORSDOF 8
ENDMDL
MODEL 2
REMARK VINA RESULT:     -11.0      1.257      1.997
REMARK  Name = 656948
REMARK  8 active torsions:
REMARK  status: ('A' for Active; 'I' for Inactive)
REMARK    1  A    between atoms: N_1  and  C_3
REMARK    2  A    between atoms: N_1  and  C_18
REMARK    3  A    between atoms: C_6  and  C_10
REMARK    4  A    between atoms: C_10  and  O_11
REMARK    5  A    between atoms: O_11  and  P_12
REMARK    6  A    between atoms: P_12  and  O_14
REMARK    7  A    between atoms: P_12  and  O_16
REMARK    8  A    between atoms: C_18  and  C_25
REMARK                            x       y       z     vdW  Elec       q    Type
REMARK                         _______ _______ _______ _____ _____    ______ ____
ROOT
ATOM      1  N   UNL     1      35.675 -19.050 -21.459  0.00  0.00    -0.327 N 
ATOM      2  H   UNL     1      36.330 -18.395 -21.124  0.00  0.00    +0.147 HD
ENDROOT
BRANCH   1   3
ATOM      3  C   UNL     1      35.118 -19.937 -20.556  0.00  0.00    +0.045 C 
ATOM      4  C   UNL     1      33.720 -20.038 -20.408  0.00  0.00    +0.015 C 
ATOM      5  C   UNL     1      35.931 -20.765 -19.758  0.00  0.00    +0.015 C 
ATOM      6  C   UNL     1      33.983 -21.744 -18.717  0.00  0.00    +0.076 C 
ATOM      7  C   UNL     1      33.159 -20.933 -19.498  0.00  0.00    +0.008 C 
ATOM      8  C   UNL     1      35.368 -21.659 -18.847  0.00  0.00    +0.008 C 
BRANCH   6  10
ATOM      9  O   UNL     1      32.187 -22.790 -17.538  0.00  0.00    -0.245 OA
ATOM     10  C   UNL     1      33.397 -22.677 -17.768  0.00  0.00    +0.348 C 
BRANCH  10  11
ATOM     11  O   UNL     1      34.345 -23.430 -17.142  0.00  0.00    -0.368 OA
BRANCH  11  12
ATOM     12  P   UNL     1      34.607 -23.484 -15.547  0.00  0.00    +0.530 P 
ATOM     13  O   UNL     1      35.250 -22.255 -14.972  0.00  0.00    -0.216 OA
BRANCH  12  14
ATOM     14  O   UNL     1      35.434 -24.858 -15.343  0.00  0.00    -0.293 OA
ATOM     15  H   UNL     1      34.853 -25.531 -14.954  0.00  0.00    +0.223 HD
ENDBRANCH  12  14
BRANCH  12  16
ATOM     16  O   UNL     1      33.146 -23.834 -14.951  0.00  0.00    -0.293 OA
ATOM     17  H   UNL     1      32.708 -23.016 -14.670  0.00  0.00    +0.223 HD
ENDBRANCH  12  16
ENDBRANCH  11  12
ENDBRANCH  10  11
ENDBRANCH   6  10
ENDBRANCH   1   3
BRANCH   1  18
ATOM     18  C   UNL     1      35.348 -19.032 -22.870  0.00  0.00    +0.145 C 
BRANCH  18  25
ATOM     19  O   UNL     1      34.927 -14.620 -20.695  0.00  0.00    -0.206 OA
ATOM     20  N   UNL     1      34.931 -16.693 -22.380  0.00  0.00    -0.391 NA
ATOM     21  N   UNL     1      33.678 -13.944 -24.432  0.00  0.00    -0.259 N 
ATOM     22  N   UNL     1      34.060 -16.244 -25.011  0.00  0.00    -0.246 NA
ATOM     23  N   UNL     1      34.118 -13.122 -22.240  0.00  0.00    -0.300 NA
ATOM     24  N   UNL     1      33.292 -11.736 -23.941  0.00  0.00    -0.320 N 
ATOM     25  C   UNL     1      34.901 -17.678 -23.297  0.00  0.00    +0.132 C 
ATOM     26  C   UNL     1      34.517 -15.485 -22.814  0.00  0.00    +0.255 C 
ATOM     27  C   UNL     1      34.083 -15.242 -24.107  0.00  0.00    +0.173 C 
ATOM     28  C   UNL     1      34.472 -17.457 -24.588  0.00  0.00    +0.183 C 
ATOM     29  C   UNL     1      34.536 -14.377 -21.833  0.00  0.00    +0.240 C 
ATOM     30  C   UNL     1      33.718 -12.954 -23.475  0.00  0.00    +0.249 C 
ATOM     31  H   UNL     1      33.364 -13.739 -25.343  0.00  0.00    +0.157 HD
ATOM     32  H   UNL     1      32.996 -11.642 -24.876  0.00  0.00    +0.146 HD
ATOM     33  H   UNL     1      33.279 -10.956 -23.340  0.00  0.00    +0.146 HD
ENDBRANCH  18  25
ENDBRANCH   1  18
TORSDOF 8
ENDMDL
MODEL 3
REMARK VINA RESULT:     -10.8      6.250     10.801
REMARK  Name = 656948
REMARK  8 active torsions:
REMARK  status: ('A' for Active; 'I' for Inactive)
REMARK    1  A    between atoms: N_1  and  C_3
REMARK    2  A    between atoms: N_1  and  C_18
REMARK    3  A    between atoms: C_6  and  C_10
REMARK    4  A    between atoms: C_10  and  O_11
REMARK    5  A    between atoms: O_11  and  P_12
REMARK    6  A    between atoms: P_12  and  O_14
REMARK    7  A    between atoms: P_12  and  O_16
REMARK    8  A    between atoms: C_18  and  C_25
REMARK                            x       y       z     vdW  Elec       q    Type
REMARK                         _______ _______ _______ _____ _____    ______ ____
ROOT
ATOM      1  N   UNL     1      33.888 -23.299 -17.018  0.00  0.00    -0.327 N 
ATOM      2  H   UNL     1      33.544 -24.195 -17.235  0.00  0.00    +0.147 HD
ENDROOT
BRANCH   1   3
ATOM      3  C   UNL     1      34.092 -22.407 -18.056  0.00  0.00    +0.045 C 
ATOM      4  C   UNL     1      35.391 -22.115 -18.515  0.00  0.00    +0.015 C 
ATOM      5  C   UNL     1      33.007 -21.766 -18.683  0.00  0.00    +0.015 C 
ATOM      6  C   UNL     1      34.507 -20.592 -20.169  0.00  0.00    +0.076 C 
ATOM      7  C   UNL     1      35.597 -21.217 -19.562  0.00  0.00    +0.008 C 
ATOM      8  C   UNL     1      33.213 -20.867 -19.730  0.00  0.00    +0.008 C 
BRANCH   6  10
ATOM      9  O   UNL     1      34.924 -19.973 -22.439  0.00  0.00    -0.245 OA
ATOM     10  C   UNL     1      34.721 -19.656 -21.261  0.00  0.00    +0.348 C 
BRANCH  10  11
ATOM     11  O   UNL     1      34.675 -18.361 -20.838  0.00  0.00    -0.368 OA
BRANCH  11  12
ATOM     12  P   UNL     1      35.321 -17.093 -21.606  0.00  0.00    +0.530 P 
ATOM     13  O   UNL     1      35.166 -15.779 -20.894  0.00  0.00    -0.216 OA
BRANCH  12  14
ATOM     14  O   UNL     1      34.662 -17.163 -23.080  0.00  0.00    -0.293 OA
ATOM     15  H   UNL     1      35.248 -17.658 -23.674  0.00  0.00    +0.223 HD
ENDBRANCH  12  14
BRANCH  12  16
ATOM     16  O   UNL     1      36.848 -17.559 -21.856  0.00  0.00    -0.293 OA
ATOM     17  H   UNL     1      36.942 -18.496 -21.623  0.00  0.00    +0.223 HD
ENDBRANCH  12  16
ENDBRANCH  11  12
ENDBRANCH  10  11
ENDBRANCH   6  10
ENDBRANCH   1   3
BRANCH   1  18
ATOM     18  C   UNL     1      34.155 -22.985 -15.629  0.00  0.00    +0.145 C 
BRANCH  18  25
ATOM     19  O   UNL     1      36.275 -27.396 -14.988  0.00  0.00    -0.206 OA
ATOM     20  N   UNL     1      35.703 -24.793 -15.161  0.00  0.00    -0.391 NA
ATOM     21  N   UNL     1      39.199 -24.816 -14.108  0.00  0.00    -0.259 N 
ATOM     22  N   UNL     1      37.739 -22.960 -14.550  0.00  0.00    -0.246 NA
ATOM     23  N   UNL     1      38.453 -27.067 -14.331  0.00  0.00    -0.300 NA
ATOM     24  N   UNL     1      40.643 -26.546 -13.671  0.00  0.00    -0.320 N 
ATOM     25  C   UNL     1      35.504 -23.463 -15.223  0.00  0.00    +0.132 C 
ATOM     26  C   UNL     1      36.940 -25.178 -14.789  0.00  0.00    +0.255 C 
ATOM     27  C   UNL     1      37.959 -24.291 -14.482  0.00  0.00    +0.173 C 
ATOM     28  C   UNL     1      36.505 -22.564 -14.922  0.00  0.00    +0.183 C 
ATOM     29  C   UNL     1      37.195 -26.634 -14.710  0.00  0.00    +0.240 C 
ATOM     30  C   UNL     1      39.375 -26.181 -14.053  0.00  0.00    +0.249 C 
ATOM     31  H   UNL     1      39.944 -24.212 -13.884  0.00  0.00    +0.157 HD
ATOM     32  H   UNL     1      41.314 -25.855 -13.468  0.00  0.00    +0.146 HD
ATOM     33  H   UNL     1      40.879 -27.499 -13.598  0.00  0.00    +0.146 HD
ENDBRANCH  18  25
ENDBRANCH   1  18
TORSDOF 8
ENDMDL
MODEL 4
REMARK VINA RESULT:     -10.5      4.635      9.731
REMARK  Name = 656948
REMARK  8 active torsions:
REMARK  status: ('A' for Active; 'I' for Inactive)
REMARK    1  A    between atoms: N_1  and  C_3
REMARK    2  A    between atoms: N_1  and  C_18
REMARK    3  A    between atoms: C_6  and  C_10
REMARK    4  A    between atoms: C_10  and  O_11
REMARK    5  A    between atoms: O_11  and  P_12
REMARK    6  A    between atoms: P_12  and  O_14
REMARK    7  A    between atoms: P_12  and  O_16
REMARK    8  A    between atoms: C_18  and  C_25
REMARK                            x       y       z     vdW  Elec       q    Type
REMARK                         _______ _______ _______ _____ _____    ______ ____
ROOT
ATOM      1  N   UNL     1      35.806 -17.584 -21.008  0.00  0.00    -0.327 N 
ATOM      2  H   UNL     1      36.503 -17.571 -20.312  0.00  0.00    +0.147 HD
ENDROOT
BRANCH   1   3
ATOM      3  C   UNL     1      35.157 -16.399 -21.304  0.00  0.00    +0.045 C 
ATOM      4  C   UNL     1      34.653 -15.573 -20.280  0.00  0.00    +0.015 C 
ATOM      5  C   UNL     1      34.980 -15.983 -22.638  0.00  0.00    +0.015 C 
ATOM      6  C   UNL     1      33.834 -13.986 -21.907  0.00  0.00    +0.076 C 
ATOM      7  C   UNL     1      33.999 -14.379 -20.579  0.00  0.00    +0.008 C 
ATOM      8  C   UNL     1      34.325 -14.788 -22.936  0.00  0.00    +0.008 C 
BRANCH   6  10
ATOM      9  O   UNL     1      33.068 -12.239 -23.346  0.00  0.00    -0.245 OA
ATOM     10  C   UNL     1      33.152 -12.740 -22.218  0.00  0.00    +0.348 C 
BRANCH  10  11
ATOM     11  O   UNL     1      32.604 -12.168 -21.109  0.00  0.00    -0.368 OA
BRANCH  11  12
ATOM     12  P   UNL     1      31.506 -10.981 -21.102  0.00  0.00    +0.530 P 
ATOM     13  O   UNL     1      30.952 -10.643 -19.748  0.00  0.00    -0.216 OA
BRANCH  12  14
ATOM     14  O   UNL     1      30.418 -11.462 -22.196  0.00  0.00    -0.293 OA
ATOM     15  H   UNL     1      30.785 -11.354 -23.087  0.00  0.00    +0.223 HD
ENDBRANCH  12  14
BRANCH  12  16
ATOM     16  O   UNL     1      32.276  -9.771 -21.847  0.00  0.00    -0.293 OA
ATOM     17  H   UNL     1      32.213  -9.891 -22.808  0.00  0.00    +0.223 HD
ENDBRANCH  12  16
ENDBRANCH  11  12
ENDBRANCH  10  11
ENDBRANCH   6  10
ENDBRANCH   1   3
BRANCH   1  18
ATOM     18  C   UNL     1      35.517 -18.841 -21.665  0.00  0.00    +0.145 C 
BRANCH  18  25
ATOM     19  O   UNL     1      36.783 -21.813 -17.933  0.00  0.00    -0.206 OA
ATOM     20  N   UNL     1      35.512 -20.425 -19.828  0.00  0.00    -0.391 NA
ATOM     21  N   UNL     1      32.828 -22.316 -18.228  0.00  0.00    -0.259 N 
ATOM     22  N   UNL     1      32.734 -20.759 -20.055  0.00  0.00    -0.246 NA
ATOM     23  N   UNL     1      34.885 -22.850 -17.152  0.00  0.00    -0.300 NA
ATOM     24  N   UNL     1      32.853 -23.812 -16.487  0.00  0.00    -0.320 N 
ATOM     25  C   UNL     1      34.790 -19.765 -20.753  0.00  0.00    +0.132 C 
ATOM     26  C   UNL     1      34.810 -21.250 -19.024  0.00  0.00    +0.255 C 
ATOM     27  C   UNL     1      33.440 -21.430 -19.120  0.00  0.00    +0.173 C 
ATOM     28  C   UNL     1      33.426 -19.930 -20.864  0.00  0.00    +0.183 C 
ATOM     29  C   UNL     1      35.571 -21.993 -17.995  0.00  0.00    +0.240 C 
ATOM     30  C   UNL     1      33.590 -22.978 -17.291  0.00  0.00    +0.249 C 
ATOM     31  H   UNL     1      31.856 -22.465 -18.270  0.00  0.00    +0.157 HD
ATOM     32  H   UNL     1      31.880 -23.887 -16.618  0.00  0.00    +0.146 HD
ATOM     33  H   UNL     1      33.297 -24.335 -15.782  0.00  0.00    +0.146 HD
ENDBRANCH  18  25
ENDBRANCH   1  18
TORSDOF 8
ENDMDL
MODEL 5
REMARK VINA RESULT:     -10.5      4.559     10.051
REMARK  Name = 656948
REMARK  8 active torsions:
REMARK  status: ('A' for Active; 'I' for Inactive)
REMARK    1  A    between atoms: N_1  and  C_3
REMARK    2  A    between atoms: N_1  and  C_18
REMARK    3  A    between atoms: C_6  and  C_10
REMARK    4  A    between atoms: C_10  and  O_11
REMARK    5  A    between atoms: O_11  and  P_12
REMARK    6  A    between atoms: P_12  and  O_14
REMARK    7  A    between atoms: P_12  and  O_16
REMARK    8  A    between atoms: C_18  and  C_25
REMARK                            x       y       z     vdW  Elec       q    Type
REMARK                         _______ _______ _______ _____ _____    ______ ____
ROOT
ATOM      1  N   UNL     1      34.862 -20.407 -20.270  0.00  0.00    -0.327 N 
ATOM      2  H   UNL     1      35.693 -20.639 -19.795  0.00  0.00    +0.147 HD
ENDROOT
BRANCH   1   3
ATOM      3  C   UNL     1      34.896 -19.360 -21.172  0.00  0.00    +0.045 C 
ATOM      4  C   UNL     1      34.505 -19.545 -22.513  0.00  0.00    +0.015 C 
ATOM      5  C   UNL     1      35.322 -18.077 -20.777  0.00  0.00    +0.015 C 
ATOM      6  C   UNL     1      34.965 -17.226 -23.011  0.00  0.00    +0.076 C 
ATOM      7  C   UNL     1      34.539 -18.489 -23.423  0.00  0.00    +0.008 C 
ATOM      8  C   UNL     1      35.356 -17.020 -21.688  0.00  0.00    +0.008 C 
BRANCH   6  10
ATOM      9  O   UNL     1      34.996 -16.248 -25.190  0.00  0.00    -0.245 OA
ATOM     10  C   UNL     1      35.000 -16.125 -23.959  0.00  0.00    +0.348 C 
BRANCH  10  11
ATOM     11  O   UNL     1      35.040 -14.915 -23.334  0.00  0.00    -0.368 OA
BRANCH  11  12
ATOM     12  P   UNL     1      33.780 -13.926 -23.109  0.00  0.00    +0.530 P 
ATOM     13  O   UNL     1      33.079 -14.086 -21.790  0.00  0.00    -0.216 OA
BRANCH  12  14
ATOM     14  O   UNL     1      32.862 -14.174 -24.416  0.00  0.00    -0.293 OA
ATOM     15  H   UNL     1      33.377 -14.646 -25.089  0.00  0.00    +0.223 HD
ENDBRANCH  12  14
BRANCH  12  16
ATOM     16  O   UNL     1      34.416 -12.463 -23.371  0.00  0.00    -0.293 OA
ATOM     17  H   UNL     1      33.897 -11.795 -22.896  0.00  0.00    +0.223 HD
ENDBRANCH  12  16
ENDBRANCH  11  12
ENDBRANCH  10  11
ENDBRANCH   6  10
ENDBRANCH   1   3
BRANCH   1  18
ATOM     18  C   UNL     1      33.672 -21.181 -19.985  0.00  0.00    +0.145 C 
BRANCH  18  25
ATOM     19  O   UNL     1      30.518 -22.829 -16.563  0.00  0.00    -0.206 OA
ATOM     20  N   UNL     1      32.662 -22.179 -18.018  0.00  0.00    -0.391 NA
ATOM     21  N   UNL     1      34.098 -23.850 -15.106  0.00  0.00    -0.259 N 
ATOM     22  N   UNL     1      35.188 -22.887 -17.018  0.00  0.00    -0.246 NA
ATOM     23  N   UNL     1      31.727 -23.819 -14.877  0.00  0.00    -0.300 NA
ATOM     24  N   UNL     1      33.116 -24.787 -13.254  0.00  0.00    -0.320 N 
ATOM     25  C   UNL     1      33.797 -21.894 -18.684  0.00  0.00    +0.132 C 
ATOM     26  C   UNL     1      32.826 -22.826 -16.846  0.00  0.00    +0.255 C 
ATOM     27  C   UNL     1      34.062 -23.183 -16.334  0.00  0.00    +0.173 C 
ATOM     28  C   UNL     1      35.036 -22.241 -18.192  0.00  0.00    +0.183 C 
ATOM     29  C   UNL     1      31.600 -23.156 -16.085  0.00  0.00    +0.240 C 
ATOM     30  C   UNL     1      32.923 -24.130 -14.444  0.00  0.00    +0.249 C 
ATOM     31  H   UNL     1      34.961 -24.118 -14.714  0.00  0.00    +0.157 HD
ATOM     32  H   UNL     1      34.029 -25.006 -12.956  0.00  0.00    +0.146 HD
ATOM     33  H   UNL     1      32.343 -25.036 -12.699  0.00  0.00    +0.146 HD
ENDBRANCH  18  25
ENDBRANCH   1  18
TORSDOF 8
ENDMDL
MODEL 6
REMARK VINA RESULT:     -10.4      1.201      1.947
REMARK  Name = 656948
REMARK  8 active torsions:
REMARK  status: ('A' for Active; 'I' for Inactive)
REMARK    1  A    between atoms: N_1  and  C_3
REMARK    2  A    between atoms: N_1  and  C_18
REMARK    3  A    between atoms: C_6  and  C_10
REMARK    4  A    between atoms: C_10  and  O_11
REMARK    5  A    between atoms: O_11  and  P_12
REMARK    6  A    between atoms: P_12  and  O_14
REMARK    7  A    between atoms: P_12  and  O_16
REMARK    8  A    between atoms: C_18  and  C_25
REMARK                            x       y       z     vdW  Elec       q    Type
REMARK                         _______ _______ _______ _____ _____    ______ ____
ROOT
ATOM      1  N   UNL     1      34.749 -19.420 -21.526  0.00  0.00    -0.327 N 
ATOM      2  H   UNL     1      34.264 -19.486 -22.381  0.00  0.00    +0.147 HD
ENDROOT
BRANCH   1   3
ATOM      3  C   UNL     1      34.389 -20.279 -20.503  0.00  0.00    +0.045 C 
ATOM      4  C   UNL     1      33.049 -20.384 -20.083  0.00  0.00    +0.015 C 
ATOM      5  C   UNL     1      35.353 -21.073 -19.852  0.00  0.00    +0.015 C 
ATOM      6  C   UNL     1      33.657 -22.028 -18.420  0.00  0.00    +0.076 C 
ATOM      7  C   UNL     1      32.687 -21.250 -19.052  0.00  0.00    +0.008 C 
ATOM      8  C   UNL     1      34.990 -21.939 -18.820  0.00  0.00    +0.008 C 
BRANCH   6  10
ATOM      9  O   UNL     1      34.020 -23.782 -16.839  0.00  0.00    -0.245 OA
ATOM     10  C   UNL     1      33.279 -22.931 -17.345  0.00  0.00    +0.348 C 
BRANCH  10  11
ATOM     11  O   UNL     1      31.990 -22.737 -16.946  0.00  0.00    -0.368 OA
BRANCH  11  12
ATOM     12  P   UNL     1      31.397 -23.061 -15.477  0.00  0.00    +0.530 P 
ATOM     13  O   UNL     1      30.026 -22.508 -15.214  0.00  0.00    -0.216 OA
BRANCH  12  14
ATOM     14  O   UNL     1      32.556 -22.545 -14.475  0.00  0.00    -0.293 OA
ATOM     15  H   UNL     1      32.425 -21.602 -14.287  0.00  0.00    +0.223 HD
ENDBRANCH  12  14
BRANCH  12  16
ATOM     16  O   UNL     1      31.514 -24.671 -15.386  0.00  0.00    -0.293 OA
ATOM     17  H   UNL     1      30.748 -25.023 -14.906  0.00  0.00    +0.223 HD
ENDBRANCH  12  16
ENDBRANCH  11  12
ENDBRANCH  10  11
ENDBRANCH   6  10
ENDBRANCH   1   3
BRANCH   1  18
ATOM     18  C   UNL     1      35.799 -18.429 -21.408  0.00  0.00    +0.145 C 
BRANCH  18  25
ATOM     19  O   UNL     1      34.194 -15.894 -25.328  0.00  0.00    -0.206 OA
ATOM     20  N   UNL     1      34.926 -16.725 -22.897  0.00  0.00    -0.391 NA
ATOM     21  N   UNL     1      33.806 -13.299 -22.312  0.00  0.00    -0.259 N 
ATOM     22  N   UNL     1      34.661 -14.922 -20.761  0.00  0.00    -0.246 NA
ATOM     23  N   UNL     1      33.570 -13.794 -24.630  0.00  0.00    -0.300 NA
ATOM     24  N   UNL     1      32.983 -11.704 -23.743  0.00  0.00    -0.320 N 
ATOM     25  C   UNL     1      35.268 -17.058 -21.638  0.00  0.00    +0.132 C 
ATOM     26  C   UNL     1      34.449 -15.473 -23.056  0.00  0.00    +0.255 C 
ATOM     27  C   UNL     1      34.312 -14.568 -22.016  0.00  0.00    +0.173 C 
ATOM     28  C   UNL     1      35.138 -16.172 -20.590  0.00  0.00    +0.183 C 
ATOM     29  C   UNL     1      34.063 -15.071 -24.427  0.00  0.00    +0.240 C 
ATOM     30  C   UNL     1      33.463 -12.983 -23.608  0.00  0.00    +0.249 C 
ATOM     31  H   UNL     1      33.695 -12.632 -21.595  0.00  0.00    +0.157 HD
ATOM     32  H   UNL     1      32.915 -11.118 -22.955  0.00  0.00    +0.146 HD
ATOM     33  H   UNL     1      32.707 -11.373 -24.628  0.00  0.00    +0.146 HD
ENDBRANCH  18  25
ENDBRANCH   1  18
TORSDOF 8
ENDMDL
MODEL 7
REMARK VINA RESULT:     -10.4      4.318      9.899
REMARK  Name = 656948
REMARK  8 active torsions:
REMARK  status: ('A' for Active; 'I' for Inactive)
REMARK    1  A    between atoms: N_1  and  C_3
REMARK    2  A    between atoms: N_1  and  C_18
REMARK    3  A    between atoms: C_6  and  C_10
REMARK    4  A    between atoms: C_10  and  O_11
REMARK    5  A    between atoms: O_11  and  P_12
REMARK    6  A    between atoms: P_12  and  O_14
REMARK    7  A    between atoms: P_12  and  O_16
REMARK    8  A    between atoms: C_18  and  C_25
REMARK                            x       y       z     vdW  Elec       q    Type
REMARK                         _______ _______ _______ _____ _____    ______ ____
ROOT
ATOM      1  N   UNL     1      35.995 -19.979 -19.925  0.00  0.00    -0.327 N 
ATOM      2  H   UNL     1      36.401 -19.605 -19.109  0.00  0.00    +0.147 HD
ENDROOT
BRANCH   1   3
ATOM      3  C   UNL     1      35.657 -19.109 -20.945  0.00  0.00    +0.045 C 
ATOM      4  C   UNL     1      35.809 -17.717 -20.790  0.00  0.00    +0.015 C 
ATOM      5  C   UNL     1      35.149 -19.589 -22.168  0.00  0.00    +0.015 C 
ATOM      6  C   UNL     1      34.966 -17.336 -23.022  0.00  0.00    +0.076 C 
ATOM      7  C   UNL     1      35.468 -16.839 -21.819  0.00  0.00    +0.008 C 
ATOM      8  C   UNL     1      34.807 -18.710 -23.197  0.00  0.00    +0.008 C 
BRANCH   6  10
ATOM      9  O   UNL     1      34.253 -16.760 -25.229  0.00  0.00    -0.245 OA
ATOM     10  C   UNL     1      34.610 -16.421 -24.095  0.00  0.00    +0.348 C 
BRANCH  10  11
ATOM     11  O   UNL     1      34.716 -15.118 -23.709  0.00  0.00    -0.368 OA
BRANCH  11  12
ATOM     12  P   UNL     1      33.507 -14.045 -23.661  0.00  0.00    +0.530 P 
ATOM     13  O   UNL     1      32.774 -13.980 -22.351  0.00  0.00    -0.216 OA
BRANCH  12  14
ATOM     14  O   UNL     1      32.602 -14.433 -24.942  0.00  0.00    -0.293 OA
ATOM     15  H   UNL     1      32.955 -13.995 -25.732  0.00  0.00    +0.223 HD
ENDBRANCH  12  14
BRANCH  12  16
ATOM     16  O   UNL     1      34.224 -12.669 -24.112  0.00  0.00    -0.293 OA
ATOM     17  H   UNL     1      34.394 -12.122 -23.329  0.00  0.00    +0.223 HD
ENDBRANCH  12  16
ENDBRANCH  11  12
ENDBRANCH  10  11
ENDBRANCH   6  10
ENDBRANCH   1   3
BRANCH   1  18
ATOM     18  C   UNL     1      35.786 -21.411 -19.991  0.00  0.00    +0.145 C 
BRANCH  18  25
ATOM     19  O   UNL     1      35.893 -23.678 -15.607  0.00  0.00    -0.206 OA
ATOM     20  N   UNL     1      35.204 -22.457 -17.881  0.00  0.00    -0.391 NA
ATOM     21  N   UNL     1      31.994 -23.065 -16.249  0.00  0.00    -0.259 N 
ATOM     22  N   UNL     1      32.473 -22.012 -18.355  0.00  0.00    -0.246 NA
ATOM     23  N   UNL     1      33.732 -23.909 -14.856  0.00  0.00    -0.300 NA
ATOM     24  N   UNL     1      31.472 -24.060 -14.247  0.00  0.00    -0.320 N 
ATOM     25  C   UNL     1      34.766 -21.848 -18.999  0.00  0.00    +0.132 C 
ATOM     26  C   UNL     1      34.244 -22.834 -17.012  0.00  0.00    +0.255 C 
ATOM     27  C   UNL     1      32.892 -22.625 -17.227  0.00  0.00    +0.173 C 
ATOM     28  C   UNL     1      33.425 -21.631 -19.231  0.00  0.00    +0.183 C 
ATOM     29  C   UNL     1      34.689 -23.507 -15.772  0.00  0.00    +0.240 C 
ATOM     30  C   UNL     1      32.469 -23.685 -15.114  0.00  0.00    +0.249 C 
ATOM     31  H   UNL     1      31.027 -22.931 -16.371  0.00  0.00    +0.157 HD
ATOM     32  H   UNL     1      30.531 -23.877 -14.471  0.00  0.00    +0.146 HD
ATOM     33  H   UNL     1      31.699 -24.512 -13.403  0.00  0.00    +0.146 HD
ENDBRANCH  18  25
ENDBRANCH   1  18
TORSDOF 8
ENDMDL
MODEL 8
REMARK VINA RESULT:     -10.2      5.366      8.314
REMARK  Name = 656948
REMARK  8 active torsions:
REMARK  status: ('A' for Active; 'I' for Inactive)
REMARK    1  A    between atoms: N_1  and  C_3
REMARK    2  A    between atoms: N_1  and  C_18
REMARK    3  A    between atoms: C_6  and  C_10
REMARK    4  A    between atoms: C_10  and  O_11
REMARK    5  A    between atoms: O_11  and  P_12
REMARK    6  A    between atoms: P_12  and  O_14
REMARK    7  A    between atoms: P_12  and  O_16
REMARK    8  A    between atoms: C_18  and  C_25
REMARK                            x       y       z     vdW  Elec       q    Type
REMARK                         _______ _______ _______ _____ _____    ______ ____
ROOT
ATOM      1  N   UNL     1      34.529 -23.524 -13.296  0.00  0.00    -0.327 N 
ATOM      2  H   UNL     1      34.772 -22.960 -12.527  0.00  0.00    +0.147 HD
ENDROOT
BRANCH   1   3
ATOM      3  C   UNL     1      33.187 -23.751 -13.541  0.00  0.00    +0.045 C 
ATOM      4  C   UNL     1      32.627 -25.033 -13.374  0.00  0.00    +0.015 C 
ATOM      5  C   UNL     1      32.341 -22.708 -13.966  0.00  0.00    +0.015 C 
ATOM      6  C   UNL     1      30.454 -24.215 -14.041  0.00  0.00    +0.076 C 
ATOM      7  C   UNL     1      31.274 -25.262 -13.621  0.00  0.00    +0.008 C 
ATOM      8  C   UNL     1      30.987 -22.938 -14.213  0.00  0.00    +0.008 C 
BRANCH   6  10
ATOM      9  O   UNL     1      28.471 -25.542 -14.164  0.00  0.00    -0.245 OA
ATOM     10  C   UNL     1      29.043 -24.454 -14.298  0.00  0.00    +0.348 C 
BRANCH  10  11
ATOM     11  O   UNL     1      28.402 -23.325 -14.714  0.00  0.00    -0.368 OA
BRANCH  11  12
ATOM     12  P   UNL     1      27.884 -23.032 -16.218  0.00  0.00    +0.530 P 
ATOM     13  O   UNL     1      26.585 -22.283 -16.303  0.00  0.00    -0.216 OA
BRANCH  12  14
ATOM     14  O   UNL     1      27.889 -24.491 -16.914  0.00  0.00    -0.293 OA
ATOM     15  H   UNL     1      27.418 -25.122 -16.347  0.00  0.00    +0.223 HD
ENDBRANCH  12  14
BRANCH  12  16
ATOM     16  O   UNL     1      29.147 -22.289 -16.899  0.00  0.00    -0.293 OA
ATOM     17  H   UNL     1      28.835 -21.529 -17.414  0.00  0.00    +0.223 HD
ENDBRANCH  12  16
ENDBRANCH  11  12
ENDBRANCH  10  11
ENDBRANCH   6  10
ENDBRANCH   1   3
BRANCH   1  18
ATOM     18  C   UNL     1      35.596 -24.070 -14.109  0.00  0.00    +0.145 C 
BRANCH  18  25
ATOM     19  O   UNL     1      33.186 -22.984 -18.277  0.00  0.00    -0.206 OA
ATOM     20  N   UNL     1      34.928 -23.174 -16.262  0.00  0.00    -0.391 NA
ATOM     21  N   UNL     1      36.556 -20.851 -18.562  0.00  0.00    -0.259 N 
ATOM     22  N   UNL     1      37.301 -21.685 -16.436  0.00  0.00    -0.246 NA
ATOM     23  N   UNL     1      34.466 -21.512 -19.495  0.00  0.00    -0.300 NA
ATOM     24  N   UNL     1      35.899 -20.019 -20.597  0.00  0.00    -0.320 N 
ATOM     25  C   UNL     1      35.861 -23.208 -15.292  0.00  0.00    +0.132 C 
ATOM     26  C   UNL     1      35.213 -22.379 -17.313  0.00  0.00    +0.255 C 
ATOM     27  C   UNL     1      36.378 -21.637 -17.419  0.00  0.00    +0.173 C 
ATOM     28  C   UNL     1      37.027 -22.477 -15.379  0.00  0.00    +0.183 C 
ATOM     29  C   UNL     1      34.209 -22.317 -18.399  0.00  0.00    +0.240 C 
ATOM     30  C   UNL     1      35.585 -20.835 -19.539  0.00  0.00    +0.249 C 
ATOM     31  H   UNL     1      37.373 -20.312 -18.667  0.00  0.00    +0.157 HD
ATOM     32  H   UNL     1      36.750 -19.523 -20.601  0.00  0.00    +0.146 HD
ATOM     33  H   UNL     1      35.275 -19.932 -21.354  0.00  0.00    +0.146 HD
ENDBRANCH  18  25
ENDBRANCH   1  18
TORSDOF 8
ENDMDL
MODEL 9
REMARK VINA RESULT:     -10.1      4.421      9.592
REMARK  Name = 656948
REMARK  8 active torsions:
REMARK  status: ('A' for Active; 'I' for Inactive)
REMARK    1  A    between atoms: N_1  and  C_3
REMARK    2  A    between atoms: N_1  and  C_18
REMARK    3  A    between atoms: C_6  and  C_10
REMARK    4  A    between atoms: C_10  and  O_11
REMARK    5  A    between atoms: O_11  and  P_12
REMARK    6  A    between atoms: P_12  and  O_14
REMARK    7  A    between atoms: P_12  and  O_16
REMARK    8  A    between atoms: C_18  and  C_25
REMARK                            x       y       z     vdW  Elec       q    Type
REMARK                         _______ _______ _______ _____ _____    ______ ____
ROOT
ATOM      1  N   UNL     1      35.483 -17.429 -23.051  0.00  0.00    -0.327 N 
ATOM      2  H   UNL     1      36.431 -17.483 -23.311  0.00  0.00    +0.147 HD
ENDROOT
BRANCH   1   3
ATOM      3  C   UNL     1      34.893 -16.179 -22.986  0.00  0.00    +0.045 C 
ATOM      4  C   UNL     1      34.929 -15.422 -21.799  0.00  0.00    +0.015 C 
ATOM      5  C   UNL     1      34.239 -15.628 -24.105  0.00  0.00    +0.015 C 
ATOM      6  C   UNL     1      33.691 -13.635 -22.854  0.00  0.00    +0.076 C 
ATOM      7  C   UNL     1      34.335 -14.162 -21.734  0.00  0.00    +0.008 C 
ATOM      8  C   UNL     1      33.644 -14.368 -24.039  0.00  0.00    +0.008 C 
BRANCH   6  10
ATOM      9  O   UNL     1      32.947 -11.545 -23.739  0.00  0.00    -0.245 OA
ATOM     10  C   UNL     1      33.072 -12.322 -22.785  0.00  0.00    +0.348 C 
BRANCH  10  11
ATOM     11  O   UNL     1      32.634 -12.029 -21.528  0.00  0.00    -0.368 OA
BRANCH  11  12
ATOM     12  P   UNL     1      31.554 -10.888 -21.145  0.00  0.00    +0.530 P 
ATOM     13  O   UNL     1      31.190 -10.828 -19.689  0.00  0.00    -0.216 OA
BRANCH  12  14
ATOM     14  O   UNL     1      30.325 -11.172 -22.155  0.00  0.00    -0.293 OA
ATOM     15  H   UNL     1      30.472 -10.695 -22.987  0.00  0.00    +0.223 HD
ENDBRANCH  12  14
BRANCH  12  16
ATOM     16  O   UNL     1      32.223  -9.542 -21.738  0.00  0.00    -0.293 OA
ATOM     17  H   UNL     1      31.597  -8.806 -21.655  0.00  0.00    +0.223 HD
ENDBRANCH  12  16
ENDBRANCH  11  12
ENDBRANCH  10  11
ENDBRANCH   6  10
ENDBRANCH   1   3
BRANCH   1  18
ATOM     18  C   UNL     1      34.782 -18.662 -22.758  0.00  0.00    +0.145 C 
BRANCH  18  25
ATOM     19  O   UNL     1      33.158 -22.076 -19.584  0.00  0.00    -0.206 OA
ATOM     20  N   UNL     1      34.545 -20.221 -20.914  0.00  0.00    -0.391 NA
ATOM     21  N   UNL     1      36.737 -21.061 -18.117  0.00  0.00    -0.259 N 
ATOM     22  N   UNL     1      37.062 -19.492 -19.907  0.00  0.00    -0.246 NA
ATOM     23  N   UNL     1      34.754 -22.372 -17.955  0.00  0.00    -0.300 NA
ATOM     24  N   UNL     1      36.485 -22.544 -16.383  0.00  0.00    -0.320 N 
ATOM     25  C   UNL     1      35.313 -19.296 -21.521  0.00  0.00    +0.132 C 
ATOM     26  C   UNL     1      35.068 -20.767 -19.798  0.00  0.00    +0.255 C 
ATOM     27  C   UNL     1      36.306 -20.422 -19.284  0.00  0.00    +0.173 C 
ATOM     28  C   UNL     1      36.548 -18.938 -21.025  0.00  0.00    +0.183 C 
ATOM     29  C   UNL     1      34.251 -21.788 -19.105  0.00  0.00    +0.240 C 
ATOM     30  C   UNL     1      35.931 -22.004 -17.517  0.00  0.00    +0.249 C 
ATOM     31  H   UNL     1      37.612 -20.838 -17.726  0.00  0.00    +0.157 HD
ATOM     32  H   UNL     1      37.373 -22.245 -16.079  0.00  0.00    +0.146 HD
ATOM     33  H   UNL     1      35.995 -23.228 -15.873  0.00  0.00    +0.146 HD
ENDBRANCH  18  25
ENDBRANCH   1  18
TORSDOF 8
ENDMDL
