MODEL 1
REMARK VINA RESULT:      -9.9      0.000      0.000
REMARK  Name = 61791
REMARK  8 active torsions:
REMARK  status: ('A' for Active; 'I' for Inactive)
REMARK    1  A    between atoms: N_1  and  C_22
REMARK    2  A    between atoms: C_2  and  N_10
REMARK    3  A    between atoms: C_17  and  C_20
REMARK    4  A    between atoms: C_22  and  C_23
REMARK    5  A    between atoms: C_23  and  C_24
REMARK    6  A    between atoms: C_24  and  C_25
REMARK    7  A    between atoms: C_24  and  C_31
REMARK    8  A    between atoms: C_24  and  C_38
REMARK                            x       y       z     vdW  Elec       q    Type
REMARK                         _______ _______ _______ _____ _____    ______ ____
ROOT
ATOM      1  N   UNL     1      31.739 -10.501 -21.405  0.00  0.00    +0.387 N 
ATOM      2  C   UNL     1      33.597 -12.758 -21.527  0.00  0.00    +0.086 C 
ATOM      3  C   UNL     1      32.279 -12.826 -20.754  0.00  0.00    -0.000 C 
ATOM      4  C   UNL     1      33.502 -11.719 -22.644  0.00  0.00    -0.000 C 
ATOM      5  C   UNL     1      31.843 -11.438 -20.279  0.00  0.00    -0.075 C 
ATOM      6  C   UNL     1      33.024 -10.368 -22.106  0.00  0.00    -0.075 C 
ATOM      7  H   UNL     1      31.058 -10.876 -22.066  0.00  0.00    -0.080 HD
ENDROOT
BRANCH   2  10
ATOM      8  O   UNL     1      34.951 -15.065 -20.175  0.00  0.00    -0.246 OA
ATOM      9  O   UNL     1      35.411 -18.349 -22.970  0.00  0.00    -0.271 OA
ATOM     10  N   UNL     1      33.955 -14.050 -22.057  0.00  0.00    -0.282 N 
ATOM     11  N   UNL     1      34.749 -16.196 -22.299  0.00  0.00    -0.229 N 
ATOM     12  C   UNL     1      33.709 -14.456 -23.371  0.00  0.00    +0.080 A 
ATOM     13  C   UNL     1      34.600 -15.096 -21.346  0.00  0.00    +0.337 A 
ATOM     14  C   UNL     1      34.187 -15.757 -23.532  0.00  0.00    +0.087 A 
ATOM     15  C   UNL     1      33.105 -13.755 -24.400  0.00  0.00    +0.019 C 
ATOM     16  C   UNL     1      34.067 -16.400 -24.751  0.00  0.00    +0.019 C 
ATOM     17  C   UNL     1      35.322 -17.468 -22.116  0.00  0.00    +0.245 C 
ATOM     18  C   UNL     1      32.982 -14.398 -25.631  0.00  0.00    +0.002 C 
ATOM     19  C   UNL     1      33.458 -15.708 -25.806  0.00  0.00    +0.002 C 
BRANCH  17  20
ATOM     20  C   UNL     1      35.857 -17.725 -20.729  0.00  0.00    +0.089 C 
ATOM     21  C   UNL     1      36.774 -18.924 -20.745  0.00  0.00    +0.010 C 
ENDBRANCH  17  20
ENDBRANCH   2  10
BRANCH   1  22
ATOM     22  C   UNL     1      31.271  -9.194 -20.943  0.00  0.00    -0.076 C 
BRANCH  22  23
ATOM     23  C   UNL     1      31.411  -8.157 -22.071  0.00  0.00    -0.000 C 
BRANCH  23  24
ATOM     24  C   UNL     1      32.315  -6.914 -21.731  0.00  0.00    +0.115 C 
BRANCH  24  25
ATOM     25  C   UNL     1      31.517  -5.584 -21.649  0.00  0.00    -0.006 C 
ATOM     26  C   UNL     1      32.212  -4.416 -21.783  0.00  0.00    -0.003 C 
ATOM     27  C   UNL     1      30.169  -5.662 -21.446  0.00  0.00    -0.003 C 
ATOM     28  C   UNL     1      31.495  -3.221 -21.709  0.00  0.00    -0.000 C 
ATOM     29  C   UNL     1      29.453  -4.467 -21.372  0.00  0.00    -0.000 C 
ATOM     30  C   UNL     1      30.116  -3.247 -21.503  0.00  0.00    -0.000 C 
ENDBRANCH  24  25
BRANCH  24  31
ATOM     31  C   UNL     1      33.406  -6.789 -22.823  0.00  0.00    -0.006 C 
ATOM     32  C   UNL     1      34.697  -7.077 -22.475  0.00  0.00    -0.003 C 
ATOM     33  C   UNL     1      33.019  -6.395 -24.074  0.00  0.00    -0.003 C 
ATOM     34  C   UNL     1      35.679  -6.964 -23.459  0.00  0.00    -0.000 C 
ATOM     35  C   UNL     1      34.001  -6.282 -25.057  0.00  0.00    -0.000 C 
ATOM     36  C   UNL     1      35.332  -6.566 -24.750  0.00  0.00    -0.000 C 
ENDBRANCH  24  31
BRANCH  24  38
ATOM     37  N   UNL     1      33.304  -7.336 -19.303  0.00  0.00    -0.195 NA
ATOM     38  C   UNL     1      32.866  -7.159 -20.363  0.00  0.00    +0.079 C 
ENDBRANCH  24  38
ENDBRANCH  23  24
ENDBRANCH  22  23
ENDBRANCH   1  22
TORSDOF 8
ENDMDL
MODEL 2
REMARK VINA RESULT:      -9.1      3.926      7.349
REMARK  Name = 61791
REMARK  8 active torsions:
REMARK  status: ('A' for Active; 'I' for Inactive)
REMARK    1  A    between atoms: N_1  and  C_22
REMARK    2  A    between atoms: C_2  and  N_10
REMARK    3  A    between atoms: C_17  and  C_20
REMARK    4  A    between atoms: C_22  and  C_23
REMARK    5  A    between atoms: C_23  and  C_24
REMARK    6  A    between atoms: C_24  and  C_25
REMARK    7  A    between atoms: C_24  and  C_31
REMARK    8  A    between atoms: C_24  and  C_38
REMARK                            x       y       z     vdW  Elec       q    Type
REMARK                         _______ _______ _______ _____ _____    ______ ____
ROOT
ATOM      1  N   UNL     1      33.977  -6.218 -24.967  0.00  0.00    +0.387 N 
ATOM      2  C   UNL     1      32.824  -7.873 -22.848  0.00  0.00    +0.086 C 
ATOM      3  C   UNL     1      32.198  -7.774 -24.239  0.00  0.00    -0.000 C 
ATOM      4  C   UNL     1      34.319  -7.563 -22.918  0.00  0.00    -0.000 C 
ATOM      5  C   UNL     1      32.526  -6.435 -24.902  0.00  0.00    -0.075 C 
ATOM      6  C   UNL     1      34.578  -6.231 -23.625  0.00  0.00    -0.075 C 
ATOM      7  H   UNL     1      34.387  -6.984 -25.502  0.00  0.00    -0.080 HD
ENDROOT
BRANCH   2  10
ATOM      8  O   UNL     1      33.130 -10.592 -24.073  0.00  0.00    -0.246 OA
ATOM      9  O   UNL     1      32.103 -13.642 -21.167  0.00  0.00    -0.271 OA
ATOM     10  N   UNL     1      32.596  -9.172 -22.266  0.00  0.00    -0.282 N 
ATOM     11  N   UNL     1      32.415 -11.441 -21.928  0.00  0.00    -0.229 N 
ATOM     12  C   UNL     1      32.170  -9.381 -20.952  0.00  0.00    +0.080 A 
ATOM     13  C   UNL     1      32.765 -10.422 -22.917  0.00  0.00    +0.337 A 
ATOM     14  C   UNL     1      32.055 -10.754 -20.734  0.00  0.00    +0.087 A 
ATOM     15  C   UNL     1      31.886  -8.447 -19.970  0.00  0.00    +0.019 C 
ATOM     16  C   UNL     1      31.646 -11.234 -19.502  0.00  0.00    +0.019 C 
ATOM     17  C   UNL     1      32.409 -12.843 -22.050  0.00  0.00    +0.245 C 
ATOM     18  C   UNL     1      31.472  -8.925 -18.727  0.00  0.00    +0.002 C 
ATOM     19  C   UNL     1      31.353 -10.306 -18.495  0.00  0.00    +0.002 C 
BRANCH  17  20
ATOM     20  C   UNL     1      32.826 -13.360 -23.404  0.00  0.00    +0.089 C 
ATOM     21  C   UNL     1      33.976 -14.326 -23.254  0.00  0.00    +0.010 C 
ENDBRANCH  17  20
ENDBRANCH   2  10
BRANCH   1  22
ATOM     22  C   UNL     1      34.277  -4.958 -25.648  0.00  0.00    -0.076 C 
BRANCH  22  23
ATOM     23  C   UNL     1      35.792  -4.839 -25.890  0.00  0.00    -0.000 C 
BRANCH  23  24
ATOM     24  C   UNL     1      36.209  -4.461 -27.360  0.00  0.00    +0.115 C 
BRANCH  24  25
ATOM     25  C   UNL     1      36.243  -5.684 -28.318  0.00  0.00    -0.006 C 
ATOM     26  C   UNL     1      35.084  -6.024 -28.956  0.00  0.00    -0.003 C 
ATOM     27  C   UNL     1      37.428  -6.346 -28.464  0.00  0.00    -0.003 C 
ATOM     28  C   UNL     1      35.114  -7.122 -29.816  0.00  0.00    -0.000 C 
ATOM     29  C   UNL     1      37.458  -7.444 -29.324  0.00  0.00    -0.000 C 
ATOM     30  C   UNL     1      36.300  -7.831 -30.000  0.00  0.00    -0.000 C 
ENDBRANCH  24  25
BRANCH  24  31
ATOM     31  C   UNL     1      37.612  -3.806 -27.318  0.00  0.00    -0.006 C 
ATOM     32  C   UNL     1      37.942  -2.935 -28.319  0.00  0.00    -0.003 C 
ATOM     33  C   UNL     1      38.442  -4.137 -26.283  0.00  0.00    -0.003 C 
ATOM     34  C   UNL     1      39.206  -2.346 -28.281  0.00  0.00    -0.000 C 
ATOM     35  C   UNL     1      39.706  -3.548 -26.246  0.00  0.00    -0.000 C 
ATOM     36  C   UNL     1      40.088  -2.652 -27.245  0.00  0.00    -0.000 C 
ENDBRANCH  24  31
BRANCH  24  38
ATOM     37  N   UNL     1      34.315  -2.835 -28.265  0.00  0.00    -0.195 NA
ATOM     38  C   UNL     1      35.142  -3.551 -27.877  0.00  0.00    +0.079 C 
ENDBRANCH  24  38
ENDBRANCH  23  24
ENDBRANCH  22  23
ENDBRANCH   1  22
TORSDOF 8
ENDMDL
MODEL 3
REMARK VINA RESULT:      -9.1      3.535      5.815
REMARK  Name = 61791
REMARK  8 active torsions:
REMARK  status: ('A' for Active; 'I' for Inactive)
REMARK    1  A    between atoms: N_1  and  C_22
REMARK    2  A    between atoms: C_2  and  N_10
REMARK    3  A    between atoms: C_17  and  C_20
REMARK    4  A    between atoms: C_22  and  C_23
REMARK    5  A    between atoms: C_23  and  C_24
REMARK    6  A    between atoms: C_24  and  C_25
REMARK    7  A    between atoms: C_24  and  C_31
REMARK    8  A    between atoms: C_24  and  C_38
REMARK                            x       y       z     vdW  Elec       q    Type
REMARK                         _______ _______ _______ _____ _____    ______ ____
ROOT
ATOM      1  N   UNL     1      31.910  -6.399 -23.779  0.00  0.00    +0.387 N 
ATOM      2  C   UNL     1      32.305  -9.284 -23.487  0.00  0.00    +0.086 C 
ATOM      3  C   UNL     1      33.439  -8.280 -23.283  0.00  0.00    -0.000 C 
ATOM      4  C   UNL     1      30.954  -8.615 -23.230  0.00  0.00    -0.000 C 
ATOM      5  C   UNL     1      33.208  -7.007 -24.101  0.00  0.00    -0.075 C 
ATOM      6  C   UNL     1      30.806  -7.331 -24.049  0.00  0.00    -0.075 C 
ATOM      7  H   UNL     1      31.902  -6.182 -22.782  0.00  0.00    -0.080 HD
ENDROOT
BRANCH   2  10
ATOM      8  O   UNL     1      33.348 -12.009 -24.170  0.00  0.00    -0.246 OA
ATOM      9  O   UNL     1      33.316 -14.528 -20.639  0.00  0.00    -0.271 OA
ATOM     10  N   UNL     1      32.475 -10.439 -22.642  0.00  0.00    -0.282 N 
ATOM     11  N   UNL     1      32.963 -12.542 -21.846  0.00  0.00    -0.229 N 
ATOM     12  C   UNL     1      32.160 -10.470 -21.281  0.00  0.00    +0.080 A 
ATOM     13  C   UNL     1      32.979 -11.703 -23.044  0.00  0.00    +0.337 A 
ATOM     14  C   UNL     1      32.451 -11.742 -20.785  0.00  0.00    +0.087 A 
ATOM     15  C   UNL     1      31.645  -9.463 -20.483  0.00  0.00    +0.019 C 
ATOM     16  C   UNL     1      32.229 -12.040 -19.453  0.00  0.00    +0.019 C 
ATOM     17  C   UNL     1      33.357 -13.883 -21.687  0.00  0.00    +0.245 C 
ATOM     18  C   UNL     1      31.418  -9.758 -19.140  0.00  0.00    +0.002 C 
ATOM     19  C   UNL     1      31.707 -11.034 -18.628  0.00  0.00    +0.002 C 
BRANCH  17  20
ATOM     20  C   UNL     1      33.871 -14.543 -22.941  0.00  0.00    +0.089 C 
ATOM     21  C   UNL     1      34.853 -15.633 -22.585  0.00  0.00    +0.010 C 
ENDBRANCH  17  20
ENDBRANCH   2  10
BRANCH   1  22
ATOM     22  C   UNL     1      31.726  -5.157 -24.530  0.00  0.00    -0.076 C 
BRANCH  22  23
ATOM     23  C   UNL     1      32.692  -5.120 -25.728  0.00  0.00    -0.000 C 
BRANCH  23  24
ATOM     24  C   UNL     1      32.893  -3.703 -26.384  0.00  0.00    +0.115 C 
BRANCH  24  25
ATOM     25  C   UNL     1      32.082  -3.518 -27.695  0.00  0.00    -0.006 C 
ATOM     26  C   UNL     1      32.403  -4.310 -28.760  0.00  0.00    -0.003 C 
ATOM     27  C   UNL     1      31.097  -2.573 -27.707  0.00  0.00    -0.003 C 
ATOM     28  C   UNL     1      31.675  -4.144 -29.938  0.00  0.00    -0.000 C 
ATOM     29  C   UNL     1      30.369  -2.406 -28.885  0.00  0.00    -0.000 C 
ATOM     30  C   UNL     1      30.658  -3.192 -30.000  0.00  0.00    -0.000 C 
ENDBRANCH  24  25
BRANCH  24  31
ATOM     31  C   UNL     1      34.400  -3.511 -26.683  0.00  0.00    -0.006 C 
ATOM     32  C   UNL     1      35.224  -4.594 -26.542  0.00  0.00    -0.003 C 
ATOM     33  C   UNL     1      34.823  -2.271 -27.071  0.00  0.00    -0.003 C 
ATOM     34  C   UNL     1      36.582  -4.420 -26.811  0.00  0.00    -0.000 C 
ATOM     35  C   UNL     1      36.181  -2.097 -27.340  0.00  0.00    -0.000 C 
ATOM     36  C   UNL     1      37.060  -3.173 -27.210  0.00  0.00    -0.000 C 
ENDBRANCH  24  31
BRANCH  24  38
ATOM     37  N   UNL     1      31.938  -1.929 -24.654  0.00  0.00    -0.195 NA
ATOM     38  C   UNL     1      32.347  -2.710 -25.409  0.00  0.00    +0.079 C 
ENDBRANCH  24  38
ENDBRANCH  23  24
ENDBRANCH  22  23
ENDBRANCH   1  22
TORSDOF 8
ENDMDL
MODEL 4
REMARK VINA RESULT:      -9.0      7.091     12.292
REMARK  Name = 61791
REMARK  8 active torsions:
REMARK  status: ('A' for Active; 'I' for Inactive)
REMARK    1  A    between atoms: N_1  and  C_22
REMARK    2  A    between atoms: C_2  and  N_10
REMARK    3  A    between atoms: C_17  and  C_20
REMARK    4  A    between atoms: C_22  and  C_23
REMARK    5  A    between atoms: C_23  and  C_24
REMARK    6  A    between atoms: C_24  and  C_25
REMARK    7  A    between atoms: C_24  and  C_31
REMARK    8  A    between atoms: C_24  and  C_38
REMARK                            x       y       z     vdW  Elec       q    Type
REMARK                         _______ _______ _______ _____ _____    ______ ____
ROOT
ATOM      1  N   UNL     1      34.827 -21.142 -19.041  0.00  0.00    +0.387 N 
ATOM      2  C   UNL     1      34.947 -23.174 -16.940  0.00  0.00    +0.086 C 
ATOM      3  C   UNL     1      35.979 -22.051 -17.050  0.00  0.00    -0.000 C 
ATOM      4  C   UNL     1      33.629 -22.746 -17.587  0.00  0.00    -0.000 C 
ATOM      5  C   UNL     1      36.121 -21.569 -18.495  0.00  0.00    -0.075 C 
ATOM      6  C   UNL     1      33.850 -22.240 -19.014  0.00  0.00    -0.075 C 
ATOM      7  H   UNL     1      34.469 -20.388 -18.453  0.00  0.00    -0.080 HD
ENDROOT
BRANCH   2  10
ATOM      8  O   UNL     1      36.888 -24.342 -14.978  0.00  0.00    -0.246 OA
ATOM      9  O   UNL     1      34.916 -25.016 -11.174  0.00  0.00    -0.271 OA
ATOM     10  N   UNL     1      34.742 -23.559 -15.566  0.00  0.00    -0.282 N 
ATOM     11  N   UNL     1      35.043 -24.332 -13.419  0.00  0.00    -0.229 N 
ATOM     12  C   UNL     1      33.526 -23.438 -14.888  0.00  0.00    +0.080 A 
ATOM     13  C   UNL     1      35.721 -24.109 -14.696  0.00  0.00    +0.337 A 
ATOM     14  C   UNL     1      33.695 -23.905 -13.583  0.00  0.00    +0.087 A 
ATOM     15  C   UNL     1      32.316 -22.953 -15.351  0.00  0.00    +0.019 C 
ATOM     16  C   UNL     1      32.634 -23.895 -12.695  0.00  0.00    +0.019 C 
ATOM     17  C   UNL     1      35.550 -24.859 -12.217  0.00  0.00    +0.245 C 
ATOM     18  C   UNL     1      31.243 -22.941 -14.461  0.00  0.00    +0.002 C 
ATOM     19  C   UNL     1      31.400 -23.408 -13.145  0.00  0.00    +0.002 C 
BRANCH  17  20
ATOM     20  C   UNL     1      37.007 -25.248 -12.263  0.00  0.00    +0.089 C 
ATOM     21  C   UNL     1      37.833 -24.240 -11.503  0.00  0.00    +0.010 C 
ENDBRANCH  17  20
ENDBRANCH   2  10
BRANCH   1  22
ATOM     22  C   UNL     1      34.988 -20.635 -20.404  0.00  0.00    -0.076 C 
BRANCH  22  23
ATOM     23  C   UNL     1      34.801 -19.108 -20.423  0.00  0.00    -0.000 C 
BRANCH  23  24
ATOM     24  C   UNL     1      35.458 -18.366 -21.646  0.00  0.00    +0.115 C 
BRANCH  24  25
ATOM     25  C   UNL     1      35.135 -16.848 -21.683  0.00  0.00    -0.006 C 
ATOM     26  C   UNL     1      35.155 -16.222 -22.897  0.00  0.00    -0.003 C 
ATOM     27  C   UNL     1      34.852 -16.227 -20.500  0.00  0.00    -0.003 C 
ATOM     28  C   UNL     1      34.865 -14.858 -22.931  0.00  0.00    -0.000 C 
ATOM     29  C   UNL     1      34.562 -14.863 -20.534  0.00  0.00    -0.000 C 
ATOM     30  C   UNL     1      34.569 -14.179 -21.750  0.00  0.00    -0.000 C 
ENDBRANCH  24  25
BRANCH  24  31
ATOM     31  C   UNL     1      34.952 -19.029 -22.950  0.00  0.00    -0.006 C 
ATOM     32  C   UNL     1      35.622 -20.128 -23.413  0.00  0.00    -0.003 C 
ATOM     33  C   UNL     1      33.863 -18.478 -23.568  0.00  0.00    -0.003 C 
ATOM     34  C   UNL     1      35.165 -20.724 -24.588  0.00  0.00    -0.000 C 
ATOM     35  C   UNL     1      33.407 -19.074 -24.743  0.00  0.00    -0.000 C 
ATOM     36  C   UNL     1      34.058 -20.198 -25.253  0.00  0.00    -0.000 C 
ENDBRANCH  24  31
BRANCH  24  38
ATOM     37  N   UNL     1      38.085 -18.579 -21.313  0.00  0.00    -0.195 NA
ATOM     38  C   UNL     1      36.937 -18.477 -21.456  0.00  0.00    +0.079 C 
ENDBRANCH  24  38
ENDBRANCH  23  24
ENDBRANCH  22  23
ENDBRANCH   1  22
TORSDOF 8
ENDMDL
MODEL 5
REMARK VINA RESULT:      -8.9      2.900     10.695
REMARK  Name = 61791
REMARK  8 active torsions:
REMARK  status: ('A' for Active; 'I' for Inactive)
REMARK    1  A    between atoms: N_1  and  C_22
REMARK    2  A    between atoms: C_2  and  N_10
REMARK    3  A    between atoms: C_17  and  C_20
REMARK    4  A    between atoms: C_22  and  C_23
REMARK    5  A    between atoms: C_23  and  C_24
REMARK    6  A    between atoms: C_24  and  C_25
REMARK    7  A    between atoms: C_24  and  C_31
REMARK    8  A    between atoms: C_24  and  C_38
REMARK                            x       y       z     vdW  Elec       q    Type
REMARK                         _______ _______ _______ _____ _____    ______ ____
ROOT
ATOM      1  N   UNL     1      33.901 -15.182 -20.273  0.00  0.00    +0.387 N 
ATOM      2  C   UNL     1      32.568 -12.851 -21.436  0.00  0.00    +0.086 C 
ATOM      3  C   UNL     1      32.228 -13.374 -20.040  0.00  0.00    -0.000 C 
ATOM      4  C   UNL     1      33.994 -13.250 -21.817  0.00  0.00    -0.000 C 
ATOM      5  C   UNL     1      32.507 -14.875 -19.927  0.00  0.00    -0.075 C 
ATOM      6  C   UNL     1      34.215 -14.754 -21.644  0.00  0.00    -0.075 C 
ATOM      7  H   UNL     1      34.506 -14.663 -19.636  0.00  0.00    -0.080 HD
ENDROOT
BRANCH   2  10
ATOM      8  O   UNL     1      32.666 -11.041 -23.823  0.00  0.00    -0.246 OA
ATOM      9  O   UNL     1      31.976  -6.940 -22.592  0.00  0.00    -0.271 OA
ATOM     10  N   UNL     1      32.398 -11.422 -21.510  0.00  0.00    -0.282 N 
ATOM     11  N   UNL     1      32.226  -9.252 -22.260  0.00  0.00    -0.229 N 
ATOM     12  C   UNL     1      32.141 -10.602 -20.408  0.00  0.00    +0.080 A 
ATOM     13  C   UNL     1      32.459 -10.632 -22.688  0.00  0.00    +0.337 A 
ATOM     14  C   UNL     1      32.035  -9.282 -20.849  0.00  0.00    +0.087 A 
ATOM     15  C   UNL     1      32.002 -10.953 -19.076  0.00  0.00    +0.019 C 
ATOM     16  C   UNL     1      31.781  -8.263 -19.949  0.00  0.00    +0.019 C 
ATOM     17  C   UNL     1      32.181  -8.073 -23.025  0.00  0.00    +0.245 C 
ATOM     18  C   UNL     1      31.748  -9.929 -18.164  0.00  0.00    +0.002 C 
ATOM     19  C   UNL     1      31.638  -8.597 -18.596  0.00  0.00    +0.002 C 
BRANCH  17  20
ATOM     20  C   UNL     1      32.409  -8.271 -24.503  0.00  0.00    +0.089 C 
ATOM     21  C   UNL     1      32.631  -6.936 -25.172  0.00  0.00    +0.010 C 
ENDBRANCH  17  20
ENDBRANCH   2  10
BRANCH   1  22
ATOM     22  C   UNL     1      34.166 -16.611 -20.110  0.00  0.00    -0.076 C 
BRANCH  22  23
ATOM     23  C   UNL     1      35.592 -16.939 -20.587  0.00  0.00    -0.000 C 
BRANCH  23  24
ATOM     24  C   UNL     1      35.734 -18.269 -21.417  0.00  0.00    +0.115 C 
BRANCH  24  25
ATOM     25  C   UNL     1      35.036 -18.200 -22.803  0.00  0.00    -0.006 C 
ATOM     26  C   UNL     1      34.990 -16.990 -23.434  0.00  0.00    -0.003 C 
ATOM     27  C   UNL     1      34.508 -19.353 -23.308  0.00  0.00    -0.003 C 
ATOM     28  C   UNL     1      34.363 -16.928 -24.678  0.00  0.00    -0.000 C 
ATOM     29  C   UNL     1      33.881 -19.292 -24.552  0.00  0.00    -0.000 C 
ATOM     30  C   UNL     1      33.809 -18.078 -25.237  0.00  0.00    -0.000 C 
ENDBRANCH  24  25
BRANCH  24  31
ATOM     31  C   UNL     1      35.121 -19.428 -20.593  0.00  0.00    -0.006 C 
ATOM     32  C   UNL     1      35.975 -20.254 -19.916  0.00  0.00    -0.003 C 
ATOM     33  C   UNL     1      33.760 -19.561 -20.590  0.00  0.00    -0.003 C 
ATOM     34  C   UNL     1      35.422 -21.297 -19.173  0.00  0.00    -0.000 C 
ATOM     35  C   UNL     1      33.208 -20.606 -19.848  0.00  0.00    -0.000 C 
ATOM     36  C   UNL     1      34.039 -21.474 -19.140  0.00  0.00    -0.000 C 
ENDBRANCH  24  31
BRANCH  24  38
ATOM     37  N   UNL     1      38.330 -18.575 -21.886  0.00  0.00    -0.195 NA
ATOM     38  C   UNL     1      37.194 -18.439 -21.690  0.00  0.00    +0.079 C 
ENDBRANCH  24  38
ENDBRANCH  23  24
ENDBRANCH  22  23
ENDBRANCH   1  22
TORSDOF 8
ENDMDL
MODEL 6
REMARK VINA RESULT:      -8.8      0.964      3.204
REMARK  Name = 61791
REMARK  8 active torsions:
REMARK  status: ('A' for Active; 'I' for Inactive)
REMARK    1  A    between atoms: N_1  and  C_22
REMARK    2  A    between atoms: C_2  and  N_10
REMARK    3  A    between atoms: C_17  and  C_20
REMARK    4  A    between atoms: C_22  and  C_23
REMARK    5  A    between atoms: C_23  and  C_24
REMARK    6  A    between atoms: C_24  and  C_25
REMARK    7  A    between atoms: C_24  and  C_31
REMARK    8  A    between atoms: C_24  and  C_38
REMARK                            x       y       z     vdW  Elec       q    Type
REMARK                         _______ _______ _______ _____ _____    ______ ____
ROOT
ATOM      1  N   UNL     1      31.875 -10.008 -21.781  0.00  0.00    +0.387 N 
ATOM      2  C   UNL     1      33.547 -12.407 -21.677  0.00  0.00    +0.086 C 
ATOM      3  C   UNL     1      32.121 -12.380 -21.126  0.00  0.00    -0.000 C 
ATOM      4  C   UNL     1      33.714 -11.343 -22.761  0.00  0.00    -0.000 C 
ATOM      5  C   UNL     1      31.723 -10.971 -20.683  0.00  0.00    -0.075 C 
ATOM      6  C   UNL     1      33.263  -9.967 -22.264  0.00  0.00    -0.075 C 
ATOM      7  H   UNL     1      31.282 -10.313 -22.553  0.00  0.00    -0.080 HD
ENDROOT
BRANCH   2  10
ATOM      8  O   UNL     1      34.867 -14.710 -20.285  0.00  0.00    -0.246 OA
ATOM      9  O   UNL     1      35.269 -18.052 -23.019  0.00  0.00    -0.271 OA
ATOM     10  N   UNL     1      33.884 -13.714 -22.183  0.00  0.00    -0.282 N 
ATOM     11  N   UNL     1      34.643 -15.876 -22.388  0.00  0.00    -0.229 N 
ATOM     12  C   UNL     1      33.629 -14.140 -23.489  0.00  0.00    +0.080 A 
ATOM     13  C   UNL     1      34.513 -14.757 -21.455  0.00  0.00    +0.337 A 
ATOM     14  C   UNL     1      34.085 -15.451 -23.627  0.00  0.00    +0.087 A 
ATOM     15  C   UNL     1      33.033 -13.449 -24.530  0.00  0.00    +0.019 C 
ATOM     16  C   UNL     1      33.952 -16.115 -24.834  0.00  0.00    +0.019 C 
ATOM     17  C   UNL     1      35.196 -17.153 -22.181  0.00  0.00    +0.245 C 
ATOM     18  C   UNL     1      32.897 -14.112 -25.749  0.00  0.00    +0.002 C 
ATOM     19  C   UNL     1      33.353 -15.432 -25.900  0.00  0.00    +0.002 C 
BRANCH  17  20
ATOM     20  C   UNL     1      35.730 -17.393 -20.791  0.00  0.00    +0.089 C 
ATOM     21  C   UNL     1      36.497 -18.692 -20.751  0.00  0.00    +0.010 C 
ENDBRANCH  17  20
ENDBRANCH   2  10
BRANCH   1  22
ATOM     22  C   UNL     1      31.443  -8.676 -21.357  0.00  0.00    -0.076 C 
BRANCH  22  23
ATOM     23  C   UNL     1      32.475  -7.623 -21.801  0.00  0.00    -0.000 C 
BRANCH  23  24
ATOM     24  C   UNL     1      32.039  -6.730 -23.023  0.00  0.00    +0.115 C 
BRANCH  24  25
ATOM     25  C   UNL     1      33.208  -6.414 -23.994  0.00  0.00    -0.006 C 
ATOM     26  C   UNL     1      34.482  -6.503 -23.509  0.00  0.00    -0.003 C 
ATOM     27  C   UNL     1      32.894  -6.065 -25.276  0.00  0.00    -0.003 C 
ATOM     28  C   UNL     1      35.532  -6.218 -24.381  0.00  0.00    -0.000 C 
ATOM     29  C   UNL     1      33.945  -5.781 -26.149  0.00  0.00    -0.000 C 
ATOM     30  C   UNL     1      35.264  -5.858 -25.701  0.00  0.00    -0.000 C 
ENDBRANCH  24  25
BRANCH  24  31
ATOM     31  C   UNL     1      31.456  -5.404 -22.476  0.00  0.00    -0.006 C 
ATOM     32  C   UNL     1      32.185  -4.261 -22.656  0.00  0.00    -0.003 C 
ATOM     33  C   UNL     1      30.245  -5.450 -21.843  0.00  0.00    -0.003 C 
ATOM     34  C   UNL     1      31.659  -3.067 -22.163  0.00  0.00    -0.000 C 
ATOM     35  C   UNL     1      29.719  -4.255 -21.350  0.00  0.00    -0.000 C 
ATOM     36  C   UNL     1      30.426  -3.064 -21.510  0.00  0.00    -0.000 C 
ENDBRANCH  24  31
BRANCH  24  38
ATOM     37  N   UNL     1      30.276  -8.167 -24.393  0.00  0.00    -0.195 NA
ATOM     38  C   UNL     1      31.052  -7.540 -23.801  0.00  0.00    +0.079 C 
ENDBRANCH  24  38
ENDBRANCH  23  24
ENDBRANCH  22  23
ENDBRANCH   1  22
TORSDOF 8
ENDMDL
MODEL 7
REMARK VINA RESULT:      -8.7      4.020      7.457
REMARK  Name = 61791
REMARK  8 active torsions:
REMARK  status: ('A' for Active; 'I' for Inactive)
REMARK    1  A    between atoms: N_1  and  C_22
REMARK    2  A    between atoms: C_2  and  N_10
REMARK    3  A    between atoms: C_17  and  C_20
REMARK    4  A    between atoms: C_22  and  C_23
REMARK    5  A    between atoms: C_23  and  C_24
REMARK    6  A    between atoms: C_24  and  C_25
REMARK    7  A    between atoms: C_24  and  C_31
REMARK    8  A    between atoms: C_24  and  C_38
REMARK                            x       y       z     vdW  Elec       q    Type
REMARK                         _______ _______ _______ _____ _____    ______ ____
ROOT
ATOM      1  N   UNL     1      34.042  -6.447 -25.243  0.00  0.00    +0.387 N 
ATOM      2  C   UNL     1      32.985  -7.931 -22.953  0.00  0.00    +0.086 C 
ATOM      3  C   UNL     1      32.197  -7.765 -24.253  0.00  0.00    -0.000 C 
ATOM      4  C   UNL     1      34.485  -7.810 -23.225  0.00  0.00    -0.000 C 
ATOM      5  C   UNL     1      32.597  -6.481 -24.984  0.00  0.00    -0.075 C 
ATOM      6  C   UNL     1      34.808  -6.525 -23.991  0.00  0.00    -0.075 C 
ATOM      7  H   UNL     1      34.281  -7.262 -25.808  0.00  0.00    -0.080 HD
ENDROOT
BRANCH   2  10
ATOM      8  O   UNL     1      33.149 -10.715 -24.050  0.00  0.00    -0.246 OA
ATOM      9  O   UNL     1      31.923 -13.568 -21.022  0.00  0.00    -0.271 OA
ATOM     10  N   UNL     1      32.678  -9.187 -22.316  0.00  0.00    -0.282 N 
ATOM     11  N   UNL     1      32.366 -11.425 -21.878  0.00  0.00    -0.229 N 
ATOM     12  C   UNL     1      32.228  -9.311 -20.999  0.00  0.00    +0.080 A 
ATOM     13  C   UNL     1      32.783 -10.473 -22.908  0.00  0.00    +0.337 A 
ATOM     14  C   UNL     1      32.034 -10.665 -20.721  0.00  0.00    +0.087 A 
ATOM     15  C   UNL     1      31.988  -8.319 -20.064  0.00  0.00    +0.019 C 
ATOM     16  C   UNL     1      31.587 -11.064 -19.474  0.00  0.00    +0.019 C 
ATOM     17  C   UNL     1      32.283 -12.828 -21.937  0.00  0.00    +0.245 C 
ATOM     18  C   UNL     1      31.535  -8.716 -18.806  0.00  0.00    +0.002 C 
ATOM     19  C   UNL     1      31.337 -10.076 -18.513  0.00  0.00    +0.002 C 
BRANCH  17  20
ATOM     20  C   UNL     1      32.683 -13.429 -23.261  0.00  0.00    +0.089 C 
ATOM     21  C   UNL     1      33.905 -14.297 -23.083  0.00  0.00    +0.010 C 
ENDBRANCH  17  20
ENDBRANCH   2  10
BRANCH   1  22
ATOM     22  C   UNL     1      34.401  -5.240 -25.987  0.00  0.00    -0.076 C 
BRANCH  22  23
ATOM     23  C   UNL     1      35.926  -5.179 -26.185  0.00  0.00    -0.000 C 
BRANCH  23  24
ATOM     24  C   UNL     1      36.401  -4.945 -27.667  0.00  0.00    +0.115 C 
BRANCH  24  25
ATOM     25  C   UNL     1      37.840  -4.368 -27.763  0.00  0.00    -0.006 C 
ATOM     26  C   UNL     1      38.468  -4.028 -26.598  0.00  0.00    -0.003 C 
ATOM     27  C   UNL     1      38.391  -4.233 -29.004  0.00  0.00    -0.003 C 
ATOM     28  C   UNL     1      39.760  -3.509 -26.684  0.00  0.00    -0.000 C 
ATOM     29  C   UNL     1      39.683  -3.715 -29.090  0.00  0.00    -0.000 C 
ATOM     30  C   UNL     1      40.368  -3.353 -27.929  0.00  0.00    -0.000 C 
ENDBRANCH  24  25
BRANCH  24  31
ATOM     31  C   UNL     1      35.413  -3.968 -28.350  0.00  0.00    -0.006 C 
ATOM     32  C   UNL     1      35.410  -2.665 -27.935  0.00  0.00    -0.003 C 
ATOM     33  C   UNL     1      34.596  -4.464 -29.329  0.00  0.00    -0.003 C 
ATOM     34  C   UNL     1      34.519  -1.786 -28.551  0.00  0.00    -0.000 C 
ATOM     35  C   UNL     1      33.705  -3.585 -29.943  0.00  0.00    -0.000 C 
ATOM     36  C   UNL     1      33.666  -2.245 -29.554  0.00  0.00    -0.000 C 
ENDBRANCH  24  31
BRANCH  24  38
ATOM     37  N   UNL     1      36.490  -7.335 -28.821  0.00  0.00    -0.195 NA
ATOM     38  C   UNL     1      36.446  -6.294 -28.310  0.00  0.00    +0.079 C 
ENDBRANCH  24  38
ENDBRANCH  23  24
ENDBRANCH  22  23
ENDBRANCH   1  22
TORSDOF 8
ENDMDL
MODEL 8
REMARK VINA RESULT:      -8.5      7.004     12.432
REMARK  Name = 61791
REMARK  8 active torsions:
REMARK  status: ('A' for Active; 'I' for Inactive)
REMARK    1  A    between atoms: N_1  and  C_22
REMARK    2  A    between atoms: C_2  and  N_10
REMARK    3  A    between atoms: C_17  and  C_20
REMARK    4  A    between atoms: C_22  and  C_23
REMARK    5  A    between atoms: C_23  and  C_24
REMARK    6  A    between atoms: C_24  and  C_25
REMARK    7  A    between atoms: C_24  and  C_31
REMARK    8  A    between atoms: C_24  and  C_38
REMARK                            x       y       z     vdW  Elec       q    Type
REMARK                         _______ _______ _______ _____ _____    ______ ____
ROOT
ATOM      1  N   UNL     1      35.099 -20.960 -18.893  0.00  0.00    +0.387 N 
ATOM      2  C   UNL     1      34.335 -23.121 -17.074  0.00  0.00    +0.086 C 
ATOM      3  C   UNL     1      35.558 -22.239 -16.826  0.00  0.00    -0.000 C 
ATOM      4  C   UNL     1      33.311 -22.377 -17.931  0.00  0.00    -0.000 C 
ATOM      5  C   UNL     1      36.124 -21.693 -18.138  0.00  0.00    -0.075 C 
ATOM      6  C   UNL     1      33.952 -21.824 -19.207  0.00  0.00    -0.075 C 
ATOM      7  H   UNL     1      34.764 -20.194 -18.309  0.00  0.00    -0.080 HD
ENDROOT
BRANCH   2  10
ATOM      8  O   UNL     1      31.446 -23.458 -16.348  0.00  0.00    -0.246 OA
ATOM      9  O   UNL     1      31.107 -24.838 -12.250  0.00  0.00    -0.271 OA
ATOM     10  N   UNL     1      33.746 -23.555 -15.832  0.00  0.00    -0.282 N 
ATOM     11  N   UNL     1      32.258 -24.154 -14.182  0.00  0.00    -0.229 N 
ATOM     12  C   UNL     1      34.479 -23.912 -14.697  0.00  0.00    +0.080 A 
ATOM     13  C   UNL     1      32.358 -23.689 -15.565  0.00  0.00    +0.337 A 
ATOM     14  C   UNL     1      33.587 -24.277 -13.688  0.00  0.00    +0.087 A 
ATOM     15  C   UNL     1      35.851 -23.928 -14.517  0.00  0.00    +0.019 C 
ATOM     16  C   UNL     1      34.059 -24.676 -12.450  0.00  0.00    +0.019 C 
ATOM     17  C   UNL     1      31.114 -24.446 -13.417  0.00  0.00    +0.245 C 
ATOM     18  C   UNL     1      36.332 -24.329 -13.271  0.00  0.00    +0.002 C 
ATOM     19  C   UNL     1      35.445 -24.699 -12.246  0.00  0.00    +0.002 C 
BRANCH  17  20
ATOM     20  C   UNL     1      29.804 -24.248 -14.138  0.00  0.00    +0.089 C 
ATOM     21  C   UNL     1      29.026 -25.540 -14.157  0.00  0.00    +0.010 C 
ENDBRANCH  17  20
ENDBRANCH   2  10
BRANCH   1  22
ATOM     22  C   UNL     1      35.667 -20.401 -20.119  0.00  0.00    -0.076 C 
BRANCH  22  23
ATOM     23  C   UNL     1      34.965 -19.076 -20.466  0.00  0.00    -0.000 C 
BRANCH  23  24
ATOM     24  C   UNL     1      35.543 -18.319 -21.720  0.00  0.00    +0.115 C 
BRANCH  24  25
ATOM     25  C   UNL     1      35.189 -16.807 -21.736  0.00  0.00    -0.006 C 
ATOM     26  C   UNL     1      35.212 -16.160 -22.939  0.00  0.00    -0.003 C 
ATOM     27  C   UNL     1      34.875 -16.213 -20.547  0.00  0.00    -0.003 C 
ATOM     28  C   UNL     1      34.894 -14.802 -22.953  0.00  0.00    -0.000 C 
ATOM     29  C   UNL     1      34.557 -14.855 -20.561  0.00  0.00    -0.000 C 
ATOM     30  C   UNL     1      34.567 -14.150 -21.765  0.00  0.00    -0.000 C 
ENDBRANCH  24  25
BRANCH  24  31
ATOM     31  C   UNL     1      34.982 -18.989 -22.998  0.00  0.00    -0.006 C 
ATOM     32  C   UNL     1      33.913 -18.399 -23.614  0.00  0.00    -0.003 C 
ATOM     33  C   UNL     1      35.586 -20.134 -23.438  0.00  0.00    -0.003 C 
ATOM     34  C   UNL     1      33.408 -19.004 -24.766  0.00  0.00    -0.000 C 
ATOM     35  C   UNL     1      35.080 -20.739 -24.589  0.00  0.00    -0.000 C 
ATOM     36  C   UNL     1      33.991 -20.173 -25.253  0.00  0.00    -0.000 C 
ENDBRANCH  24  31
BRANCH  24  38
ATOM     37  N   UNL     1      38.186 -18.474 -21.508  0.00  0.00    -0.195 NA
ATOM     38  C   UNL     1      37.032 -18.400 -21.608  0.00  0.00    +0.079 C 
ENDBRANCH  24  38
ENDBRANCH  23  24
ENDBRANCH  22  23
ENDBRANCH   1  22
TORSDOF 8
ENDMDL
MODEL 9
REMARK VINA RESULT:      -8.2      3.635      6.644
REMARK  Name = 61791
REMARK  8 active torsions:
REMARK  status: ('A' for Active; 'I' for Inactive)
REMARK    1  A    between atoms: N_1  and  C_22
REMARK    2  A    between atoms: C_2  and  N_10
REMARK    3  A    between atoms: C_17  and  C_20
REMARK    4  A    between atoms: C_22  and  C_23
REMARK    5  A    between atoms: C_23  and  C_24
REMARK    6  A    between atoms: C_24  and  C_25
REMARK    7  A    between atoms: C_24  and  C_31
REMARK    8  A    between atoms: C_24  and  C_38
REMARK                            x       y       z     vdW  Elec       q    Type
REMARK                         _______ _______ _______ _____ _____    ______ ____
ROOT
ATOM      1  N   UNL     1      31.785  -5.680 -24.217  0.00  0.00    +0.387 N 
ATOM      2  C   UNL     1      31.651  -7.938 -22.362  0.00  0.00    +0.086 C 
ATOM      3  C   UNL     1      30.732  -7.826 -23.578  0.00  0.00    -0.000 C 
ATOM      4  C   UNL     1      32.941  -7.153 -22.598  0.00  0.00    -0.000 C 
ATOM      5  C   UNL     1      30.509  -6.364 -23.971  0.00  0.00    -0.075 C 
ATOM      6  C   UNL     1      32.644  -5.713 -23.025  0.00  0.00    -0.075 C 
ATOM      7  H   UNL     1      32.269  -6.175 -24.967  0.00  0.00    -0.080 HD
ENDROOT
BRANCH   2  10
ATOM      8  O   UNL     1      32.547 -10.151 -24.174  0.00  0.00    -0.246 OA
ATOM      9  O   UNL     1      33.039 -13.811 -21.902  0.00  0.00    -0.271 OA
ATOM     10  N   UNL     1      31.939  -9.317 -22.054  0.00  0.00    -0.282 N 
ATOM     11  N   UNL     1      32.523 -11.538 -22.197  0.00  0.00    -0.229 N 
ATOM     12  C   UNL     1      31.839  -9.874 -20.776  0.00  0.00    +0.080 A 
ATOM     13  C   UNL     1      32.361 -10.310 -22.976  0.00  0.00    +0.337 A 
ATOM     14  C   UNL     1      32.191 -11.222 -20.849  0.00  0.00    +0.087 A 
ATOM     15  C   UNL     1      31.465  -9.268 -19.589  0.00  0.00    +0.019 C 
ATOM     16  C   UNL     1      32.176 -12.011 -19.713  0.00  0.00    +0.019 C 
ATOM     17  C   UNL     1      32.923 -12.819 -22.620  0.00  0.00    +0.245 C 
ATOM     18  C   UNL     1      31.448 -10.059 -18.440  0.00  0.00    +0.002 C 
ATOM     19  C   UNL     1      31.800 -11.417 -18.501  0.00  0.00    +0.002 C 
BRANCH  17  20
ATOM     20  C   UNL     1      33.228 -12.931 -24.092  0.00  0.00    +0.089 C 
ATOM     21  C   UNL     1      33.296 -14.384 -24.495  0.00  0.00    +0.010 C 
ENDBRANCH  17  20
ENDBRANCH   2  10
BRANCH   1  22
ATOM     22  C   UNL     1      31.553  -4.299 -24.641  0.00  0.00    -0.076 C 
BRANCH  22  23
ATOM     23  C   UNL     1      32.874  -3.667 -25.116  0.00  0.00    -0.000 C 
BRANCH  23  24
ATOM     24  C   UNL     1      33.324  -4.068 -26.570  0.00  0.00    +0.115 C 
BRANCH  24  25
ATOM     25  C   UNL     1      34.752  -3.570 -26.925  0.00  0.00    -0.006 C 
ATOM     26  C   UNL     1      35.666  -4.497 -27.336  0.00  0.00    -0.003 C 
ATOM     27  C   UNL     1      35.009  -2.234 -26.805  0.00  0.00    -0.003 C 
ATOM     28  C   UNL     1      36.948  -4.050 -27.654  0.00  0.00    -0.000 C 
ATOM     29  C   UNL     1      36.291  -1.787 -27.124  0.00  0.00    -0.000 C 
ATOM     30  C   UNL     1      37.260  -2.695 -27.549  0.00  0.00    -0.000 C 
ENDBRANCH  24  25
BRANCH  24  31
ATOM     31  C   UNL     1      32.310  -3.474 -27.579  0.00  0.00    -0.006 C 
ATOM     32  C   UNL     1      32.220  -4.054 -28.814  0.00  0.00    -0.003 C 
ATOM     33  C   UNL     1      31.562  -2.401 -27.179  0.00  0.00    -0.003 C 
ATOM     34  C   UNL     1      31.306  -3.519 -29.722  0.00  0.00    -0.000 C 
ATOM     35  C   UNL     1      30.650  -1.865 -28.087  0.00  0.00    -0.000 C 
ATOM     36  C   UNL     1      30.521  -2.424 -29.359  0.00  0.00    -0.000 C 
ENDBRANCH  24  31
BRANCH  24  38
ATOM     37  N   UNL     1      33.424  -6.721 -26.628  0.00  0.00    -0.195 NA
ATOM     38  C   UNL     1      33.383  -5.562 -26.593  0.00  0.00    +0.079 C 
ENDBRANCH  24  38
ENDBRANCH  23  24
ENDBRANCH  22  23
ENDBRANCH   1  22
TORSDOF 8
ENDMDL
