MODEL 1
REMARK VINA RESULT:     -10.7      0.000      0.000
REMARK  Name = 5326924
REMARK  6 active torsions:
REMARK  status: ('A' for Active; 'I' for Inactive)
REMARK    1  A    between atoms: C_5  and  O_9
REMARK    2  A    between atoms: C_6  and  O_22
REMARK    3  A    between atoms: O_9  and  C_10
REMARK    4  A    between atoms: C_13  and  C_18
REMARK    5  A    between atoms: O_22  and  C_23
REMARK    6  A    between atoms: C_26  and  C_31
REMARK                            x       y       z     vdW  Elec       q    Type
REMARK                         _______ _______ _______ _____ _____    ______ ____
ROOT
ATOM      1  O   UNL     1      35.996 -23.193 -14.345  0.00  0.00    -0.346 OA
ATOM      2  O   UNL     1      33.587 -23.847 -16.113  0.00  0.00    -0.346 OA
ATOM      3  C   UNL     1      34.647 -22.689 -14.334  0.00  0.00    +0.188 C 
ATOM      4  C   UNL     1      34.204 -22.590 -15.781  0.00  0.00    +0.188 C 
ATOM      5  C   UNL     1      33.706 -23.713 -13.749  0.00  0.00    +0.225 C 
ATOM      6  C   UNL     1      35.513 -22.400 -16.508  0.00  0.00    +0.225 C 
ATOM      7  C   UNL     1      36.453 -23.270 -15.703  0.00  0.00    +0.188 C 
ATOM      8  C   UNL     1      33.458 -24.641 -14.922  0.00  0.00    +0.188 C 
ENDROOT
BRANCH   5   9
ATOM      9  O   UNL     1      32.478 -23.092 -13.392  0.00  0.00    -0.474 OA
BRANCH   9  10
ATOM     10  C   UNL     1      31.329 -23.729 -13.781  0.00  0.00    +0.139 C 
ATOM     11  C   UNL     1      30.398 -23.055 -14.561  0.00  0.00    +0.040 C 
ATOM     12  C   UNL     1      31.105 -25.045 -13.388  0.00  0.00    +0.037 C 
ATOM     13  C   UNL     1      29.228 -23.704 -14.957  0.00  0.00    +0.034 C 
ATOM     14  C   UNL     1      29.936 -25.694 -13.783  0.00  0.00    +0.003 C 
ATOM     15  C   UNL     1      28.997 -25.023 -14.567  0.00  0.00    +0.003 C 
BRANCH  13  18
ATOM     16  N   UNL     1      28.151 -23.236 -17.145  0.00  0.00    -0.343 N 
ATOM     17  N   UNL     1      27.433 -22.128 -15.218  0.00  0.00    -0.285 NA
ATOM     18  C   UNL     1      28.249 -23.005 -15.774  0.00  0.00    +0.117 C 
ATOM     19  H   UNL     1      27.482 -22.751 -17.679  0.00  0.00    +0.144 HD
ATOM     20  H   UNL     1      28.754 -23.883 -17.579  0.00  0.00    +0.144 HD
ATOM     21  H   UNL     1      26.769 -21.654 -15.768  0.00  0.00    +0.188 HD
ENDBRANCH  13  18
ENDBRANCH   9  10
ENDBRANCH   5   9
BRANCH   6  22
ATOM     22  O   UNL     1      35.443 -22.777 -17.865  0.00  0.00    -0.474 OA
BRANCH  22  23
ATOM     23  C   UNL     1      34.971 -21.840 -18.755  0.00  0.00    +0.139 C 
ATOM     24  C   UNL     1      35.862 -20.968 -19.365  0.00  0.00    +0.040 C 
ATOM     25  C   UNL     1      33.612 -21.782 -19.029  0.00  0.00    +0.037 C 
ATOM     26  C   UNL     1      35.383 -20.017 -20.267  0.00  0.00    +0.034 C 
ATOM     27  C   UNL     1      33.134 -20.832 -19.932  0.00  0.00    +0.003 C 
ATOM     28  C   UNL     1      34.019 -19.950 -20.550  0.00  0.00    +0.003 C 
BRANCH  26  31
ATOM     29  N   UNL     1      35.964 -18.434 -22.088  0.00  0.00    -0.343 N 
ATOM     30  N   UNL     1      37.498 -18.881 -20.383  0.00  0.00    -0.285 NA
ATOM     31  C   UNL     1      36.306 -19.097 -20.912  0.00  0.00    +0.117 C 
ATOM     32  H   UNL     1      36.604 -17.814 -22.508  0.00  0.00    +0.144 HD
ATOM     33  H   UNL     1      35.083 -18.583 -22.500  0.00  0.00    +0.144 HD
ATOM     34  H   UNL     1      38.124 -18.259 -20.818  0.00  0.00    +0.188 HD
ENDBRANCH  26  31
ENDBRANCH  22  23
ENDBRANCH   6  22
TORSDOF 6
ENDMDL
MODEL 2
REMARK VINA RESULT:     -10.7      9.116     12.877
REMARK  Name = 5326924
REMARK  6 active torsions:
REMARK  status: ('A' for Active; 'I' for Inactive)
REMARK    1  A    between atoms: C_5  and  O_9
REMARK    2  A    between atoms: C_6  and  O_22
REMARK    3  A    between atoms: O_9  and  C_10
REMARK    4  A    between atoms: C_13  and  C_18
REMARK    5  A    between atoms: O_22  and  C_23
REMARK    6  A    between atoms: C_26  and  C_31
REMARK                            x       y       z     vdW  Elec       q    Type
REMARK                         _______ _______ _______ _____ _____    ______ ____
ROOT
ATOM      1  O   UNL     1      31.875 -13.229 -22.799  0.00  0.00    -0.346 OA
ATOM      2  O   UNL     1      34.873 -12.621 -22.810  0.00  0.00    -0.346 OA
ATOM      3  C   UNL     1      32.940 -13.721 -23.635  0.00  0.00    +0.188 C 
ATOM      4  C   UNL     1      33.891 -12.562 -23.860  0.00  0.00    +0.188 C 
ATOM      5  C   UNL     1      33.780 -14.723 -22.884  0.00  0.00    +0.225 C 
ATOM      6  C   UNL     1      32.985 -11.365 -23.712  0.00  0.00    +0.225 C 
ATOM      7  C   UNL     1      32.039 -11.815 -22.620  0.00  0.00    +0.188 C 
ATOM      8  C   UNL     1      34.696 -13.837 -22.064  0.00  0.00    +0.188 C 
ENDROOT
BRANCH   5   9
ATOM      9  O   UNL     1      34.570 -15.473 -23.798  0.00  0.00    -0.474 OA
BRANCH   9  10
ATOM     10  C   UNL     1      34.697 -16.814 -23.547  0.00  0.00    +0.139 C 
ATOM     11  C   UNL     1      35.418 -17.242 -22.438  0.00  0.00    +0.040 C 
ATOM     12  C   UNL     1      34.105 -17.735 -24.405  0.00  0.00    +0.037 C 
ATOM     13  C   UNL     1      35.549 -18.607 -22.183  0.00  0.00    +0.034 C 
ATOM     14  C   UNL     1      34.235 -19.099 -24.150  0.00  0.00    +0.003 C 
ATOM     15  C   UNL     1      34.958 -19.536 -23.040  0.00  0.00    +0.003 C 
BRANCH  13  18
ATOM     16  N   UNL     1      35.704 -19.832 -20.029  0.00  0.00    -0.343 N 
ATOM     17  N   UNL     1      37.577 -18.742 -20.902  0.00  0.00    -0.285 NA
ATOM     18  C   UNL     1      36.302 -19.061 -21.026  0.00  0.00    +0.117 C 
ATOM     19  H   UNL     1      36.233 -20.128 -19.253  0.00  0.00    +0.144 HD
ATOM     20  H   UNL     1      34.753 -20.077 -20.100  0.00  0.00    +0.144 HD
ATOM     21  H   UNL     1      38.089 -19.049 -20.120  0.00  0.00    +0.188 HD
ENDBRANCH  13  18
ENDBRANCH   9  10
ENDBRANCH   5   9
BRANCH   6  22
ATOM     22  O   UNL     1      33.685 -10.187 -23.380  0.00  0.00    -0.474 OA
BRANCH  22  23
ATOM     23  C   UNL     1      32.938  -9.058 -23.136  0.00  0.00    +0.139 C 
ATOM     24  C   UNL     1      33.201  -8.296 -22.006  0.00  0.00    +0.040 C 
ATOM     25  C   UNL     1      31.934  -8.699 -24.023  0.00  0.00    +0.037 C 
ATOM     26  C   UNL     1      32.442  -7.152 -21.758  0.00  0.00    +0.034 C 
ATOM     27  C   UNL     1      31.176  -7.554 -23.776  0.00  0.00    +0.003 C 
ATOM     28  C   UNL     1      31.430  -6.781 -22.644  0.00  0.00    +0.003 C 
BRANCH  26  31
ATOM     29  N   UNL     1      33.279  -6.899 -19.435  0.00  0.00    -0.343 N 
ATOM     30  N   UNL     1      32.401  -5.059 -20.577  0.00  0.00    -0.285 NA
ATOM     31  C   UNL     1      32.708  -6.345 -20.577  0.00  0.00    +0.117 C 
ATOM     32  H   UNL     1      33.451  -6.335 -18.646  0.00  0.00    +0.144 HD
ATOM     33  H   UNL     1      33.512  -7.855 -19.415  0.00  0.00    +0.144 HD
ATOM     34  H   UNL     1      32.580  -4.511 -19.779  0.00  0.00    +0.188 HD
ENDBRANCH  26  31
ENDBRANCH  22  23
ENDBRANCH   6  22
TORSDOF 6
ENDMDL
MODEL 3
REMARK VINA RESULT:     -10.6      7.757     12.401
REMARK  Name = 5326924
REMARK  6 active torsions:
REMARK  status: ('A' for Active; 'I' for Inactive)
REMARK    1  A    between atoms: C_5  and  O_9
REMARK    2  A    between atoms: C_6  and  O_22
REMARK    3  A    between atoms: O_9  and  C_10
REMARK    4  A    between atoms: C_13  and  C_18
REMARK    5  A    between atoms: O_22  and  C_23
REMARK    6  A    between atoms: C_26  and  C_31
REMARK                            x       y       z     vdW  Elec       q    Type
REMARK                         _______ _______ _______ _____ _____    ______ ____
ROOT
ATOM      1  O   UNL     1      34.073 -14.115 -20.768  0.00  0.00    -0.346 OA
ATOM      2  O   UNL     1      33.726 -15.113 -23.638  0.00  0.00    -0.346 OA
ATOM      3  C   UNL     1      34.607 -13.626 -22.013  0.00  0.00    +0.188 C 
ATOM      4  C   UNL     1      34.910 -14.842 -22.867  0.00  0.00    +0.188 C 
ATOM      5  C   UNL     1      33.540 -12.904 -22.797  0.00  0.00    +0.225 C 
ATOM      6  C   UNL     1      35.160 -15.912 -21.832  0.00  0.00    +0.225 C 
ATOM      7  C   UNL     1      34.165 -15.547 -20.752  0.00  0.00    +0.188 C 
ATOM      8  C   UNL     1      32.784 -14.043 -23.451  0.00  0.00    +0.188 C 
ENDROOT
BRANCH   5   9
ATOM      9  O   UNL     1      34.141 -12.113 -23.814  0.00  0.00    -0.474 OA
BRANCH   9  10
ATOM     10  C   UNL     1      34.127 -10.755 -23.628  0.00  0.00    +0.139 C 
ATOM     11  C   UNL     1      32.957 -10.129 -23.216  0.00  0.00    +0.040 C 
ATOM     12  C   UNL     1      35.283 -10.017 -23.855  0.00  0.00    +0.037 C 
ATOM     13  C   UNL     1      32.942  -8.746 -23.026  0.00  0.00    +0.034 C 
ATOM     14  C   UNL     1      35.270  -8.636 -23.666  0.00  0.00    +0.003 C 
ATOM     15  C   UNL     1      34.099  -8.000 -23.253  0.00  0.00    +0.003 C 
BRANCH  13  18
ATOM     16  N   UNL     1      31.588  -7.583 -21.301  0.00  0.00    -0.343 N 
ATOM     17  N   UNL     1      30.712  -7.952 -23.436  0.00  0.00    -0.285 NA
ATOM     18  C   UNL     1      31.722  -8.084 -22.595  0.00  0.00    +0.117 C 
ATOM     19  H   UNL     1      30.752  -7.138 -21.030  0.00  0.00    +0.144 HD
ATOM     20  H   UNL     1      32.328  -7.675 -20.658  0.00  0.00    +0.144 HD
ATOM     21  H   UNL     1      29.885  -7.503 -23.146  0.00  0.00    +0.188 HD
ENDBRANCH  13  18
ENDBRANCH   9  10
ENDBRANCH   5   9
BRANCH   6  22
ATOM     22  O   UNL     1      34.969 -17.215 -22.336  0.00  0.00    -0.474 OA
BRANCH  22  23
ATOM     23  C   UNL     1      35.371 -18.263 -21.540  0.00  0.00    +0.139 C 
ATOM     24  C   UNL     1      34.418 -19.118 -21.005  0.00  0.00    +0.040 C 
ATOM     25  C   UNL     1      36.722 -18.446 -21.286  0.00  0.00    +0.037 C 
ATOM     26  C   UNL     1      34.827 -20.180 -20.197  0.00  0.00    +0.034 C 
ATOM     27  C   UNL     1      37.130 -19.509 -20.478  0.00  0.00    +0.003 C 
ATOM     28  C   UNL     1      36.183 -20.375 -19.935  0.00  0.00    +0.003 C 
BRANCH  26  31
ATOM     29  N   UNL     1      34.210 -22.302 -19.066  0.00  0.00    -0.343 N 
ATOM     30  N   UNL     1      32.559 -20.754 -19.646  0.00  0.00    -0.285 NA
ATOM     31  C   UNL     1      33.839 -21.084 -19.629  0.00  0.00    +0.117 C 
ATOM     32  H   UNL     1      33.525 -22.899 -18.686  0.00  0.00    +0.144 HD
ATOM     33  H   UNL     1      35.158 -22.567 -19.046  0.00  0.00    +0.144 HD
ATOM     34  H   UNL     1      31.889 -21.364 -19.263  0.00  0.00    +0.188 HD
ENDBRANCH  26  31
ENDBRANCH  22  23
ENDBRANCH   6  22
TORSDOF 6
ENDMDL
MODEL 4
REMARK VINA RESULT:     -10.4      8.583     12.283
REMARK  Name = 5326924
REMARK  6 active torsions:
REMARK  status: ('A' for Active; 'I' for Inactive)
REMARK    1  A    between atoms: C_5  and  O_9
REMARK    2  A    between atoms: C_6  and  O_22
REMARK    3  A    between atoms: O_9  and  C_10
REMARK    4  A    between atoms: C_13  and  C_18
REMARK    5  A    between atoms: O_22  and  C_23
REMARK    6  A    between atoms: C_26  and  C_31
REMARK                            x       y       z     vdW  Elec       q    Type
REMARK                         _______ _______ _______ _____ _____    ______ ____
ROOT
ATOM      1  O   UNL     1      33.571 -13.756 -20.556  0.00  0.00    -0.346 OA
ATOM      2  O   UNL     1      33.096 -12.401 -23.256  0.00  0.00    -0.346 OA
ATOM      3  C   UNL     1      33.289 -14.307 -21.856  0.00  0.00    +0.188 C 
ATOM      4  C   UNL     1      32.311 -13.362 -22.528  0.00  0.00    +0.188 C 
ATOM      5  C   UNL     1      34.511 -14.231 -22.737  0.00  0.00    +0.225 C 
ATOM      6  C   UNL     1      31.606 -12.734 -21.352  0.00  0.00    +0.225 C 
ATOM      7  C   UNL     1      32.722 -12.620 -20.336  0.00  0.00    +0.188 C 
ATOM      8  C   UNL     1      34.478 -12.796 -23.225  0.00  0.00    +0.188 C 
ENDROOT
BRANCH   5   9
ATOM      9  O   UNL     1      34.355 -15.096 -23.855  0.00  0.00    -0.474 OA
BRANCH   9  10
ATOM     10  C   UNL     1      34.587 -16.429 -23.641  0.00  0.00    +0.139 C 
ATOM     11  C   UNL     1      35.461 -16.822 -22.635  0.00  0.00    +0.040 C 
ATOM     12  C   UNL     1      33.947 -17.375 -24.433  0.00  0.00    +0.037 C 
ATOM     13  C   UNL     1      35.698 -18.180 -22.417  0.00  0.00    +0.034 C 
ATOM     14  C   UNL     1      34.183 -18.732 -24.216  0.00  0.00    +0.003 C 
ATOM     15  C   UNL     1      35.059 -19.135 -23.208  0.00  0.00    +0.003 C 
BRANCH  13  18
ATOM     16  N   UNL     1      36.143 -19.160 -20.179  0.00  0.00    -0.343 N 
ATOM     17  N   UNL     1      37.914 -18.448 -21.526  0.00  0.00    -0.285 NA
ATOM     18  C   UNL     1      36.612 -18.599 -21.366  0.00  0.00    +0.117 C 
ATOM     19  H   UNL     1      36.779 -19.436 -19.480  0.00  0.00    +0.144 HD
ATOM     20  H   UNL     1      35.175 -19.278 -20.039  0.00  0.00    +0.144 HD
ATOM     21  H   UNL     1      38.534 -18.731 -20.817  0.00  0.00    +0.188 HD
ENDBRANCH  13  18
ENDBRANCH   9  10
ENDBRANCH   5   9
BRANCH   6  22
ATOM     22  O   UNL     1      31.023 -11.489 -21.666  0.00  0.00    -0.474 OA
BRANCH  22  23
ATOM     23  C   UNL     1      31.364 -10.416 -20.875  0.00  0.00    +0.139 C 
ATOM     24  C   UNL     1      32.005  -9.325 -21.444  0.00  0.00    +0.040 C 
ATOM     25  C   UNL     1      31.063 -10.444 -19.521  0.00  0.00    +0.037 C 
ATOM     26  C   UNL     1      32.352  -8.238 -20.641  0.00  0.00    +0.034 C 
ATOM     27  C   UNL     1      31.410  -9.356 -18.719  0.00  0.00    +0.003 C 
ATOM     28  C   UNL     1      32.054  -8.254 -19.279  0.00  0.00    +0.003 C 
BRANCH  26  31
ATOM     29  N   UNL     1      34.119  -7.241 -22.073  0.00  0.00    -0.343 N 
ATOM     30  N   UNL     1      32.597  -5.867 -20.952  0.00  0.00    -0.285 NA
ATOM     31  C   UNL     1      33.024  -7.088 -21.226  0.00  0.00    +0.117 C 
ATOM     32  H   UNL     1      34.559  -6.449 -22.458  0.00  0.00    +0.144 HD
ATOM     33  H   UNL     1      34.454  -8.142 -22.286  0.00  0.00    +0.144 HD
ATOM     34  H   UNL     1      33.050  -5.088 -21.346  0.00  0.00    +0.188 HD
ENDBRANCH  26  31
ENDBRANCH  22  23
ENDBRANCH   6  22
TORSDOF 6
ENDMDL
MODEL 5
REMARK VINA RESULT:     -10.4      3.516      7.854
REMARK  Name = 5326924
REMARK  6 active torsions:
REMARK  status: ('A' for Active; 'I' for Inactive)
REMARK    1  A    between atoms: C_5  and  O_9
REMARK    2  A    between atoms: C_6  and  O_22
REMARK    3  A    between atoms: O_9  and  C_10
REMARK    4  A    between atoms: C_13  and  C_18
REMARK    5  A    between atoms: O_22  and  C_23
REMARK    6  A    between atoms: C_26  and  C_31
REMARK                            x       y       z     vdW  Elec       q    Type
REMARK                         _______ _______ _______ _____ _____    ______ ____
ROOT
ATOM      1  O   UNL     1      32.233 -22.760 -15.571  0.00  0.00    -0.346 OA
ATOM      2  O   UNL     1      34.612 -24.641 -15.963  0.00  0.00    -0.346 OA
ATOM      3  C   UNL     1      33.538 -22.533 -16.136  0.00  0.00    +0.188 C 
ATOM      4  C   UNL     1      34.516 -23.357 -15.322  0.00  0.00    +0.188 C 
ATOM      5  C   UNL     1      33.629 -23.140 -17.513  0.00  0.00    +0.225 C 
ATOM      6  C   UNL     1      33.827 -23.451 -13.983  0.00  0.00    +0.225 C 
ATOM      7  C   UNL     1      32.370 -23.551 -14.382  0.00  0.00    +0.188 C 
ATOM      8  C   UNL     1      33.902 -24.601 -17.212  0.00  0.00    +0.188 C 
ENDROOT
BRANCH   5   9
ATOM      9  O   UNL     1      34.748 -22.601 -18.205  0.00  0.00    -0.474 OA
BRANCH   9  10
ATOM     10  C   UNL     1      34.495 -21.588 -19.092  0.00  0.00    +0.139 C 
ATOM     11  C   UNL     1      35.548 -20.832 -19.593  0.00  0.00    +0.040 C 
ATOM     12  C   UNL     1      33.186 -21.326 -19.482  0.00  0.00    +0.037 C 
ATOM     13  C   UNL     1      35.289 -19.800 -20.497  0.00  0.00    +0.034 C 
ATOM     14  C   UNL     1      32.927 -20.295 -20.384  0.00  0.00    +0.003 C 
ATOM     15  C   UNL     1      33.979 -19.532 -20.891  0.00  0.00    +0.003 C 
BRANCH  13  18
ATOM     16  N   UNL     1      36.270 -18.324 -22.236  0.00  0.00    -0.343 N 
ATOM     17  N   UNL     1      37.521 -18.920 -20.355  0.00  0.00    -0.285 NA
ATOM     18  C   UNL     1      36.386 -19.005 -21.025  0.00  0.00    +0.117 C 
ATOM     19  H   UNL     1      37.025 -17.791 -22.575  0.00  0.00    +0.144 HD
ATOM     20  H   UNL     1      35.433 -18.377 -22.752  0.00  0.00    +0.144 HD
ATOM     21  H   UNL     1      38.264 -18.382 -20.710  0.00  0.00    +0.188 HD
ENDBRANCH  13  18
ENDBRANCH   9  10
ENDBRANCH   5   9
BRANCH   6  22
ATOM     22  O   UNL     1      34.263 -24.553 -13.220  0.00  0.00    -0.474 OA
BRANCH  22  23
ATOM     23  C   UNL     1      35.553 -24.517 -12.742  0.00  0.00    +0.139 C 
ATOM     24  C   UNL     1      36.539 -25.254 -13.382  0.00  0.00    +0.040 C 
ATOM     25  C   UNL     1      35.846 -23.744 -11.627  0.00  0.00    +0.037 C 
ATOM     26  C   UNL     1      37.847 -25.218 -12.896  0.00  0.00    +0.034 C 
ATOM     27  C   UNL     1      37.154 -23.708 -11.142  0.00  0.00    +0.003 C 
ATOM     28  C   UNL     1      38.154 -24.444 -11.776  0.00  0.00    +0.003 C 
BRANCH  26  31
ATOM     29  N   UNL     1      40.201 -25.521 -13.622  0.00  0.00    -0.343 N 
ATOM     30  N   UNL     1      38.598 -27.149 -14.113  0.00  0.00    -0.285 NA
ATOM     31  C   UNL     1      38.890 -25.986 -13.557  0.00  0.00    +0.117 C 
ATOM     32  H   UNL     1      40.892 -26.057 -14.075  0.00  0.00    +0.144 HD
ATOM     33  H   UNL     1      40.438 -24.656 -13.217  0.00  0.00    +0.144 HD
ATOM     34  H   UNL     1      39.302 -27.670 -14.562  0.00  0.00    +0.188 HD
ENDBRANCH  26  31
ENDBRANCH  22  23
ENDBRANCH   6  22
TORSDOF 6
ENDMDL
MODEL 6
REMARK VINA RESULT:     -10.3      8.363     12.254
REMARK  Name = 5326924
REMARK  6 active torsions:
REMARK  status: ('A' for Active; 'I' for Inactive)
REMARK    1  A    between atoms: C_5  and  O_9
REMARK    2  A    between atoms: C_6  and  O_22
REMARK    3  A    between atoms: O_9  and  C_10
REMARK    4  A    between atoms: C_13  and  C_18
REMARK    5  A    between atoms: O_22  and  C_23
REMARK    6  A    between atoms: C_26  and  C_31
REMARK                            x       y       z     vdW  Elec       q    Type
REMARK                         _______ _______ _______ _____ _____    ______ ____
ROOT
ATOM      1  O   UNL     1      32.687 -13.226 -24.740  0.00  0.00    -0.346 OA
ATOM      2  O   UNL     1      34.436 -13.567 -22.255  0.00  0.00    -0.346 OA
ATOM      3  C   UNL     1      32.340 -13.369 -23.350  0.00  0.00    +0.188 C 
ATOM      4  C   UNL     1      33.333 -14.346 -22.750  0.00  0.00    +0.188 C 
ATOM      5  C   UNL     1      32.616 -12.088 -22.604  0.00  0.00    +0.225 C 
ATOM      6  C   UNL     1      33.728 -15.181 -23.943  0.00  0.00    +0.225 C 
ATOM      7  C   UNL     1      33.730 -14.158 -25.059  0.00  0.00    +0.188 C 
ATOM      8  C   UNL     1      34.108 -12.170 -22.346  0.00  0.00    +0.188 C 
ENDROOT
BRANCH   5   9
ATOM      9  O   UNL     1      31.936 -12.100 -21.354  0.00  0.00    -0.474 OA
BRANCH   9  10
ATOM     10  C   UNL     1      31.894 -10.918 -20.664  0.00  0.00    +0.139 C 
ATOM     11  C   UNL     1      31.851  -9.715 -21.358  0.00  0.00    +0.040 C 
ATOM     12  C   UNL     1      31.895 -10.933 -19.273  0.00  0.00    +0.037 C 
ATOM     13  C   UNL     1      31.808  -8.511 -20.654  0.00  0.00    +0.034 C 
ATOM     14  C   UNL     1      31.852  -9.730 -18.569  0.00  0.00    +0.003 C 
ATOM     15  C   UNL     1      31.810  -8.520 -19.260  0.00  0.00    +0.003 C 
BRANCH  13  18
ATOM     16  N   UNL     1      31.522  -7.206 -22.747  0.00  0.00    -0.343 N 
ATOM     17  N   UNL     1      31.958  -6.114 -20.728  0.00  0.00    -0.285 NA
ATOM     18  C   UNL     1      31.764  -7.249 -21.375  0.00  0.00    +0.117 C 
ATOM     19  H   UNL     1      31.497  -6.340 -23.215  0.00  0.00    +0.144 HD
ATOM     20  H   UNL     1      31.379  -8.042 -23.248  0.00  0.00    +0.144 HD
ATOM     21  H   UNL     1      31.928  -5.259 -21.214  0.00  0.00    +0.188 HD
ENDBRANCH  13  18
ENDBRANCH   9  10
ENDBRANCH   5   9
BRANCH   6  22
ATOM     22  O   UNL     1      34.978 -15.813 -23.778  0.00  0.00    -0.474 OA
BRANCH  22  23
ATOM     23  C   UNL     1      34.969 -17.143 -23.427  0.00  0.00    +0.139 C 
ATOM     24  C   UNL     1      35.577 -17.542 -22.246  0.00  0.00    +0.040 C 
ATOM     25  C   UNL     1      34.351 -18.064 -24.261  0.00  0.00    +0.037 C 
ATOM     26  C   UNL     1      35.569 -18.892 -21.891  0.00  0.00    +0.034 C 
ATOM     27  C   UNL     1      34.342 -19.414 -23.906  0.00  0.00    +0.003 C 
ATOM     28  C   UNL     1      34.951 -19.827 -22.722  0.00  0.00    +0.003 C 
BRANCH  26  31
ATOM     29  N   UNL     1      35.576 -20.217 -19.792  0.00  0.00    -0.343 N 
ATOM     30  N   UNL     1      37.400 -18.862 -20.335  0.00  0.00    -0.285 NA
ATOM     31  C   UNL     1      36.204 -19.323 -20.656  0.00  0.00    +0.117 C 
ATOM     32  H   UNL     1      36.024 -20.497 -18.961  0.00  0.00    +0.144 HD
ATOM     33  H   UNL     1      34.683 -20.570 -20.012  0.00  0.00    +0.144 HD
ATOM     34  H   UNL     1      37.831 -19.152 -19.499  0.00  0.00    +0.188 HD
ENDBRANCH  26  31
ENDBRANCH  22  23
ENDBRANCH   6  22
TORSDOF 6
ENDMDL
MODEL 7
REMARK VINA RESULT:     -10.2      9.844     13.508
REMARK  Name = 5326924
REMARK  6 active torsions:
REMARK  status: ('A' for Active; 'I' for Inactive)
REMARK    1  A    between atoms: C_5  and  O_9
REMARK    2  A    between atoms: C_6  and  O_22
REMARK    3  A    between atoms: O_9  and  C_10
REMARK    4  A    between atoms: C_13  and  C_18
REMARK    5  A    between atoms: O_22  and  C_23
REMARK    6  A    between atoms: C_26  and  C_31
REMARK                            x       y       z     vdW  Elec       q    Type
REMARK                         _______ _______ _______ _____ _____    ______ ____
ROOT
ATOM      1  O   UNL     1      33.365 -11.544 -24.629  0.00  0.00    -0.346 OA
ATOM      2  O   UNL     1      32.542 -12.559 -21.863  0.00  0.00    -0.346 OA
ATOM      3  C   UNL     1      34.125 -12.195 -23.593  0.00  0.00    +0.188 C 
ATOM      4  C   UNL     1      33.600 -11.672 -22.270  0.00  0.00    +0.188 C 
ATOM      5  C   UNL     1      33.795 -13.666 -23.544  0.00  0.00    +0.225 C 
ATOM      6  C   UNL     1      33.074 -10.309 -22.646  0.00  0.00    +0.225 C 
ATOM      7  C   UNL     1      32.514 -10.555 -24.030  0.00  0.00    +0.188 C 
ATOM      8  C   UNL     1      32.503 -13.688 -22.751  0.00  0.00    +0.188 C 
ENDROOT
BRANCH   5   9
ATOM      9  O   UNL     1      34.794 -14.360 -22.807  0.00  0.00    -0.474 OA
BRANCH   9  10
ATOM     10  C   UNL     1      34.843 -15.721 -22.965  0.00  0.00    +0.139 C 
ATOM     11  C   UNL     1      35.247 -16.523 -21.905  0.00  0.00    +0.040 C 
ATOM     12  C   UNL     1      34.490 -16.284 -24.187  0.00  0.00    +0.037 C 
ATOM     13  C   UNL     1      35.297 -17.908 -22.067  0.00  0.00    +0.034 C 
ATOM     14  C   UNL     1      34.541 -17.668 -24.349  0.00  0.00    +0.003 C 
ATOM     15  C   UNL     1      34.945 -18.480 -23.290  0.00  0.00    +0.003 C 
BRANCH  13  18
ATOM     16  N   UNL     1      34.844 -19.666 -20.373  0.00  0.00    -0.343 N 
ATOM     17  N   UNL     1      36.951 -18.665 -20.498  0.00  0.00    -0.285 NA
ATOM     18  C   UNL     1      35.719 -18.755 -20.963  0.00  0.00    +0.117 C 
ATOM     19  H   UNL     1      35.150 -20.229 -19.626  0.00  0.00    +0.144 HD
ATOM     20  H   UNL     1      33.919 -19.745 -20.703  0.00  0.00    +0.144 HD
ATOM     21  H   UNL     1      37.239 -19.238 -19.750  0.00  0.00    +0.188 HD
ENDBRANCH  13  18
ENDBRANCH   9  10
ENDBRANCH   5   9
BRANCH   6  22
ATOM     22  O   UNL     1      32.105  -9.829 -21.741  0.00  0.00    -0.474 OA
BRANCH  22  23
ATOM     23  C   UNL     1      32.146  -8.491 -21.425  0.00  0.00    +0.139 C 
ATOM     24  C   UNL     1      31.451  -7.582 -22.211  0.00  0.00    +0.040 C 
ATOM     25  C   UNL     1      32.883  -8.071 -20.327  0.00  0.00    +0.037 C 
ATOM     26  C   UNL     1      31.495  -6.224 -21.891  0.00  0.00    +0.034 C 
ATOM     27  C   UNL     1      32.925  -6.713 -20.007  0.00  0.00    +0.003 C 
ATOM     28  C   UNL     1      32.232  -5.791 -20.789  0.00  0.00    +0.003 C 
BRANCH  26  31
ATOM     29  N   UNL     1      30.072  -4.204 -22.130  0.00  0.00    -0.343 N 
ATOM     30  N   UNL     1      30.769  -5.384 -24.023  0.00  0.00    -0.285 NA
ATOM     31  C   UNL     1      30.772  -5.261 -22.707  0.00  0.00    +0.117 C 
ATOM     32  H   UNL     1      29.590  -3.563 -22.701  0.00  0.00    +0.144 HD
ATOM     33  H   UNL     1      30.060  -4.097 -21.152  0.00  0.00    +0.144 HD
ATOM     34  H   UNL     1      30.280  -4.734 -24.576  0.00  0.00    +0.188 HD
ENDBRANCH  26  31
ENDBRANCH  22  23
ENDBRANCH   6  22
TORSDOF 6
ENDMDL
MODEL 8
REMARK VINA RESULT:     -10.0      3.773      8.824
REMARK  Name = 5326924
REMARK  6 active torsions:
REMARK  status: ('A' for Active; 'I' for Inactive)
REMARK    1  A    between atoms: C_5  and  O_9
REMARK    2  A    between atoms: C_6  and  O_22
REMARK    3  A    between atoms: O_9  and  C_10
REMARK    4  A    between atoms: C_13  and  C_18
REMARK    5  A    between atoms: O_22  and  C_23
REMARK    6  A    between atoms: C_26  and  C_31
REMARK                            x       y       z     vdW  Elec       q    Type
REMARK                         _______ _______ _______ _____ _____    ______ ____
ROOT
ATOM      1  O   UNL     1      33.506 -22.505 -19.407  0.00  0.00    -0.346 OA
ATOM      2  O   UNL     1      36.379 -22.037 -18.468  0.00  0.00    -0.346 OA
ATOM      3  C   UNL     1      34.216 -21.292 -19.096  0.00  0.00    +0.188 C 
ATOM      4  C   UNL     1      35.121 -21.603 -17.920  0.00  0.00    +0.188 C 
ATOM      5  C   UNL     1      35.183 -20.948 -20.201  0.00  0.00    +0.225 C 
ATOM      6  C   UNL     1      34.389 -22.732 -17.237  0.00  0.00    +0.225 C 
ATOM      7  C   UNL     1      33.811 -23.493 -18.411  0.00  0.00    +0.188 C 
ATOM      8  C   UNL     1      36.368 -21.841 -19.892  0.00  0.00    +0.188 C 
ENDROOT
BRANCH   5   9
ATOM      9  O   UNL     1      35.590 -19.591 -20.081  0.00  0.00    -0.474 OA
BRANCH   9  10
ATOM     10  C   UNL     1      35.332 -18.773 -21.150  0.00  0.00    +0.139 C 
ATOM     11  C   UNL     1      35.213 -17.402 -20.955  0.00  0.00    +0.040 C 
ATOM     12  C   UNL     1      35.189 -19.323 -22.419  0.00  0.00    +0.037 C 
ATOM     13  C   UNL     1      34.949 -16.569 -22.043  0.00  0.00    +0.034 C 
ATOM     14  C   UNL     1      34.925 -18.491 -23.507  0.00  0.00    +0.003 C 
ATOM     15  C   UNL     1      34.804 -17.115 -23.318  0.00  0.00    +0.003 C 
BRANCH  13  18
ATOM     16  N   UNL     1      34.649 -14.590 -20.574  0.00  0.00    -0.343 N 
ATOM     17  N   UNL     1      34.869 -14.320 -22.885  0.00  0.00    -0.285 NA
ATOM     18  C   UNL     1      34.823 -15.134 -21.846  0.00  0.00    +0.117 C 
ATOM     19  H   UNL     1      34.565 -13.615 -20.464  0.00  0.00    +0.144 HD
ATOM     20  H   UNL     1      34.608 -15.180 -19.787  0.00  0.00    +0.144 HD
ATOM     21  H   UNL     1      34.784 -13.348 -22.754  0.00  0.00    +0.188 HD
ENDBRANCH  13  18
ENDBRANCH   9  10
ENDBRANCH   5   9
BRANCH   6  22
ATOM     22  O   UNL     1      35.235 -23.525 -16.434  0.00  0.00    -0.474 OA
BRANCH  22  23
ATOM     23  C   UNL     1      34.841 -23.749 -15.135  0.00  0.00    +0.139 C 
ATOM     24  C   UNL     1      35.774 -24.188 -14.206  0.00  0.00    +0.040 C 
ATOM     25  C   UNL     1      33.518 -23.534 -14.776  0.00  0.00    +0.037 C 
ATOM     26  C   UNL     1      35.373 -24.416 -12.888  0.00  0.00    +0.034 C 
ATOM     27  C   UNL     1      33.119 -23.762 -13.459  0.00  0.00    +0.003 C 
ATOM     28  C   UNL     1      34.046 -24.203 -12.516  0.00  0.00    +0.003 C 
BRANCH  26  31
ATOM     29  N   UNL     1      37.707 -24.869 -12.173  0.00  0.00    -0.343 N 
ATOM     30  N   UNL     1      35.925 -25.315 -10.729  0.00  0.00    -0.285 NA
ATOM     31  C   UNL     1      36.340 -24.877 -11.904  0.00  0.00    +0.117 C 
ATOM     32  H   UNL     1      38.345 -25.185 -11.492  0.00  0.00    +0.144 HD
ATOM     33  H   UNL     1      38.036 -24.549 -13.043  0.00  0.00    +0.144 HD
ATOM     34  H   UNL     1      36.577 -25.627 -10.061  0.00  0.00    +0.188 HD
ENDBRANCH  26  31
ENDBRANCH  22  23
ENDBRANCH   6  22
TORSDOF 6
ENDMDL
MODEL 9
REMARK VINA RESULT:     -10.0      3.646      5.432
REMARK  Name = 5326924
REMARK  6 active torsions:
REMARK  status: ('A' for Active; 'I' for Inactive)
REMARK    1  A    between atoms: C_5  and  O_9
REMARK    2  A    between atoms: C_6  and  O_22
REMARK    3  A    between atoms: O_9  and  C_10
REMARK    4  A    between atoms: C_13  and  C_18
REMARK    5  A    between atoms: O_22  and  C_23
REMARK    6  A    between atoms: C_26  and  C_31
REMARK                            x       y       z     vdW  Elec       q    Type
REMARK                         _______ _______ _______ _____ _____    ______ ____
ROOT
ATOM      1  O   UNL     1      32.300 -22.718 -15.947  0.00  0.00    -0.346 OA
ATOM      2  O   UNL     1      35.324 -23.181 -15.967  0.00  0.00    -0.346 OA
ATOM      3  C   UNL     1      33.095 -23.814 -15.456  0.00  0.00    +0.188 C 
ATOM      4  C   UNL     1      34.238 -24.000 -16.435  0.00  0.00    +0.188 C 
ATOM      5  C   UNL     1      33.791 -23.427 -14.175  0.00  0.00    +0.225 C 
ATOM      6  C   UNL     1      33.652 -23.471 -17.721  0.00  0.00    +0.225 C 
ATOM      7  C   UNL     1      32.800 -22.320 -17.232  0.00  0.00    +0.188 C 
ATOM      8  C   UNL     1      34.991 -22.647 -14.674  0.00  0.00    +0.188 C 
ENDROOT
BRANCH   5   9
ATOM      9  O   UNL     1      34.253 -24.594 -13.505  0.00  0.00    -0.474 OA
BRANCH   9  10
ATOM     10  C   UNL     1      35.513 -24.539 -12.969  0.00  0.00    +0.139 C 
ATOM     11  C   UNL     1      36.545 -25.257 -13.562  0.00  0.00    +0.040 C 
ATOM     12  C   UNL     1      35.746 -23.767 -11.836  0.00  0.00    +0.037 C 
ATOM     13  C   UNL     1      37.828 -25.202 -13.016  0.00  0.00    +0.034 C 
ATOM     14  C   UNL     1      37.028 -23.712 -11.290  0.00  0.00    +0.003 C 
ATOM     15  C   UNL     1      38.068 -24.430 -11.879  0.00  0.00    +0.003 C 
BRANCH  13  18
ATOM     16  N   UNL     1      40.214 -25.453 -13.653  0.00  0.00    -0.343 N 
ATOM     17  N   UNL     1      38.671 -27.125 -14.184  0.00  0.00    -0.285 NA
ATOM     18  C   UNL     1      38.912 -25.950 -13.630  0.00  0.00    +0.117 C 
ATOM     19  H   UNL     1      40.934 -25.976 -14.075  0.00  0.00    +0.144 HD
ATOM     20  H   UNL     1      40.414 -24.577 -13.249  0.00  0.00    +0.144 HD
ATOM     21  H   UNL     1      39.404 -27.633 -14.600  0.00  0.00    +0.188 HD
ENDBRANCH  13  18
ENDBRANCH   9  10
ENDBRANCH   5   9
BRANCH   6  22
ATOM     22  O   UNL     1      34.638 -23.068 -18.645  0.00  0.00    -0.474 OA
BRANCH  22  23
ATOM     23  C   UNL     1      34.421 -21.891 -19.324  0.00  0.00    +0.139 C 
ATOM     24  C   UNL     1      35.507 -21.125 -19.726  0.00  0.00    +0.040 C 
ATOM     25  C   UNL     1      33.122 -21.489 -19.595  0.00  0.00    +0.037 C 
ATOM     26  C   UNL     1      35.287 -19.931 -20.413  0.00  0.00    +0.034 C 
ATOM     27  C   UNL     1      32.902 -20.295 -20.283  0.00  0.00    +0.003 C 
ATOM     28  C   UNL     1      33.984 -19.516 -20.692  0.00  0.00    +0.003 C 
BRANCH  26  31
ATOM     29  N   UNL     1      36.393 -18.423 -22.046  0.00  0.00    -0.343 N 
ATOM     30  N   UNL     1      37.491 -19.033 -20.075  0.00  0.00    -0.285 NA
ATOM     31  C   UNL     1      36.416 -19.118 -20.839  0.00  0.00    +0.117 C 
ATOM     32  H   UNL     1      37.168 -17.878 -22.315  0.00  0.00    +0.144 HD
ATOM     33  H   UNL     1      35.603 -18.476 -22.630  0.00  0.00    +0.144 HD
ATOM     34  H   UNL     1      38.255 -18.484 -20.361  0.00  0.00    +0.188 HD
ENDBRANCH  26  31
ENDBRANCH  22  23
ENDBRANCH   6  22
TORSDOF 6
ENDMDL
