MODEL 1
REMARK VINA RESULT:     -11.7      0.000      0.000
REMARK  Name = 9976892
REMARK  4 active torsions:
REMARK  status: ('A' for Active; 'I' for Inactive)
REMARK    1  A    between atoms: N_1  and  C_13
REMARK    2  A    between atoms: C_10  and  O_17
REMARK    3  A    between atoms: O_17  and  C_20
REMARK    4  A    between atoms: C_19  and  N_25
REMARK                            x       y       z     vdW  Elec       q    Type
REMARK                         _______ _______ _______ _____ _____    ______ ____
ROOT
ATOM      1  N   UNL     1      32.795 -12.828 -21.076  0.00  0.00    +0.389 N 
ATOM      2  C   UNL     1      33.387 -13.883 -20.241  0.00  0.00    -0.073 C 
ATOM      3  C   UNL     1      32.416 -13.293 -22.420  0.00  0.00    -0.073 C 
ATOM      4  C   UNL     1      34.793 -14.297 -20.690  0.00  0.00    +0.003 C 
ATOM      5  C   UNL     1      33.619 -13.582 -23.324  0.00  0.00    +0.003 C 
ATOM      6  C   UNL     1      34.791 -15.275 -21.837  0.00  0.00    -0.025 C 
ATOM      7  C   UNL     1      34.236 -14.937 -23.084  0.00  0.00    -0.028 C 
ATOM      8  C   UNL     1      35.368 -16.543 -21.664  0.00  0.00    +0.033 C 
ATOM      9  C   UNL     1      34.271 -15.875 -24.130  0.00  0.00    -0.002 C 
ATOM     10  C   UNL     1      35.392 -17.467 -22.709  0.00  0.00    +0.147 C 
ATOM     11  C   UNL     1      34.844 -17.132 -23.942  0.00  0.00    +0.037 C 
ATOM     12  H   UNL     1      33.501 -12.101 -21.198  0.00  0.00    -0.080 HD
ENDROOT
BRANCH   1  13
ATOM     13  C   UNL     1      31.615 -12.335 -20.413  0.00  0.00    -0.058 C 
ATOM     14  C   UNL     1      31.989 -11.363 -19.275  0.00  0.00    -0.021 C 
ATOM     15  C   UNL     1      31.033 -11.117 -21.159  0.00  0.00    -0.021 C 
ATOM     16  C   UNL     1      30.845 -10.457 -19.777  0.00  0.00    -0.004 C 
ENDBRANCH   1  13
BRANCH  10  17
ATOM     17  O   UNL     1      35.954 -18.692 -22.522  0.00  0.00    -0.436 OA
BRANCH  17  20
ATOM     18  N   UNL     1      36.367 -19.955 -20.621  0.00  0.00    -0.209 NA
ATOM     19  C   UNL     1      34.529 -21.016 -19.462  0.00  0.00    +0.073 C 
ATOM     20  C   UNL     1      35.462 -19.476 -21.492  0.00  0.00    +0.230 C 
ATOM     21  C   UNL     1      33.635 -20.496 -20.390  0.00  0.00    +0.021 C 
ATOM     22  C   UNL     1      35.873 -20.720 -19.620  0.00  0.00    +0.117 C 
ATOM     23  C   UNL     1      34.104 -19.706 -21.434  0.00  0.00    +0.059 C 
BRANCH  19  25
ATOM     24  O   UNL     1      36.090 -22.410 -17.236  0.00  0.00    -0.275 OA
ATOM     25  N   UNL     1      34.077 -21.830 -18.381  0.00  0.00    -0.257 N 
ATOM     26  C   UNL     1      32.596 -22.684 -16.789  0.00  0.00    +0.031 C 
ATOM     27  C   UNL     1      32.684 -22.200 -18.221  0.00  0.00    +0.099 C 
ATOM     28  C   UNL     1      33.966 -23.281 -16.534  0.00  0.00    +0.087 C 
ATOM     29  C   UNL     1      34.879 -22.442 -17.398  0.00  0.00    +0.229 C 
ENDBRANCH  19  25
ENDBRANCH  17  20
ENDBRANCH  10  17
TORSDOF 4
ENDMDL
MODEL 2
REMARK VINA RESULT:     -11.5      1.292      1.859
REMARK  Name = 9976892
REMARK  4 active torsions:
REMARK  status: ('A' for Active; 'I' for Inactive)
REMARK    1  A    between atoms: N_1  and  C_13
REMARK    2  A    between atoms: C_10  and  O_17
REMARK    3  A    between atoms: O_17  and  C_20
REMARK    4  A    between atoms: C_19  and  N_25
REMARK                            x       y       z     vdW  Elec       q    Type
REMARK                         _______ _______ _______ _____ _____    ______ ____
ROOT
ATOM      1  N   UNL     1      32.662 -12.497 -20.913  0.00  0.00    +0.389 N 
ATOM      2  C   UNL     1      33.303 -13.680 -20.322  0.00  0.00    -0.073 C 
ATOM      3  C   UNL     1      32.135 -12.735 -22.266  0.00  0.00    -0.073 C 
ATOM      4  C   UNL     1      34.642 -14.038 -20.976  0.00  0.00    +0.003 C 
ATOM      5  C   UNL     1      33.229 -12.894 -23.326  0.00  0.00    +0.003 C 
ATOM      6  C   UNL     1      34.493 -14.820 -22.257  0.00  0.00    -0.025 C 
ATOM      7  C   UNL     1      33.824 -14.279 -23.369  0.00  0.00    -0.028 C 
ATOM      8  C   UNL     1      35.044 -16.108 -22.347  0.00  0.00    +0.033 C 
ATOM      9  C   UNL     1      33.723 -15.038 -24.547  0.00  0.00    -0.002 C 
ATOM     10  C   UNL     1      34.932 -16.853 -23.521  0.00  0.00    +0.147 C 
ATOM     11  C   UNL     1      34.272 -16.317 -24.621  0.00  0.00    +0.037 C 
ATOM     12  H   UNL     1      33.375 -11.770 -20.993  0.00  0.00    -0.080 HD
ENDROOT
BRANCH   1  13
ATOM     13  C   UNL     1      31.573 -12.098 -20.060  0.00  0.00    -0.058 C 
ATOM     14  C   UNL     1      32.052 -11.105 -18.982  0.00  0.00    -0.021 C 
ATOM     15  C   UNL     1      30.786 -10.926 -20.683  0.00  0.00    -0.021 C 
ATOM     16  C   UNL     1      30.777 -10.288 -19.278  0.00  0.00    -0.004 C 
ENDBRANCH   1  13
BRANCH  10  17
ATOM     17  O   UNL     1      35.471 -18.101 -23.590  0.00  0.00    -0.436 OA
BRANCH  17  20
ATOM     18  N   UNL     1      34.536 -19.580 -22.067  0.00  0.00    -0.209 NA
ATOM     19  C   UNL     1      35.789 -20.234 -20.104  0.00  0.00    +0.073 C 
ATOM     20  C   UNL     1      35.589 -18.817 -22.411  0.00  0.00    +0.230 C 
ATOM     21  C   UNL     1      36.849 -19.429 -20.505  0.00  0.00    +0.021 C 
ATOM     22  C   UNL     1      34.664 -20.274 -20.913  0.00  0.00    +0.117 C 
ATOM     23  C   UNL     1      36.756 -18.700 -21.685  0.00  0.00    +0.059 C 
BRANCH  19  25
ATOM     24  O   UNL     1      33.946 -22.419 -19.027  0.00  0.00    -0.275 OA
ATOM     25  N   UNL     1      35.855 -20.992 -18.899  0.00  0.00    -0.257 N 
ATOM     26  C   UNL     1      36.827 -21.998 -17.026  0.00  0.00    +0.031 C 
ATOM     27  C   UNL     1      36.868 -20.753 -17.889  0.00  0.00    +0.099 C 
ATOM     28  C   UNL     1      35.375 -22.427 -17.098  0.00  0.00    +0.087 C 
ATOM     29  C   UNL     1      34.948 -21.984 -18.479  0.00  0.00    +0.229 C 
ENDBRANCH  19  25
ENDBRANCH  17  20
ENDBRANCH  10  17
TORSDOF 4
ENDMDL
MODEL 3
REMARK VINA RESULT:     -11.4      3.012     10.223
REMARK  Name = 9976892
REMARK  4 active torsions:
REMARK  status: ('A' for Active; 'I' for Inactive)
REMARK    1  A    between atoms: N_1  and  C_13
REMARK    2  A    between atoms: C_10  and  O_17
REMARK    3  A    between atoms: O_17  and  C_20
REMARK    4  A    between atoms: C_19  and  N_25
REMARK                            x       y       z     vdW  Elec       q    Type
REMARK                         _______ _______ _______ _____ _____    ______ ____
ROOT
ATOM      1  N   UNL     1      36.008 -23.992 -13.466  0.00  0.00    +0.389 N 
ATOM      2  C   UNL     1      37.093 -23.557 -14.357  0.00  0.00    -0.073 C 
ATOM      3  C   UNL     1      34.797 -24.416 -14.186  0.00  0.00    -0.073 C 
ATOM      4  C   UNL     1      36.815 -22.216 -15.045  0.00  0.00    +0.003 C 
ATOM      5  C   UNL     1      34.039 -23.254 -14.836  0.00  0.00    +0.003 C 
ATOM      6  C   UNL     1      35.932 -22.338 -16.261  0.00  0.00    -0.025 C 
ATOM      7  C   UNL     1      34.618 -22.830 -16.162  0.00  0.00    -0.028 C 
ATOM      8  C   UNL     1      36.423 -21.941 -17.514  0.00  0.00    +0.033 C 
ATOM      9  C   UNL     1      33.826 -22.911 -17.320  0.00  0.00    -0.002 C 
ATOM     10  C   UNL     1      35.628 -22.031 -18.656  0.00  0.00    +0.147 C 
ATOM     11  C   UNL     1      34.329 -22.516 -18.558  0.00  0.00    +0.037 C 
ATOM     12  H   UNL     1      35.749 -23.193 -12.887  0.00  0.00    -0.080 HD
ENDROOT
BRANCH   1  13
ATOM     13  C   UNL     1      36.486 -25.101 -12.680  0.00  0.00    -0.058 C 
ATOM     14  C   UNL     1      37.337 -26.058 -13.539  0.00  0.00    -0.021 C 
ATOM     15  C   UNL     1      37.787 -24.730 -11.940  0.00  0.00    -0.021 C 
ATOM     16  C   UNL     1      38.328 -26.114 -12.358  0.00  0.00    -0.004 C 
ENDBRANCH   1  13
BRANCH  10  17
ATOM     17  O   UNL     1      36.122 -21.643 -19.863  0.00  0.00    -0.436 OA
BRANCH  17  20
ATOM     18  N   UNL     1      36.828 -19.491 -20.370  0.00  0.00    -0.209 NA
ATOM     19  C   UNL     1      35.231 -17.861 -21.171  0.00  0.00    +0.073 C 
ATOM     20  C   UNL     1      35.810 -20.368 -20.306  0.00  0.00    +0.230 C 
ATOM     21  C   UNL     1      34.215 -18.807 -21.088  0.00  0.00    +0.021 C 
ATOM     22  C   UNL     1      36.509 -18.250 -20.804  0.00  0.00    +0.117 C 
ATOM     23  C   UNL     1      34.502 -20.093 -20.646  0.00  0.00    +0.059 C 
BRANCH  19  25
ATOM     24  O   UNL     1      35.055 -16.719 -23.999  0.00  0.00    -0.275 OA
ATOM     25  N   UNL     1      34.967 -16.534 -21.620  0.00  0.00    -0.257 N 
ATOM     26  C   UNL     1      34.150 -14.346 -21.542  0.00  0.00    +0.031 C 
ATOM     27  C   UNL     1      34.801 -15.425 -20.701  0.00  0.00    +0.099 C 
ATOM     28  C   UNL     1      34.707 -14.598 -22.929  0.00  0.00    +0.087 C 
ATOM     29  C   UNL     1      34.912 -16.095 -22.957  0.00  0.00    +0.229 C 
ENDBRANCH  19  25
ENDBRANCH  17  20
ENDBRANCH  10  17
TORSDOF 4
ENDMDL
MODEL 4
REMARK VINA RESULT:     -11.1      3.423     10.677
REMARK  Name = 9976892
REMARK  4 active torsions:
REMARK  status: ('A' for Active; 'I' for Inactive)
REMARK    1  A    between atoms: N_1  and  C_13
REMARK    2  A    between atoms: C_10  and  O_17
REMARK    3  A    between atoms: O_17  and  C_20
REMARK    4  A    between atoms: C_19  and  N_25
REMARK                            x       y       z     vdW  Elec       q    Type
REMARK                         _______ _______ _______ _____ _____    ______ ____
ROOT
ATOM      1  N   UNL     1      37.943 -24.020 -13.510  0.00  0.00    +0.389 N 
ATOM      2  C   UNL     1      37.998 -23.818 -14.966  0.00  0.00    -0.073 C 
ATOM      3  C   UNL     1      36.633 -24.498 -13.038  0.00  0.00    -0.073 C 
ATOM      4  C   UNL     1      37.183 -22.612 -15.444  0.00  0.00    +0.003 C 
ATOM      5  C   UNL     1      35.534 -23.433 -13.113  0.00  0.00    +0.003 C 
ATOM      6  C   UNL     1      35.711 -22.903 -15.591  0.00  0.00    -0.025 C 
ATOM      7  C   UNL     1      34.931 -23.292 -14.487  0.00  0.00    -0.028 C 
ATOM      8  C   UNL     1      35.103 -22.771 -16.849  0.00  0.00    +0.033 C 
ATOM      9  C   UNL     1      33.559 -23.538 -14.668  0.00  0.00    -0.002 C 
ATOM     10  C   UNL     1      33.741 -23.023 -17.015  0.00  0.00    +0.147 C 
ATOM     11  C   UNL     1      32.970 -23.405 -15.924  0.00  0.00    +0.037 C 
ATOM     12  H   UNL     1      38.108 -23.114 -13.070  0.00  0.00    -0.080 HD
ENDROOT
BRANCH   1  13
ATOM     13  C   UNL     1      38.943 -24.991 -13.150  0.00  0.00    -0.058 C 
ATOM     14  C   UNL     1      38.656 -26.351 -13.820  0.00  0.00    -0.021 C 
ATOM     15  C   UNL     1      40.174 -24.882 -14.073  0.00  0.00    -0.021 C 
ATOM     16  C   UNL     1      40.164 -26.423 -14.141  0.00  0.00    -0.004 C 
ENDBRANCH   1  13
BRANCH  10  17
ATOM     17  O   UNL     1      33.169 -22.891 -18.243  0.00  0.00    -0.436 OA
BRANCH  17  20
ATOM     18  N   UNL     1      32.654 -21.034 -19.536  0.00  0.00    -0.209 NA
ATOM     19  C   UNL     1      34.427 -19.804 -20.629  0.00  0.00    +0.073 C 
ATOM     20  C   UNL     1      33.605 -21.851 -19.048  0.00  0.00    +0.230 C 
ATOM     21  C   UNL     1      35.369 -20.677 -20.098  0.00  0.00    +0.021 C 
ATOM     22  C   UNL     1      33.094 -20.024 -20.321  0.00  0.00    +0.117 C 
ATOM     23  C   UNL     1      34.957 -21.729 -19.287  0.00  0.00    +0.059 C 
BRANCH  19  25
ATOM     24  O   UNL     1      34.409 -19.529 -23.671  0.00  0.00    -0.275 OA
ATOM     25  N   UNL     1      34.819 -18.717 -21.464  0.00  0.00    -0.257 N 
ATOM     26  C   UNL     1      35.280 -16.506 -22.063  0.00  0.00    +0.031 C 
ATOM     27  C   UNL     1      35.405 -17.503 -20.930  0.00  0.00    +0.099 C 
ATOM     28  C   UNL     1      35.391 -17.368 -23.304  0.00  0.00    +0.087 C 
ATOM     29  C   UNL     1      34.782 -18.683 -22.872  0.00  0.00    +0.229 C 
ENDBRANCH  19  25
ENDBRANCH  17  20
ENDBRANCH  10  17
TORSDOF 4
ENDMDL
MODEL 5
REMARK VINA RESULT:     -10.8      2.777      9.102
REMARK  Name = 9976892
REMARK  4 active torsions:
REMARK  status: ('A' for Active; 'I' for Inactive)
REMARK    1  A    between atoms: N_1  and  C_13
REMARK    2  A    between atoms: C_10  and  O_17
REMARK    3  A    between atoms: O_17  and  C_20
REMARK    4  A    between atoms: C_19  and  N_25
REMARK                            x       y       z     vdW  Elec       q    Type
REMARK                         _______ _______ _______ _____ _____    ______ ____
ROOT
ATOM      1  N   UNL     1      31.522 -23.308 -15.172  0.00  0.00    +0.389 N 
ATOM      2  C   UNL     1      31.687 -23.108 -16.620  0.00  0.00    -0.073 C 
ATOM      3  C   UNL     1      32.539 -22.611 -14.368  0.00  0.00    -0.073 C 
ATOM      4  C   UNL     1      32.905 -23.836 -17.199  0.00  0.00    +0.003 C 
ATOM      5  C   UNL     1      33.933 -23.236 -14.477  0.00  0.00    +0.003 C 
ATOM      6  C   UNL     1      34.201 -23.091 -16.999  0.00  0.00    -0.025 C 
ATOM      7  C   UNL     1      34.687 -22.807 -15.710  0.00  0.00    -0.028 C 
ATOM      8  C   UNL     1      34.944 -22.684 -18.118  0.00  0.00    +0.033 C 
ATOM      9  C   UNL     1      35.907 -22.123 -15.571  0.00  0.00    -0.002 C 
ATOM     10  C   UNL     1      36.151 -22.002 -17.966  0.00  0.00    +0.147 C 
ATOM     11  C   UNL     1      36.632 -21.723 -16.692  0.00  0.00    +0.037 C 
ATOM     12  H   UNL     1      31.627 -24.306 -14.988  0.00  0.00    -0.080 HD
ENDROOT
BRANCH   1  13
ATOM     13  C   UNL     1      30.222 -22.817 -14.794  0.00  0.00    -0.058 C 
ATOM     14  C   UNL     1      29.338 -22.587 -16.036  0.00  0.00    -0.021 C 
ATOM     15  C   UNL     1      29.279 -23.982 -14.431  0.00  0.00    -0.021 C 
ATOM     16  C   UNL     1      28.191 -23.253 -15.247  0.00  0.00    -0.004 C 
ENDBRANCH   1  13
BRANCH  10  17
ATOM     17  O   UNL     1      36.857 -21.614 -19.062  0.00  0.00    -0.436 OA
BRANCH  17  20
ATOM     18  N   UNL     1      37.327 -19.543 -19.997  0.00  0.00    -0.209 NA
ATOM     19  C   UNL     1      35.573 -18.301 -21.106  0.00  0.00    +0.073 C 
ATOM     20  C   UNL     1      36.412 -20.499 -19.753  0.00  0.00    +0.230 C 
ATOM     21  C   UNL     1      34.668 -19.319 -20.829  0.00  0.00    +0.021 C 
ATOM     22  C   UNL     1      36.879 -18.460 -20.672  0.00  0.00    +0.117 C 
ATOM     23  C   UNL     1      35.089 -20.449 -20.136  0.00  0.00    +0.059 C 
BRANCH  19  25
ATOM     24  O   UNL     1      34.840 -15.516 -20.086  0.00  0.00    -0.275 OA
ATOM     25  N   UNL     1      35.170 -17.131 -21.813  0.00  0.00    -0.257 N 
ATOM     26  C   UNL     1      34.958 -15.657 -23.615  0.00  0.00    +0.031 C 
ATOM     27  C   UNL     1      34.964 -17.127 -23.249  0.00  0.00    +0.099 C 
ATOM     28  C   UNL     1      34.378 -14.990 -22.383  0.00  0.00    +0.087 C 
ATOM     29  C   UNL     1      34.841 -15.881 -21.253  0.00  0.00    +0.229 C 
ENDBRANCH  19  25
ENDBRANCH  17  20
ENDBRANCH  10  17
TORSDOF 4
ENDMDL
MODEL 6
REMARK VINA RESULT:     -10.4      4.534     11.031
REMARK  Name = 9976892
REMARK  4 active torsions:
REMARK  status: ('A' for Active; 'I' for Inactive)
REMARK    1  A    between atoms: N_1  and  C_13
REMARK    2  A    between atoms: C_10  and  O_17
REMARK    3  A    between atoms: O_17  and  C_20
REMARK    4  A    between atoms: C_19  and  N_25
REMARK                            x       y       z     vdW  Elec       q    Type
REMARK                         _______ _______ _______ _____ _____    ______ ____
ROOT
ATOM      1  N   UNL     1      35.334 -16.483 -22.756  0.00  0.00    +0.389 N 
ATOM      2  C   UNL     1      34.489 -15.563 -23.531  0.00  0.00    -0.073 C 
ATOM      3  C   UNL     1      34.822 -16.744 -21.402  0.00  0.00    -0.073 C 
ATOM      4  C   UNL     1      34.550 -14.115 -23.034  0.00  0.00    +0.003 C 
ATOM      5  C   UNL     1      34.954 -15.544 -20.460  0.00  0.00    +0.003 C 
ATOM      6  C   UNL     1      33.661 -13.852 -21.844  0.00  0.00    -0.025 C 
ATOM      7  C   UNL     1      33.852 -14.528 -20.626  0.00  0.00    -0.028 C 
ATOM      8  C   UNL     1      32.630 -12.904 -21.948  0.00  0.00    +0.033 C 
ATOM      9  C   UNL     1      33.009 -14.239 -19.540  0.00  0.00    -0.002 C 
ATOM     10  C   UNL     1      31.798 -12.630 -20.864  0.00  0.00    +0.147 C 
ATOM     11  C   UNL     1      31.988 -13.297 -19.659  0.00  0.00    +0.037 C 
ATOM     12  H   UNL     1      36.249 -16.042 -22.651  0.00  0.00    -0.080 HD
ENDROOT
BRANCH   1  13
ATOM     13  C   UNL     1      35.411 -17.733 -23.467  0.00  0.00    -0.058 C 
ATOM     14  C   UNL     1      34.853 -18.888 -22.610  0.00  0.00    -0.021 C 
ATOM     15  C   UNL     1      34.184 -17.922 -24.383  0.00  0.00    -0.021 C 
ATOM     16  C   UNL     1      34.130 -19.380 -23.881  0.00  0.00    -0.004 C 
ENDBRANCH   1  13
BRANCH  10  17
ATOM     17  O   UNL     1      30.804 -11.709 -20.984  0.00  0.00    -0.436 OA
BRANCH  17  20
ATOM     18  N   UNL     1      30.706 -10.134 -22.684  0.00  0.00    -0.209 NA
ATOM     19  C   UNL     1      31.796  -7.993 -22.402  0.00  0.00    +0.073 C 
ATOM     20  C   UNL     1      31.145 -10.451 -21.453  0.00  0.00    +0.230 C 
ATOM     21  C   UNL     1      32.224  -8.371 -21.134  0.00  0.00    +0.021 C 
ATOM     22  C   UNL     1      31.046  -8.903 -23.130  0.00  0.00    +0.117 C 
ATOM     23  C   UNL     1      31.896  -9.628 -20.640  0.00  0.00    +0.059 C 
BRANCH  19  25
ATOM     24  O   UNL     1      31.182  -5.192 -21.349  0.00  0.00    -0.275 OA
ATOM     25  N   UNL     1      32.118  -6.711 -22.935  0.00  0.00    -0.257 N 
ATOM     26  C   UNL     1      33.284  -5.120 -24.189  0.00  0.00    +0.031 C 
ATOM     27  C   UNL     1      32.784  -6.549 -24.214  0.00  0.00    +0.099 C 
ATOM     28  C   UNL     1      32.247  -4.399 -23.350  0.00  0.00    +0.087 C 
ATOM     29  C   UNL     1      31.784  -5.461 -22.379  0.00  0.00    +0.229 C 
ENDBRANCH  19  25
ENDBRANCH  17  20
ENDBRANCH  10  17
TORSDOF 4
ENDMDL
MODEL 7
REMARK VINA RESULT:     -10.2      4.724      8.363
REMARK  Name = 9976892
REMARK  4 active torsions:
REMARK  status: ('A' for Active; 'I' for Inactive)
REMARK    1  A    between atoms: N_1  and  C_13
REMARK    2  A    between atoms: C_10  and  O_17
REMARK    3  A    between atoms: O_17  and  C_20
REMARK    4  A    between atoms: C_19  and  N_25
REMARK                            x       y       z     vdW  Elec       q    Type
REMARK                         _______ _______ _______ _____ _____    ______ ____
ROOT
ATOM      1  N   UNL     1      32.671  -6.007 -24.714  0.00  0.00    +0.389 N 
ATOM      2  C   UNL     1      32.141  -7.369 -24.876  0.00  0.00    -0.073 C 
ATOM      3  C   UNL     1      33.432  -5.823 -23.468  0.00  0.00    -0.073 C 
ATOM      4  C   UNL     1      30.992  -7.693 -23.915  0.00  0.00    +0.003 C 
ATOM      5  C   UNL     1      32.552  -5.823 -22.213  0.00  0.00    +0.003 C 
ATOM      6  C   UNL     1      31.458  -8.091 -22.537  0.00  0.00    -0.025 C 
ATOM      7  C   UNL     1      32.196  -7.206 -21.732  0.00  0.00    -0.028 C 
ATOM      8  C   UNL     1      31.136  -9.365 -22.041  0.00  0.00    +0.033 C 
ATOM      9  C   UNL     1      32.595  -7.615 -20.448  0.00  0.00    -0.002 C 
ATOM     10  C   UNL     1      31.543  -9.760 -20.767  0.00  0.00    +0.147 C 
ATOM     11  C   UNL     1      32.272  -8.884 -19.971  0.00  0.00    +0.037 C 
ATOM     12  H   UNL     1      31.874  -5.371 -24.676  0.00  0.00    -0.080 HD
ENDROOT
BRANCH   1  13
ATOM     13  C   UNL     1      33.540  -5.725 -25.827  0.00  0.00    -0.058 C 
ATOM     14  C   UNL     1      33.803  -4.210 -25.951  0.00  0.00    -0.021 C 
ATOM     15  C   UNL     1      35.021  -5.871 -25.420  0.00  0.00    -0.021 C 
ATOM     16  C   UNL     1      35.284  -4.565 -26.198  0.00  0.00    -0.004 C 
ENDBRANCH   1  13
BRANCH  10  17
ATOM     17  O   UNL     1      31.224 -10.999 -20.304  0.00  0.00    -0.436 OA
BRANCH  17  20
ATOM     18  N   UNL     1      32.292 -12.050 -22.075  0.00  0.00    -0.209 NA
ATOM     19  C   UNL     1      33.419 -14.159 -21.716  0.00  0.00    +0.073 C 
ATOM     20  C   UNL     1      31.966 -12.072 -20.770  0.00  0.00    +0.230 C 
ATOM     21  C   UNL     1      33.056 -14.132 -20.374  0.00  0.00    +0.021 C 
ATOM     22  C   UNL     1      33.016 -13.104 -22.518  0.00  0.00    +0.117 C 
ATOM     23  C   UNL     1      32.311 -13.067 -19.881  0.00  0.00    +0.059 C 
BRANCH  19  25
ATOM     24  O   UNL     1      35.086 -16.300 -20.312  0.00  0.00    -0.275 OA
ATOM     25  N   UNL     1      34.182 -15.239 -22.250  0.00  0.00    -0.257 N 
ATOM     26  C   UNL     1      34.843 -16.867 -23.791  0.00  0.00    +0.031 C 
ATOM     27  C   UNL     1      34.343 -15.442 -23.677  0.00  0.00    +0.099 C 
ATOM     28  C   UNL     1      35.645 -17.061 -22.519  0.00  0.00    +0.087 C 
ATOM     29  C   UNL     1      34.932 -16.181 -21.519  0.00  0.00    +0.229 C 
ENDBRANCH  19  25
ENDBRANCH  17  20
ENDBRANCH  10  17
TORSDOF 4
ENDMDL
MODEL 8
REMARK VINA RESULT:      -9.8      4.450     11.118
REMARK  Name = 9976892
REMARK  4 active torsions:
REMARK  status: ('A' for Active; 'I' for Inactive)
REMARK    1  A    between atoms: N_1  and  C_13
REMARK    2  A    between atoms: C_10  and  O_17
REMARK    3  A    between atoms: O_17  and  C_20
REMARK    4  A    between atoms: C_19  and  N_25
REMARK                            x       y       z     vdW  Elec       q    Type
REMARK                         _______ _______ _______ _____ _____    ______ ____
ROOT
ATOM      1  N   UNL     1      35.597 -16.543 -22.209  0.00  0.00    +0.389 N 
ATOM      2  C   UNL     1      34.824 -15.847 -23.248  0.00  0.00    -0.073 C 
ATOM      3  C   UNL     1      34.931 -16.555 -20.897  0.00  0.00    -0.073 C 
ATOM      4  C   UNL     1      34.778 -14.327 -23.056  0.00  0.00    +0.003 C 
ATOM      5  C   UNL     1      34.909 -15.184 -20.214  0.00  0.00    +0.003 C 
ATOM      6  C   UNL     1      33.742 -13.880 -22.055  0.00  0.00    -0.025 C 
ATOM      7  C   UNL     1      33.804 -14.286 -20.710  0.00  0.00    -0.028 C 
ATOM      8  C   UNL     1      32.703 -13.031 -22.469  0.00  0.00    +0.033 C 
ATOM      9  C   UNL     1      32.826 -13.832 -19.810  0.00  0.00    -0.002 C 
ATOM     10  C   UNL     1      31.736 -12.592 -21.566  0.00  0.00    +0.147 C 
ATOM     11  C   UNL     1      31.798 -12.992 -20.236  0.00  0.00    +0.037 C 
ATOM     12  H   UNL     1      36.477 -16.040 -22.094  0.00  0.00    -0.080 HD
ENDROOT
BRANCH   1  13
ATOM     13  C   UNL     1      35.799 -17.905 -22.633  0.00  0.00    -0.058 C 
ATOM     14  C   UNL     1      35.271 -18.895 -21.575  0.00  0.00    -0.021 C 
ATOM     15  C   UNL     1      34.644 -18.376 -23.540  0.00  0.00    -0.021 C 
ATOM     16  C   UNL     1      34.659 -19.697 -22.742  0.00  0.00    -0.004 C 
ENDBRANCH   1  13
BRANCH  10  17
ATOM     17  O   UNL     1      30.735 -11.771 -21.985  0.00  0.00    -0.436 OA
BRANCH  17  20
ATOM     18  N   UNL     1      31.267  -9.781 -20.917  0.00  0.00    -0.209 NA
ATOM     19  C   UNL     1      31.550  -7.760 -22.214  0.00  0.00    +0.073 C 
ATOM     20  C   UNL     1      31.009 -10.416 -22.074  0.00  0.00    +0.230 C 
ATOM     21  C   UNL     1      31.277  -8.464 -23.382  0.00  0.00    +0.021 C 
ATOM     22  C   UNL     1      31.533  -8.458 -21.018  0.00  0.00    +0.117 C 
ATOM     23  C   UNL     1      30.999  -9.824 -23.319  0.00  0.00    +0.059 C 
BRANCH  19  25
ATOM     24  O   UNL     1      30.982  -5.663 -24.362  0.00  0.00    -0.275 OA
ATOM     25  N   UNL     1      31.838  -6.364 -22.247  0.00  0.00    -0.257 N 
ATOM     26  C   UNL     1      32.298  -4.229 -21.414  0.00  0.00    +0.031 C 
ATOM     27  C   UNL     1      32.577  -5.701 -21.190  0.00  0.00    +0.099 C 
ATOM     28  C   UNL     1      32.129  -4.128 -22.916  0.00  0.00    +0.087 C 
ATOM     29  C   UNL     1      31.542  -5.469 -23.293  0.00  0.00    +0.229 C 
ENDBRANCH  19  25
ENDBRANCH  17  20
ENDBRANCH  10  17
TORSDOF 4
ENDMDL
MODEL 9
REMARK VINA RESULT:      -9.8      1.926      8.793
REMARK  Name = 9976892
REMARK  4 active torsions:
REMARK  status: ('A' for Active; 'I' for Inactive)
REMARK    1  A    between atoms: N_1  and  C_13
REMARK    2  A    between atoms: C_10  and  O_17
REMARK    3  A    between atoms: O_17  and  C_20
REMARK    4  A    between atoms: C_19  and  N_25
REMARK                            x       y       z     vdW  Elec       q    Type
REMARK                         _______ _______ _______ _____ _____    ______ ____
ROOT
ATOM      1  N   UNL     1      34.272 -22.240 -17.857  0.00  0.00    +0.389 N 
ATOM      2  C   UNL     1      33.450 -21.475 -18.806  0.00  0.00    -0.073 C 
ATOM      3  C   UNL     1      35.574 -21.613 -17.577  0.00  0.00    -0.073 C 
ATOM      4  C   UNL     1      33.982 -21.518 -20.243  0.00  0.00    +0.003 C 
ATOM      5  C   UNL     1      36.549 -21.687 -18.756  0.00  0.00    +0.003 C 
ATOM      6  C   UNL     1      35.100 -20.538 -20.498  0.00  0.00    -0.025 C 
ATOM      7  C   UNL     1      36.315 -20.619 -19.794  0.00  0.00    -0.028 C 
ATOM      8  C   UNL     1      34.932 -19.536 -21.466  0.00  0.00    +0.033 C 
ATOM      9  C   UNL     1      37.335 -19.693 -20.076  0.00  0.00    -0.002 C 
ATOM     10  C   UNL     1      35.951 -18.621 -21.732  0.00  0.00    +0.147 C 
ATOM     11  C   UNL     1      37.152 -18.701 -21.038  0.00  0.00    +0.037 C 
ATOM     12  H   UNL     1      34.461 -23.150 -18.279  0.00  0.00    -0.080 HD
ENDROOT
BRANCH   1  13
ATOM     13  C   UNL     1      33.544 -22.355 -16.620  0.00  0.00    -0.058 C 
ATOM     14  C   UNL     1      32.078 -22.760 -16.879  0.00  0.00    -0.021 C 
ATOM     15  C   UNL     1      33.739 -23.751 -15.994  0.00  0.00    -0.021 C 
ATOM     16  C   UNL     1      32.224 -23.748 -15.703  0.00  0.00    -0.004 C 
ENDBRANCH   1  13
BRANCH  10  17
ATOM     17  O   UNL     1      35.770 -17.655 -22.673  0.00  0.00    -0.436 OA
BRANCH  17  20
ATOM     18  N   UNL     1      34.518 -15.804 -23.297  0.00  0.00    -0.209 NA
ATOM     19  C   UNL     1      33.697 -14.282 -21.606  0.00  0.00    +0.073 C 
ATOM     20  C   UNL     1      35.072 -16.517 -22.301  0.00  0.00    +0.230 C 
ATOM     21  C   UNL     1      34.289 -15.056 -20.614  0.00  0.00    +0.021 C 
ATOM     22  C   UNL     1      33.839 -14.695 -22.921  0.00  0.00    +0.117 C 
ATOM     23  C   UNL     1      34.995 -16.202 -20.961  0.00  0.00    +0.059 C 
BRANCH  19  25
ATOM     24  O   UNL     1      33.034 -11.827 -23.298  0.00  0.00    -0.275 OA
ATOM     25  N   UNL     1      32.968 -13.101 -21.281  0.00  0.00    -0.257 N 
ATOM     26  C   UNL     1      31.436 -11.748 -20.148  0.00  0.00    +0.031 C 
ATOM     27  C   UNL     1      32.454 -12.852 -19.948  0.00  0.00    +0.099 C 
ATOM     28  C   UNL     1      31.998 -10.959 -21.314  0.00  0.00    +0.087 C 
ATOM     29  C   UNL     1      32.716 -12.008 -22.132  0.00  0.00    +0.229 C 
ENDBRANCH  19  25
ENDBRANCH  17  20
ENDBRANCH  10  17
TORSDOF 4
ENDMDL
