MODEL 1
REMARK VINA RESULT:     -11.6      0.000      0.000
REMARK  Name = 46937052
REMARK  7 active torsions:
REMARK  status: ('A' for Active; 'I' for Inactive)
REMARK    1  A    between atoms: O_1  and  C_3
REMARK    2  A    between atoms: O_1  and  C_17
REMARK    3  A    between atoms: C_4  and  C_11
REMARK    4  A    between atoms: C_17  and  C_18
REMARK    5  A    between atoms: C_18  and  N_19
REMARK    6  A    between atoms: C_18  and  C_23
REMARK    7  A    between atoms: C_23  and  C_25
REMARK                            x       y       z     vdW  Elec       q    Type
REMARK                         _______ _______ _______ _____ _____    ______ ____
ROOT
ATOM      1  O   UNL     1      35.320 -15.268 -22.871  0.00  0.00    -0.476 OA
ENDROOT
BRANCH   1   3
ATOM      2  N   UNL     1      34.346 -18.527 -24.220  0.00  0.00    -0.239 NA
ATOM      3  C   UNL     1      35.086 -16.617 -22.935  0.00  0.00    +0.158 C 
ATOM      4  C   UNL     1      35.085 -18.805 -21.935  0.00  0.00    +0.039 C 
ATOM      5  C   UNL     1      35.331 -17.440 -21.841  0.00  0.00    +0.042 C 
ATOM      6  C   UNL     1      34.599 -17.205 -24.091  0.00  0.00    +0.136 C 
ATOM      7  C   UNL     1      34.597 -19.294 -23.137  0.00  0.00    +0.101 C 
BRANCH   4  11
ATOM      8  N   UNL     1      36.508 -19.711 -20.249  0.00  0.00    -0.264 NA
ATOM      9  N   UNL     1      35.688 -22.269 -17.694  0.00  0.00    -0.150 NA
ATOM     10  N   UNL     1      34.352 -22.862 -17.648  0.00  0.00    -0.147 NA
ATOM     11  C   UNL     1      35.336 -19.712 -20.783  0.00  0.00    +0.078 C 
ATOM     12  C   UNL     1      34.420 -21.357 -19.337  0.00  0.00    +0.040 C 
ATOM     13  C   UNL     1      35.700 -21.407 -18.676  0.00  0.00    +0.107 C 
ATOM     14  C   UNL     1      36.844 -20.568 -19.110  0.00  0.00    +0.173 C 
ATOM     15  C   UNL     1      34.183 -20.560 -20.367  0.00  0.00    +0.022 C 
ATOM     16  C   UNL     1      33.644 -22.327 -18.600  0.00  0.00    +0.123 C 
ENDBRANCH   4  11
ENDBRANCH   1   3
BRANCH   1  17
ATOM     17  C   UNL     1      34.477 -14.512 -22.013  0.00  0.00    +0.184 C 
BRANCH  17  18
ATOM     18  C   UNL     1      33.775 -13.397 -22.797  0.00  0.00    -0.017 C 
BRANCH  18  19
ATOM     19  N   UNL     1      33.597 -13.849 -24.179  0.00  0.00    +0.384 N 
ATOM     20  H   UNL     1      33.689 -14.864 -24.219  0.00  0.00    -0.089 HD
ATOM     21  H   UNL     1      34.307 -13.420 -24.772  0.00  0.00    -0.089 HD
ATOM     22  H   UNL     1      32.669 -13.579 -24.508  0.00  0.00    -0.089 HD
ENDBRANCH  18  19
BRANCH  18  23
ATOM     23  C   UNL     1      32.394 -13.016 -22.207  0.00  0.00    +0.010 C 
BRANCH  23  25
ATOM     24  N   UNL     1      32.074  -9.302 -22.483  0.00  0.00    -0.244 NA
ATOM     25  C   UNL     1      32.225 -11.582 -21.912  0.00  0.00    -0.004 C 
ATOM     26  C   UNL     1      32.029 -10.872 -20.794  0.00  0.00    +0.011 C 
ATOM     27  C   UNL     1      31.934  -9.467 -21.132  0.00  0.00    +0.080 C 
ATOM     28  C   UNL     1      32.240 -10.513 -22.923  0.00  0.00    +0.094 C 
ATOM     29  C   UNL     1      31.915 -11.335 -19.435  0.00  0.00    -0.020 C 
ATOM     30  C   UNL     1      31.737  -8.544 -20.183  0.00  0.00    +0.015 C 
ATOM     31  C   UNL     1      31.606  -8.936 -18.724  0.00  0.00    -0.020 C 
ATOM     32  C   UNL     1      31.716 -10.427 -18.463  0.00  0.00    +0.052 C 
ENDBRANCH  23  25
ENDBRANCH  18  23
ENDBRANCH  17  18
ENDBRANCH   1  17
TORSDOF 7
ENDMDL
MODEL 2
REMARK VINA RESULT:     -11.5      4.472      8.148
REMARK  Name = 46937052
REMARK  7 active torsions:
REMARK  status: ('A' for Active; 'I' for Inactive)
REMARK    1  A    between atoms: O_1  and  C_3
REMARK    2  A    between atoms: O_1  and  C_17
REMARK    3  A    between atoms: C_4  and  C_11
REMARK    4  A    between atoms: C_17  and  C_18
REMARK    5  A    between atoms: C_18  and  N_19
REMARK    6  A    between atoms: C_18  and  C_23
REMARK    7  A    between atoms: C_23  and  C_25
REMARK                            x       y       z     vdW  Elec       q    Type
REMARK                         _______ _______ _______ _____ _____    ______ ____
ROOT
ATOM      1  O   UNL     1      32.947 -22.435 -18.519  0.00  0.00    -0.476 OA
ENDROOT
BRANCH   1   3
ATOM      2  N   UNL     1      31.754 -23.367 -15.188  0.00  0.00    -0.239 NA
ATOM      3  C   UNL     1      32.971 -22.838 -17.209  0.00  0.00    +0.158 C 
ATOM      4  C   UNL     1      34.166 -23.530 -15.239  0.00  0.00    +0.039 C 
ATOM      5  C   UNL     1      34.172 -23.122 -16.568  0.00  0.00    +0.042 C 
ATOM      6  C   UNL     1      31.801 -22.975 -16.481  0.00  0.00    +0.136 C 
ATOM      7  C   UNL     1      32.941 -23.635 -14.599  0.00  0.00    +0.101 C 
BRANCH   4  11
ATOM      8  N   UNL     1      36.231 -24.708 -15.046  0.00  0.00    -0.264 NA
ATOM      9  N   UNL     1      38.767 -24.455 -12.354  0.00  0.00    -0.150 NA
ATOM     10  N   UNL     1      38.553 -23.554 -11.222  0.00  0.00    -0.147 NA
ATOM     11  C   UNL     1      35.434 -23.841 -14.525  0.00  0.00    +0.078 C 
ATOM     12  C   UNL     1      36.781 -23.395 -12.622  0.00  0.00    +0.040 C 
ATOM     13  C   UNL     1      37.732 -24.345 -13.144  0.00  0.00    +0.107 C 
ATOM     14  C   UNL     1      37.501 -25.075 -14.415  0.00  0.00    +0.173 C 
ATOM     15  C   UNL     1      35.647 -23.112 -13.243  0.00  0.00    +0.022 C 
ATOM     16  C   UNL     1      37.407 -22.960 -11.396  0.00  0.00    +0.123 C 
ENDBRANCH   4  11
ENDBRANCH   1   3
BRANCH   1  17
ATOM     17  C   UNL     1      34.166 -21.944 -19.061  0.00  0.00    +0.184 C 
BRANCH  17  18
ATOM     18  C   UNL     1      33.886 -20.905 -20.153  0.00  0.00    -0.017 C 
BRANCH  18  19
ATOM     19  N   UNL     1      32.666 -20.177 -19.794  0.00  0.00    +0.384 N 
ATOM     20  H   UNL     1      32.626 -19.302 -20.317  0.00  0.00    -0.089 HD
ATOM     21  H   UNL     1      32.672 -19.977 -18.794  0.00  0.00    -0.089 HD
ATOM     22  H   UNL     1      31.851 -20.747 -20.023  0.00  0.00    -0.089 HD
ENDBRANCH  18  19
BRANCH  18  23
ATOM     23  C   UNL     1      35.043 -19.892 -20.339  0.00  0.00    +0.010 C 
BRANCH  23  25
ATOM     24  N   UNL     1      34.780 -18.729 -23.882  0.00  0.00    -0.244 NA
ATOM     25  C   UNL     1      34.952 -19.067 -21.557  0.00  0.00    -0.004 C 
ATOM     26  C   UNL     1      34.929 -17.751 -21.798  0.00  0.00    +0.011 C 
ATOM     27  C   UNL     1      34.824 -17.529 -23.225  0.00  0.00    +0.080 C 
ATOM     28  C   UNL     1      34.854 -19.604 -22.924  0.00  0.00    +0.094 C 
ATOM     29  C   UNL     1      34.992 -16.657 -20.862  0.00  0.00    -0.020 C 
ATOM     30  C   UNL     1      34.782 -16.289 -23.727  0.00  0.00    +0.015 C 
ATOM     31  C   UNL     1      34.843 -15.075 -22.820  0.00  0.00    -0.020 C 
ATOM     32  C   UNL     1      34.951 -15.401 -21.341  0.00  0.00    +0.052 C 
ENDBRANCH  23  25
ENDBRANCH  18  23
ENDBRANCH  17  18
ENDBRANCH   1  17
TORSDOF 7
ENDMDL
MODEL 3
REMARK VINA RESULT:     -11.5      1.788      9.933
REMARK  Name = 46937052
REMARK  7 active torsions:
REMARK  status: ('A' for Active; 'I' for Inactive)
REMARK    1  A    between atoms: O_1  and  C_3
REMARK    2  A    between atoms: O_1  and  C_17
REMARK    3  A    between atoms: C_4  and  C_11
REMARK    4  A    between atoms: C_17  and  C_18
REMARK    5  A    between atoms: C_18  and  N_19
REMARK    6  A    between atoms: C_18  and  C_23
REMARK    7  A    between atoms: C_23  and  C_25
REMARK                            x       y       z     vdW  Elec       q    Type
REMARK                         _______ _______ _______ _____ _____    ______ ____
ROOT
ATOM      1  O   UNL     1      35.691 -17.086 -22.724  0.00  0.00    -0.476 OA
ENDROOT
BRANCH   1   3
ATOM      2  N   UNL     1      33.572 -15.817 -25.423  0.00  0.00    -0.239 NA
ATOM      3  C   UNL     1      34.843 -16.260 -23.414  0.00  0.00    +0.158 C 
ATOM      4  C   UNL     1      33.530 -14.251 -23.581  0.00  0.00    +0.039 C 
ATOM      5  C   UNL     1      34.392 -15.068 -22.858  0.00  0.00    +0.042 C 
ATOM      6  C   UNL     1      34.407 -16.586 -24.688  0.00  0.00    +0.136 C 
ATOM      7  C   UNL     1      33.154 -14.667 -24.849  0.00  0.00    +0.101 C 
BRANCH   4  11
ATOM      8  N   UNL     1      32.215 -13.019 -22.019  0.00  0.00    -0.264 NA
ATOM      9  N   UNL     1      31.868  -9.341 -21.717  0.00  0.00    -0.150 NA
ATOM     10  N   UNL     1      32.581  -8.455 -22.637  0.00  0.00    -0.147 NA
ATOM     11  C   UNL     1      33.030 -12.969 -23.015  0.00  0.00    +0.078 C 
ATOM     12  C   UNL     1      33.074 -10.601 -23.165  0.00  0.00    +0.040 C 
ATOM     13  C   UNL     1      32.168 -10.569 -22.044  0.00  0.00    +0.107 C 
ATOM     14  C   UNL     1      31.674 -11.809 -21.396  0.00  0.00    +0.173 C 
ATOM     15  C   UNL     1      33.523 -11.732 -23.684  0.00  0.00    +0.022 C 
ATOM     16  C   UNL     1      33.262  -9.200 -23.460  0.00  0.00    +0.123 C 
ENDBRANCH   4  11
ENDBRANCH   1   3
BRANCH   1  17
ATOM     17  C   UNL     1      35.249 -17.541 -21.453  0.00  0.00    +0.184 C 
BRANCH  17  18
ATOM     18  C   UNL     1      34.848 -19.020 -21.523  0.00  0.00    -0.017 C 
BRANCH  18  19
ATOM     19  N   UNL     1      35.113 -19.504 -22.881  0.00  0.00    +0.384 N 
ATOM     20  H   UNL     1      35.973 -20.052 -22.885  0.00  0.00    -0.089 HD
ATOM     21  H   UNL     1      35.214 -18.709 -23.512  0.00  0.00    -0.089 HD
ATOM     22  H   UNL     1      34.336 -20.088 -23.191  0.00  0.00    -0.089 HD
ENDBRANCH  18  19
BRANCH  18  23
ATOM     23  C   UNL     1      35.615 -19.907 -20.511  0.00  0.00    +0.010 C 
BRANCH  23  25
ATOM     24  N   UNL     1      32.749 -21.885 -19.152  0.00  0.00    -0.244 NA
ATOM     25  C   UNL     1      34.762 -20.789 -19.695  0.00  0.00    -0.004 C 
ATOM     26  C   UNL     1      34.954 -21.513 -18.586  0.00  0.00    +0.011 C 
ATOM     27  C   UNL     1      33.723 -22.192 -18.241  0.00  0.00    +0.080 C 
ATOM     28  C   UNL     1      33.349 -21.083 -19.980  0.00  0.00    +0.094 C 
ATOM     29  C   UNL     1      36.149 -21.659 -17.794  0.00  0.00    -0.020 C 
ATOM     30  C   UNL     1      33.654 -22.985 -17.164  0.00  0.00    +0.015 C 
ATOM     31  C   UNL     1      34.859 -23.199 -16.270  0.00  0.00    -0.020 C 
ATOM     32  C   UNL     1      36.106 -22.450 -16.707  0.00  0.00    +0.052 C 
ENDBRANCH  23  25
ENDBRANCH  18  23
ENDBRANCH  17  18
ENDBRANCH   1  17
TORSDOF 7
ENDMDL
MODEL 4
REMARK VINA RESULT:     -11.4      1.352      1.913
REMARK  Name = 46937052
REMARK  7 active torsions:
REMARK  status: ('A' for Active; 'I' for Inactive)
REMARK    1  A    between atoms: O_1  and  C_3
REMARK    2  A    between atoms: O_1  and  C_17
REMARK    3  A    between atoms: C_4  and  C_11
REMARK    4  A    between atoms: C_17  and  C_18
REMARK    5  A    between atoms: C_18  and  N_19
REMARK    6  A    between atoms: C_18  and  C_23
REMARK    7  A    between atoms: C_23  and  C_25
REMARK                            x       y       z     vdW  Elec       q    Type
REMARK                         _______ _______ _______ _____ _____    ______ ____
ROOT
ATOM      1  O   UNL     1      34.834 -14.298 -22.805  0.00  0.00    -0.476 OA
ENDROOT
BRANCH   1   3
ATOM      2  N   UNL     1      34.435 -17.496 -24.537  0.00  0.00    -0.239 NA
ATOM      3  C   UNL     1      34.830 -15.650 -23.026  0.00  0.00    +0.158 C 
ATOM      4  C   UNL     1      35.185 -17.908 -22.276  0.00  0.00    +0.039 C 
ATOM      5  C   UNL     1      35.197 -16.541 -22.023  0.00  0.00    +0.042 C 
ATOM      6  C   UNL     1      34.461 -16.174 -24.254  0.00  0.00    +0.136 C 
ATOM      7  C   UNL     1      34.799 -18.330 -23.538  0.00  0.00    +0.101 C 
BRANCH   4  11
ATOM      8  N   UNL     1      36.765 -18.827 -20.743  0.00  0.00    -0.264 NA
ATOM      9  N   UNL     1      36.300 -21.665 -18.404  0.00  0.00    -0.150 NA
ATOM     10  N   UNL     1      35.024 -22.379 -18.356  0.00  0.00    -0.147 NA
ATOM     11  C   UNL     1      35.571 -18.887 -21.224  0.00  0.00    +0.078 C 
ATOM     12  C   UNL     1      34.875 -20.730 -19.900  0.00  0.00    +0.040 C 
ATOM     13  C   UNL     1      36.188 -20.723 -19.301  0.00  0.00    +0.107 C 
ATOM     14  C   UNL     1      37.231 -19.748 -19.705  0.00  0.00    +0.173 C 
ATOM     15  C   UNL     1      34.519 -19.869 -20.839  0.00  0.00    +0.022 C 
ATOM     16  C   UNL     1      34.225 -21.827 -19.223  0.00  0.00    +0.123 C 
ENDBRANCH   4  11
ENDBRANCH   1   3
BRANCH   1  17
ATOM     17  C   UNL     1      33.903 -13.524 -23.550  0.00  0.00    +0.184 C 
BRANCH  17  18
ATOM     18  C   UNL     1      33.844 -12.090 -23.011  0.00  0.00    -0.017 C 
BRANCH  18  19
ATOM     19  N   UNL     1      34.690 -11.245 -23.859  0.00  0.00    +0.384 N 
ATOM     20  H   UNL     1      35.189 -10.572 -23.278  0.00  0.00    -0.089 HD
ATOM     21  H   UNL     1      34.107 -10.748 -24.533  0.00  0.00    -0.089 HD
ATOM     22  H   UNL     1      35.363 -11.829 -24.357  0.00  0.00    -0.089 HD
ENDBRANCH  18  19
BRANCH  18  23
ATOM     23  C   UNL     1      32.410 -11.507 -22.987  0.00  0.00    +0.010 C 
BRANCH  23  25
ATOM     24  N   UNL     1      31.200 -10.128 -19.730  0.00  0.00    -0.244 NA
ATOM     25  C   UNL     1      32.120 -10.628 -21.840  0.00  0.00    -0.004 C 
ATOM     26  C   UNL     1      32.407  -9.357 -21.538  0.00  0.00    +0.011 C 
ATOM     27  C   UNL     1      31.846  -9.036 -20.242  0.00  0.00    +0.080 C 
ATOM     28  C   UNL     1      31.359 -11.035 -20.647  0.00  0.00    +0.094 C 
ATOM     29  C   UNL     1      33.145  -8.387 -22.307  0.00  0.00    -0.020 C 
ATOM     30  C   UNL     1      31.996  -7.816 -19.711  0.00  0.00    +0.015 C 
ATOM     31  C   UNL     1      32.757  -6.730 -20.446  0.00  0.00    -0.020 C 
ATOM     32  C   UNL     1      33.310  -7.154 -21.795  0.00  0.00    +0.052 C 
ENDBRANCH  23  25
ENDBRANCH  18  23
ENDBRANCH  17  18
ENDBRANCH   1  17
TORSDOF 7
ENDMDL
MODEL 5
REMARK VINA RESULT:     -11.4      4.971     10.740
REMARK  Name = 46937052
REMARK  7 active torsions:
REMARK  status: ('A' for Active; 'I' for Inactive)
REMARK    1  A    between atoms: O_1  and  C_3
REMARK    2  A    between atoms: O_1  and  C_17
REMARK    3  A    between atoms: C_4  and  C_11
REMARK    4  A    between atoms: C_17  and  C_18
REMARK    5  A    between atoms: C_18  and  N_19
REMARK    6  A    between atoms: C_18  and  C_23
REMARK    7  A    between atoms: C_23  and  C_25
REMARK                            x       y       z     vdW  Elec       q    Type
REMARK                         _______ _______ _______ _____ _____    ______ ____
ROOT
ATOM      1  O   UNL     1      36.499 -22.408 -17.883  0.00  0.00    -0.476 OA
ENDROOT
BRANCH   1   3
ATOM      2  N   UNL     1      33.116 -21.939 -19.196  0.00  0.00    -0.239 NA
ATOM      3  C   UNL     1      35.461 -21.886 -18.611  0.00  0.00    +0.158 C 
ATOM      4  C   UNL     1      34.589 -20.308 -20.203  0.00  0.00    +0.039 C 
ATOM      5  C   UNL     1      35.660 -20.817 -19.478  0.00  0.00    +0.042 C 
ATOM      6  C   UNL     1      34.182 -22.406 -18.507  0.00  0.00    +0.136 C 
ATOM      7  C   UNL     1      33.348 -20.899 -20.028  0.00  0.00    +0.101 C 
BRANCH   4  11
ATOM      8  N   UNL     1      35.283 -18.076 -20.682  0.00  0.00    -0.264 NA
ATOM      9  N   UNL     1      35.120 -16.273 -23.916  0.00  0.00    -0.150 NA
ATOM     10  N   UNL     1      34.563 -16.930 -25.099  0.00  0.00    -0.147 NA
ATOM     11  C   UNL     1      34.768 -19.165 -21.139  0.00  0.00    +0.078 C 
ATOM     12  C   UNL     1      34.479 -18.375 -23.358  0.00  0.00    +0.040 C 
ATOM     13  C   UNL     1      35.058 -17.126 -22.929  0.00  0.00    +0.107 C 
ATOM     14  C   UNL     1      35.499 -16.902 -21.530  0.00  0.00    +0.173 C 
ATOM     15  C   UNL     1      34.308 -19.398 -22.537  0.00  0.00    +0.022 C 
ATOM     16  C   UNL     1      34.200 -18.131 -24.754  0.00  0.00    +0.123 C 
ENDBRANCH   4  11
ENDBRANCH   1   3
BRANCH   1  17
ATOM     17  C   UNL     1      36.558 -22.053 -16.508  0.00  0.00    +0.184 C 
BRANCH  17  18
ATOM     18  C   UNL     1      35.877 -23.125 -15.648  0.00  0.00    -0.017 C 
BRANCH  18  19
ATOM     19  N   UNL     1      36.919 -23.928 -15.003  0.00  0.00    +0.384 N 
ATOM     20  H   UNL     1      37.065 -23.594 -14.051  0.00  0.00    -0.089 HD
ATOM     21  H   UNL     1      37.788 -23.845 -15.530  0.00  0.00    -0.089 HD
ATOM     22  H   UNL     1      36.628 -24.906 -14.979  0.00  0.00    -0.089 HD
ENDBRANCH  18  19
BRANCH  18  23
ATOM     23  C   UNL     1      34.949 -22.531 -14.560  0.00  0.00    +0.010 C 
BRANCH  23  25
ATOM     24  N   UNL     1      32.716 -25.039 -12.917  0.00  0.00    -0.244 NA
ATOM     25  C   UNL     1      33.805 -23.385 -14.192  0.00  0.00    -0.004 C 
ATOM     26  C   UNL     1      32.557 -23.530 -14.654  0.00  0.00    +0.011 C 
ATOM     27  C   UNL     1      31.876 -24.545 -13.877  0.00  0.00    +0.080 C 
ATOM     28  C   UNL     1      33.816 -24.373 -13.101  0.00  0.00    +0.094 C 
ATOM     29  C   UNL     1      31.906 -22.837 -15.736  0.00  0.00    -0.020 C 
ATOM     30  C   UNL     1      30.607 -24.877 -14.144  0.00  0.00    +0.015 C 
ATOM     31  C   UNL     1      29.840 -24.204 -15.265  0.00  0.00    -0.020 C 
ATOM     32  C   UNL     1      30.630 -23.153 -16.024  0.00  0.00    +0.052 C 
ENDBRANCH  23  25
ENDBRANCH  18  23
ENDBRANCH  17  18
ENDBRANCH   1  17
TORSDOF 7
ENDMDL
MODEL 6
REMARK VINA RESULT:     -11.4      1.529      9.765
REMARK  Name = 46937052
REMARK  7 active torsions:
REMARK  status: ('A' for Active; 'I' for Inactive)
REMARK    1  A    between atoms: O_1  and  C_3
REMARK    2  A    between atoms: O_1  and  C_17
REMARK    3  A    between atoms: C_4  and  C_11
REMARK    4  A    between atoms: C_17  and  C_18
REMARK    5  A    between atoms: C_18  and  N_19
REMARK    6  A    between atoms: C_18  and  C_23
REMARK    7  A    between atoms: C_23  and  C_25
REMARK                            x       y       z     vdW  Elec       q    Type
REMARK                         _______ _______ _______ _____ _____    ______ ____
ROOT
ATOM      1  O   UNL     1      35.647 -16.948 -22.927  0.00  0.00    -0.476 OA
ENDROOT
BRANCH   1   3
ATOM      2  N   UNL     1      33.382 -15.769 -25.546  0.00  0.00    -0.239 NA
ATOM      3  C   UNL     1      34.780 -16.135 -23.608  0.00  0.00    +0.158 C 
ATOM      4  C   UNL     1      33.530 -14.090 -23.814  0.00  0.00    +0.039 C 
ATOM      5  C   UNL     1      34.413 -14.893 -23.101  0.00  0.00    +0.042 C 
ATOM      6  C   UNL     1      34.241 -16.523 -24.824  0.00  0.00    +0.136 C 
ATOM      7  C   UNL     1      33.048 -14.570 -25.021  0.00  0.00    +0.101 C 
BRANCH   4  11
ATOM      8  N   UNL     1      33.411 -11.714 -23.998  0.00  0.00    -0.264 NA
ATOM      9  N   UNL     1      31.868  -9.310 -21.636  0.00  0.00    -0.150 NA
ATOM     10  N   UNL     1      31.240  -9.787 -20.404  0.00  0.00    -0.147 NA
ATOM     11  C   UNL     1      33.118 -12.756 -23.299  0.00  0.00    +0.078 C 
ATOM     12  C   UNL     1      32.043 -11.569 -21.547  0.00  0.00    +0.040 C 
ATOM     13  C   UNL     1      32.322 -10.355 -22.274  0.00  0.00    +0.107 C 
ATOM     14  C   UNL     1      33.044 -10.363 -23.571  0.00  0.00    +0.173 C 
ATOM     15  C   UNL     1      32.408 -12.762 -21.989  0.00  0.00    +0.022 C 
ATOM     16  C   UNL     1      31.356 -11.084 -20.373  0.00  0.00    +0.123 C 
ENDBRANCH   4  11
ENDBRANCH   1   3
BRANCH   1  17
ATOM     17  C   UNL     1      35.319 -18.330 -22.870  0.00  0.00    +0.184 C 
BRANCH  17  18
ATOM     18  C   UNL     1      35.680 -18.911 -21.497  0.00  0.00    -0.017 C 
BRANCH  18  19
ATOM     19  N   UNL     1      35.671 -17.819 -20.519  0.00  0.00    +0.384 N 
ATOM     20  H   UNL     1      36.471 -17.209 -20.684  0.00  0.00    -0.089 HD
ATOM     21  H   UNL     1      35.726 -18.206 -19.577  0.00  0.00    -0.089 HD
ATOM     22  H   UNL     1      34.808 -17.283 -20.617  0.00  0.00    -0.089 HD
ENDBRANCH  18  19
BRANCH  18  23
ATOM     23  C   UNL     1      34.703 -20.018 -21.029  0.00  0.00    +0.010 C 
BRANCH  23  25
ATOM     24  N   UNL     1      36.754 -21.599 -18.334  0.00  0.00    -0.244 NA
ATOM     25  C   UNL     1      35.145 -20.768 -19.840  0.00  0.00    -0.004 C 
ATOM     26  C   UNL     1      34.519 -21.477 -18.893  0.00  0.00    +0.011 C 
ATOM     27  C   UNL     1      35.498 -21.994 -17.959  0.00  0.00    +0.080 C 
ATOM     28  C   UNL     1      36.546 -20.900 -19.408  0.00  0.00    +0.094 C 
ATOM     29  C   UNL     1      33.111 -21.739 -18.740  0.00  0.00    -0.020 C 
ATOM     30  C   UNL     1      35.123 -22.741 -16.914  0.00  0.00    +0.015 C 
ATOM     31  C   UNL     1      33.663 -23.071 -16.671  0.00  0.00    -0.020 C 
ATOM     32  C   UNL     1      32.708 -22.487 -17.697  0.00  0.00    +0.052 C 
ENDBRANCH  23  25
ENDBRANCH  18  23
ENDBRANCH  17  18
ENDBRANCH   1  17
TORSDOF 7
ENDMDL
MODEL 7
REMARK VINA RESULT:     -11.4      1.653      2.289
REMARK  Name = 46937052
REMARK  7 active torsions:
REMARK  status: ('A' for Active; 'I' for Inactive)
REMARK    1  A    between atoms: O_1  and  C_3
REMARK    2  A    between atoms: O_1  and  C_17
REMARK    3  A    between atoms: C_4  and  C_11
REMARK    4  A    between atoms: C_17  and  C_18
REMARK    5  A    between atoms: C_18  and  N_19
REMARK    6  A    between atoms: C_18  and  C_23
REMARK    7  A    between atoms: C_23  and  C_25
REMARK                            x       y       z     vdW  Elec       q    Type
REMARK                         _______ _______ _______ _____ _____    ______ ____
ROOT
ATOM      1  O   UNL     1      35.094 -15.272 -22.975  0.00  0.00    -0.476 OA
ENDROOT
BRANCH   1   3
ATOM      2  N   UNL     1      34.321 -18.589 -24.310  0.00  0.00    -0.239 NA
ATOM      3  C   UNL     1      34.938 -16.632 -23.032  0.00  0.00    +0.158 C 
ATOM      4  C   UNL     1      35.049 -18.810 -22.015  0.00  0.00    +0.039 C 
ATOM      5  C   UNL     1      35.216 -17.432 -21.929  0.00  0.00    +0.042 C 
ATOM      6  C   UNL     1      34.497 -17.254 -24.188  0.00  0.00    +0.136 C 
ATOM      7  C   UNL     1      34.603 -19.334 -23.218  0.00  0.00    +0.101 C 
BRANCH   4  11
ATOM      8  N   UNL     1      36.517 -19.653 -20.335  0.00  0.00    -0.264 NA
ATOM      9  N   UNL     1      35.797 -22.195 -17.734  0.00  0.00    -0.150 NA
ATOM     10  N   UNL     1      34.478 -22.822 -17.662  0.00  0.00    -0.147 NA
ATOM     11  C   UNL     1      35.338 -19.693 -20.854  0.00  0.00    +0.078 C 
ATOM     12  C   UNL     1      34.485 -21.340 -19.374  0.00  0.00    +0.040 C 
ATOM     13  C   UNL     1      35.774 -21.348 -18.728  0.00  0.00    +0.107 C 
ATOM     14  C   UNL     1      36.890 -20.485 -19.189  0.00  0.00    +0.173 C 
ATOM     15  C   UNL     1      34.214 -20.565 -20.411  0.00  0.00    +0.022 C 
ATOM     16  C   UNL     1      33.744 -22.319 -18.613  0.00  0.00    +0.123 C 
ENDBRANCH   4  11
ENDBRANCH   1   3
BRANCH   1  17
ATOM     17  C   UNL     1      34.204 -14.491 -23.763  0.00  0.00    +0.184 C 
BRANCH  17  18
ATOM     18  C   UNL     1      33.850 -13.187 -23.037  0.00  0.00    -0.017 C 
BRANCH  18  19
ATOM     19  N   UNL     1      34.692 -13.083 -21.843  0.00  0.00    +0.384 N 
ATOM     20  H   UNL     1      35.658 -13.301 -22.087  0.00  0.00    -0.089 HD
ATOM     21  H   UNL     1      34.363 -13.741 -21.136  0.00  0.00    -0.089 HD
ATOM     22  H   UNL     1      34.641 -12.133 -21.473  0.00  0.00    -0.089 HD
ENDBRANCH  18  19
BRANCH  18  23
ATOM     23  C   UNL     1      34.058 -11.928 -23.915  0.00  0.00    +0.010 C 
BRANCH  23  25
ATOM     24  N   UNL     1      31.680  -9.457 -22.427  0.00  0.00    -0.244 NA
ATOM     25  C   UNL     1      33.434 -10.701 -23.389  0.00  0.00    -0.004 C 
ATOM     26  C   UNL     1      33.836  -9.432 -23.246  0.00  0.00    +0.011 C 
ATOM     27  C   UNL     1      32.766  -8.656 -22.655  0.00  0.00    +0.080 C 
ATOM     28  C   UNL     1      32.067 -10.623 -22.848  0.00  0.00    +0.094 C 
ATOM     29  C   UNL     1      35.104  -8.840 -23.591  0.00  0.00    -0.020 C 
ATOM     30  C   UNL     1      32.920  -7.350 -22.407  0.00  0.00    +0.015 C 
ATOM     31  C   UNL     1      34.218  -6.638 -22.737  0.00  0.00    -0.020 C 
ATOM     32  C   UNL     1      35.284  -7.528 -23.352  0.00  0.00    +0.052 C 
ENDBRANCH  23  25
ENDBRANCH  18  23
ENDBRANCH  17  18
ENDBRANCH   1  17
TORSDOF 7
ENDMDL
MODEL 8
REMARK VINA RESULT:     -11.3      3.179      6.141
REMARK  Name = 46937052
REMARK  7 active torsions:
REMARK  status: ('A' for Active; 'I' for Inactive)
REMARK    1  A    between atoms: O_1  and  C_3
REMARK    2  A    between atoms: O_1  and  C_17
REMARK    3  A    between atoms: C_4  and  C_11
REMARK    4  A    between atoms: C_17  and  C_18
REMARK    5  A    between atoms: C_18  and  N_19
REMARK    6  A    between atoms: C_18  and  C_23
REMARK    7  A    between atoms: C_23  and  C_25
REMARK                            x       y       z     vdW  Elec       q    Type
REMARK                         _______ _______ _______ _____ _____    ______ ____
ROOT
ATOM      1  O   UNL     1      35.446 -20.628 -20.517  0.00  0.00    -0.476 OA
ENDROOT
BRANCH   1   3
ATOM      2  N   UNL     1      32.748 -22.211 -18.620  0.00  0.00    -0.239 NA
ATOM      3  C   UNL     1      34.800 -21.291 -19.506  0.00  0.00    +0.158 C 
ATOM      4  C   UNL     1      34.806 -22.385 -17.363  0.00  0.00    +0.039 C 
ATOM      5  C   UNL     1      35.487 -21.713 -18.373  0.00  0.00    +0.042 C 
ATOM      6  C   UNL     1      33.444 -21.562 -19.580  0.00  0.00    +0.136 C 
ATOM      7  C   UNL     1      33.449 -22.606 -17.534  0.00  0.00    +0.101 C 
BRANCH   4  11
ATOM      8  N   UNL     1      36.798 -22.795 -16.117  0.00  0.00    -0.264 NA
ATOM      9  N   UNL     1      37.111 -24.173 -12.690  0.00  0.00    -0.150 NA
ATOM     10  N   UNL     1      35.916 -24.553 -11.937  0.00  0.00    -0.147 NA
ATOM     11  C   UNL     1      35.511 -22.849 -16.138  0.00  0.00    +0.078 C 
ATOM     12  C   UNL     1      35.278 -23.760 -13.959  0.00  0.00    +0.040 C 
ATOM     13  C   UNL     1      36.715 -23.721 -13.850  0.00  0.00    +0.107 C 
ATOM     14  C   UNL     1      37.575 -23.227 -14.954  0.00  0.00    +0.173 C 
ATOM     15  C   UNL     1      34.636 -23.356 -15.044  0.00  0.00    +0.022 C 
ATOM     16  C   UNL     1      34.878 -24.310 -12.685  0.00  0.00    +0.123 C 
ENDBRANCH   4  11
ENDBRANCH   1   3
BRANCH   1  17
ATOM     17  C   UNL     1      36.495 -19.748 -20.138  0.00  0.00    +0.184 C 
BRANCH  17  18
ATOM     18  C   UNL     1      36.626 -18.602 -21.150  0.00  0.00    -0.017 C 
BRANCH  18  19
ATOM     19  N   UNL     1      37.977 -18.640 -21.715  0.00  0.00    +0.384 N 
ATOM     20  H   UNL     1      37.962 -18.246 -22.656  0.00  0.00    -0.089 HD
ATOM     21  H   UNL     1      38.302 -19.606 -21.756  0.00  0.00    -0.089 HD
ATOM     22  H   UNL     1      38.607 -18.093 -21.128  0.00  0.00    -0.089 HD
ENDBRANCH  18  19
BRANCH  18  23
ATOM     23  C   UNL     1      35.593 -18.688 -22.301  0.00  0.00    +0.010 C 
BRANCH  23  25
ATOM     24  N   UNL     1      34.545 -15.892 -24.550  0.00  0.00    -0.244 NA
ATOM     25  C   UNL     1      35.155 -17.385 -22.834  0.00  0.00    -0.004 C 
ATOM     26  C   UNL     1      34.855 -16.201 -22.286  0.00  0.00    +0.011 C 
ATOM     27  C   UNL     1      34.479 -15.273 -23.332  0.00  0.00    +0.080 C 
ATOM     28  C   UNL     1      34.932 -17.098 -24.260  0.00  0.00    +0.094 C 
ATOM     29  C   UNL     1      34.873 -15.815 -20.898  0.00  0.00    -0.020 C 
ATOM     30  C   UNL     1      34.132 -14.014 -23.040  0.00  0.00    +0.015 C 
ATOM     31  C   UNL     1      34.121 -13.515 -21.609  0.00  0.00    -0.020 C 
ATOM     32  C   UNL     1      34.528 -14.554 -20.579  0.00  0.00    +0.052 C 
ENDBRANCH  23  25
ENDBRANCH  18  23
ENDBRANCH  17  18
ENDBRANCH   1  17
TORSDOF 7
ENDMDL
MODEL 9
REMARK VINA RESULT:     -11.3      4.719     11.188
REMARK  Name = 46937052
REMARK  7 active torsions:
REMARK  status: ('A' for Active; 'I' for Inactive)
REMARK    1  A    between atoms: O_1  and  C_3
REMARK    2  A    between atoms: O_1  and  C_17
REMARK    3  A    between atoms: C_4  and  C_11
REMARK    4  A    between atoms: C_17  and  C_18
REMARK    5  A    between atoms: C_18  and  N_19
REMARK    6  A    between atoms: C_18  and  C_23
REMARK    7  A    between atoms: C_23  and  C_25
REMARK                            x       y       z     vdW  Elec       q    Type
REMARK                         _______ _______ _______ _____ _____    ______ ____
ROOT
ATOM      1  O   UNL     1      33.187 -22.490 -18.589  0.00  0.00    -0.476 OA
ENDROOT
BRANCH   1   3
ATOM      2  N   UNL     1      36.673 -21.436 -18.937  0.00  0.00    -0.239 NA
ATOM      3  C   UNL     1      34.280 -21.775 -19.003  0.00  0.00    +0.158 C 
ATOM      4  C   UNL     1      35.272 -19.993 -20.279  0.00  0.00    +0.039 C 
ATOM      5  C   UNL     1      34.145 -20.700 -19.874  0.00  0.00    +0.042 C 
ATOM      6  C   UNL     1      35.554 -22.100 -18.567  0.00  0.00    +0.136 C 
ATOM      7  C   UNL     1      36.502 -20.398 -19.785  0.00  0.00    +0.101 C 
BRANCH   4  11
ATOM      8  N   UNL     1      35.461 -17.666 -20.766  0.00  0.00    -0.264 NA
ATOM      9  N   UNL     1      34.761 -15.934 -23.968  0.00  0.00    -0.150 NA
ATOM     10  N   UNL     1      34.294 -16.692 -25.129  0.00  0.00    -0.147 NA
ATOM     11  C   UNL     1      35.162 -18.838 -21.210  0.00  0.00    +0.078 C 
ATOM     12  C   UNL     1      34.602 -18.124 -23.403  0.00  0.00    +0.040 C 
ATOM     13  C   UNL     1      34.929 -16.782 -22.989  0.00  0.00    +0.107 C 
ATOM     14  C   UNL     1      35.384 -16.472 -21.611  0.00  0.00    +0.173 C 
ATOM     15  C   UNL     1      34.689 -19.161 -22.585  0.00  0.00    +0.022 C 
ATOM     16  C   UNL     1      34.207 -17.943 -24.780  0.00  0.00    +0.123 C 
ENDBRANCH   4  11
ENDBRANCH   1   3
BRANCH   1  17
ATOM     17  C   UNL     1      33.416 -23.513 -17.629  0.00  0.00    +0.184 C 
BRANCH  17  18
ATOM     18  C   UNL     1      33.087 -23.008 -16.218  0.00  0.00    -0.017 C 
BRANCH  18  19
ATOM     19  N   UNL     1      31.629 -22.980 -16.069  0.00  0.00    +0.384 N 
ATOM     20  H   UNL     1      31.255 -23.917 -16.220  0.00  0.00    -0.089 HD
ATOM     21  H   UNL     1      31.229 -22.339 -16.754  0.00  0.00    -0.089 HD
ATOM     22  H   UNL     1      31.390 -22.666 -15.128  0.00  0.00    -0.089 HD
ENDBRANCH  18  19
BRANCH  18  23
ATOM     23  C   UNL     1      33.694 -23.890 -15.100  0.00  0.00    +0.010 C 
BRANCH  23  25
ATOM     24  N   UNL     1      37.184 -22.577 -14.840  0.00  0.00    -0.244 NA
ATOM     25  C   UNL     1      35.154 -23.767 -14.942  0.00  0.00    -0.004 C 
ATOM     26  C   UNL     1      36.149 -24.635 -14.723  0.00  0.00    +0.011 C 
ATOM     27  C   UNL     1      37.404 -23.915 -14.658  0.00  0.00    +0.080 C 
ATOM     28  C   UNL     1      35.897 -22.498 -15.001  0.00  0.00    +0.094 C 
ATOM     29  C   UNL     1      36.085 -26.065 -14.563  0.00  0.00    -0.020 C 
ATOM     30  C   UNL     1      38.557 -24.561 -14.446  0.00  0.00    +0.015 C 
ATOM     31  C   UNL     1      38.589 -26.067 -14.267  0.00  0.00    -0.020 C 
ATOM     32  C   UNL     1      37.230 -26.738 -14.348  0.00  0.00    +0.052 C 
ENDBRANCH  23  25
ENDBRANCH  18  23
ENDBRANCH  17  18
ENDBRANCH   1  17
TORSDOF 7
ENDMDL
