MODEL 1
REMARK VINA RESULT:     -11.0      0.000      0.000
REMARK  Name = 10252640
REMARK  6 active torsions:
REMARK  status: ('A' for Active; 'I' for Inactive)
REMARK    1  A    between atoms: N_1  and  C_31
REMARK    2  A    between atoms: C_4  and  N_23
REMARK    3  A    between atoms: C_6  and  C_13
REMARK    4  A    between atoms: C_14  and  C_15
REMARK    5  A    between atoms: C_15  and  C_18
REMARK    6  A    between atoms: N_23  and  C_26
REMARK                            x       y       z     vdW  Elec       q    Type
REMARK                         _______ _______ _______ _____ _____    ______ ____
ROOT
ATOM      1  N   UNL     1      30.673 -24.804 -14.035  0.00  0.00    -0.195 N 
ATOM      2  N   UNL     1      31.493 -23.652 -15.997  0.00  0.00    -0.227 NA
ATOM      3  N   UNL     1      31.112 -25.266 -12.849  0.00  0.00    -0.175 NA
ATOM      4  C   UNL     1      33.996 -23.727 -14.555  0.00  0.00    +0.055 C 
ATOM      5  C   UNL     1      32.806 -24.277 -14.026  0.00  0.00    +0.067 C 
ATOM      6  C   UNL     1      33.880 -23.140 -15.829  0.00  0.00    +0.087 C 
ATOM      7  C   UNL     1      31.644 -24.202 -14.780  0.00  0.00    +0.153 C 
ATOM      8  C   UNL     1      32.409 -24.942 -12.849  0.00  0.00    +0.122 C 
ATOM      9  C   UNL     1      32.650 -23.133 -16.477  0.00  0.00    +0.106 C 
ENDROOT
BRANCH   6  13
ATOM     10  O   UNL     1      34.978 -22.508 -17.833  0.00  0.00    -0.419 OA
ATOM     11  N   UNL     1      36.108 -22.026 -15.964  0.00  0.00    -0.107 NA
ATOM     12  N   UNL     1      36.865 -21.604 -17.040  0.00  0.00    -0.111 NA
ATOM     13  C   UNL     1      35.024 -22.543 -16.478  0.00  0.00    +0.252 A 
ATOM     14  C   UNL     1      36.167 -21.907 -18.110  0.00  0.00    +0.228 A 
BRANCH  14  15
ATOM     15  C   UNL     1      36.484 -21.690 -19.528  0.00  0.00    +0.105 C 
BRANCH  15  18
ATOM     16  S   UNL     1      36.903 -19.207 -20.686  0.00  0.00    -0.080 S 
ATOM     17  N   UNL     1      34.344 -18.858 -20.808  0.00  0.00    -0.408 NA
ATOM     18  C   UNL     1      35.872 -20.417 -20.109  0.00  0.00    +0.111 C 
ATOM     19  C   UNL     1      34.570 -20.095 -20.238  0.00  0.00    +0.098 C 
ATOM     20  C   UNL     1      35.502 -18.300 -21.085  0.00  0.00    +0.134 C 
ATOM     21  C   UNL     1      33.398 -20.905 -19.846  0.00  0.00    +0.062 C 
ATOM     22  C   UNL     1      35.661 -16.967 -21.705  0.00  0.00    +0.074 C 
ENDBRANCH  15  18
ENDBRANCH  14  15
ENDBRANCH   6  13
BRANCH   4  23
ATOM     23  N   UNL     1      35.193 -23.762 -13.864  0.00  0.00    -0.334 N 
ATOM     24  H   UNL     1      35.594 -22.909 -13.581  0.00  0.00    +0.147 HD
BRANCH  23  26
ATOM     25  O   UNL     1      38.672 -24.433 -12.979  0.00  0.00    -0.354 OA
ATOM     26  C   UNL     1      35.889 -24.989 -13.531  0.00  0.00    +0.074 C 
ATOM     27  C   UNL     1      36.452 -24.900 -12.111  0.00  0.00    +0.052 C 
ATOM     28  C   UNL     1      37.003 -25.257 -14.545  0.00  0.00    +0.052 C 
ATOM     29  C   UNL     1      37.684 -24.003 -12.043  0.00  0.00    +0.144 C 
ATOM     30  C   UNL     1      38.210 -24.348 -14.326  0.00  0.00    +0.144 C 
ENDBRANCH  23  26
ENDBRANCH   4  23
BRANCH   1  31
ATOM     31  C   UNL     1      29.287 -24.976 -14.395  0.00  0.00    +0.118 C 
ATOM     32  C   UNL     1      28.683 -23.709 -14.980  0.00  0.00    +0.025 C 
ENDBRANCH   1  31
TORSDOF 6
ENDMDL
MODEL 2
REMARK VINA RESULT:     -10.4      2.042      4.875
REMARK  Name = 10252640
REMARK  6 active torsions:
REMARK  status: ('A' for Active; 'I' for Inactive)
REMARK    1  A    between atoms: N_1  and  C_31
REMARK    2  A    between atoms: C_4  and  N_23
REMARK    3  A    between atoms: C_6  and  C_13
REMARK    4  A    between atoms: C_14  and  C_15
REMARK    5  A    between atoms: C_15  and  C_18
REMARK    6  A    between atoms: N_23  and  C_26
REMARK                            x       y       z     vdW  Elec       q    Type
REMARK                         _______ _______ _______ _____ _____    ______ ____
ROOT
ATOM      1  N   UNL     1      36.087 -23.867 -11.940  0.00  0.00    -0.195 N 
ATOM      2  N   UNL     1      36.588 -22.922 -14.110  0.00  0.00    -0.227 NA
ATOM      3  N   UNL     1      35.070 -24.444 -11.274  0.00  0.00    -0.175 NA
ATOM      4  C   UNL     1      33.841 -23.636 -14.655  0.00  0.00    +0.055 C 
ATOM      5  C   UNL     1      34.449 -23.885 -13.404  0.00  0.00    +0.067 C 
ATOM      6  C   UNL     1      34.663 -23.019 -15.617  0.00  0.00    +0.087 C 
ATOM      7  C   UNL     1      35.772 -23.513 -13.219  0.00  0.00    +0.153 C 
ATOM      8  C   UNL     1      34.077 -24.453 -12.169  0.00  0.00    +0.122 C 
ATOM      9  C   UNL     1      35.978 -22.697 -15.299  0.00  0.00    +0.106 C 
ENDROOT
BRANCH   6  13
ATOM     10  O   UNL     1      35.100 -22.569 -17.903  0.00  0.00    -0.419 OA
ATOM     11  N   UNL     1      32.932 -22.548 -17.351  0.00  0.00    -0.107 NA
ATOM     12  N   UNL     1      33.031 -22.272 -18.701  0.00  0.00    -0.111 NA
ATOM     13  C   UNL     1      34.159 -22.712 -16.936  0.00  0.00    +0.252 A 
ATOM     14  C   UNL     1      34.314 -22.294 -18.980  0.00  0.00    +0.228 A 
BRANCH  14  15
ATOM     15  C   UNL     1      34.998 -22.068 -20.259  0.00  0.00    +0.105 C 
BRANCH  15  18
ATOM     16  S   UNL     1      34.582 -19.712 -21.657  0.00  0.00    -0.080 S 
ATOM     17  N   UNL     1      36.501 -18.608 -20.321  0.00  0.00    -0.408 NA
ATOM     18  C   UNL     1      35.409 -20.616 -20.491  0.00  0.00    +0.111 C 
ATOM     19  C   UNL     1      36.379 -19.910 -19.879  0.00  0.00    +0.098 C 
ATOM     20  C   UNL     1      35.604 -18.392 -21.259  0.00  0.00    +0.134 C 
ATOM     21  C   UNL     1      37.295 -20.371 -18.816  0.00  0.00    +0.062 C 
ATOM     22  C   UNL     1      35.431 -17.108 -21.972  0.00  0.00    +0.074 C 
ENDBRANCH  15  18
ENDBRANCH  14  15
ENDBRANCH   6  13
BRANCH   4  23
ATOM     23  N   UNL     1      32.527 -23.979 -14.916  0.00  0.00    -0.334 N 
ATOM     24  H   UNL     1      32.329 -24.465 -15.748  0.00  0.00    +0.147 HD
BRANCH  23  26
ATOM     25  O   UNL     1      28.948 -24.672 -15.121  0.00  0.00    -0.354 OA
ATOM     26  C   UNL     1      31.427 -23.662 -14.028  0.00  0.00    +0.074 C 
ATOM     27  C   UNL     1      30.767 -24.951 -13.535  0.00  0.00    +0.052 C 
ATOM     28  C   UNL     1      30.411 -22.767 -14.744  0.00  0.00    +0.052 C 
ATOM     29  C   UNL     1      29.908 -25.600 -14.617  0.00  0.00    +0.144 C 
ATOM     30  C   UNL     1      29.564 -23.546 -15.745  0.00  0.00    +0.144 C 
ENDBRANCH  23  26
ENDBRANCH   4  23
BRANCH   1  31
ATOM     31  C   UNL     1      37.356 -23.682 -11.278  0.00  0.00    +0.118 C 
ATOM     32  C   UNL     1      38.360 -24.761 -11.647  0.00  0.00    +0.025 C 
ENDBRANCH   1  31
TORSDOF 6
ENDMDL
MODEL 3
REMARK VINA RESULT:      -9.7      2.970      7.828
REMARK  Name = 10252640
REMARK  6 active torsions:
REMARK  status: ('A' for Active; 'I' for Inactive)
REMARK    1  A    between atoms: N_1  and  C_31
REMARK    2  A    between atoms: C_4  and  N_23
REMARK    3  A    between atoms: C_6  and  C_13
REMARK    4  A    between atoms: C_14  and  C_15
REMARK    5  A    between atoms: C_15  and  C_18
REMARK    6  A    between atoms: N_23  and  C_26
REMARK                            x       y       z     vdW  Elec       q    Type
REMARK                         _______ _______ _______ _____ _____    ______ ____
ROOT
ATOM      1  N   UNL     1      34.392 -21.420 -19.251  0.00  0.00    -0.195 N 
ATOM      2  N   UNL     1      35.538 -22.210 -17.272  0.00  0.00    -0.227 NA
ATOM      3  N   UNL     1      33.155 -21.372 -19.778  0.00  0.00    -0.175 NA
ATOM      4  C   UNL     1      32.882 -23.059 -16.511  0.00  0.00    +0.055 C 
ATOM      5  C   UNL     1      33.140 -22.399 -17.735  0.00  0.00    +0.067 C 
ATOM      6  C   UNL     1      34.005 -23.273 -15.689  0.00  0.00    +0.087 C 
ATOM      7  C   UNL     1      34.442 -22.023 -18.028  0.00  0.00    +0.153 C 
ATOM      8  C   UNL     1      32.398 -21.968 -18.852  0.00  0.00    +0.122 C 
ATOM      9  C   UNL     1      35.259 -22.843 -16.107  0.00  0.00    +0.106 C 
ENDROOT
BRANCH   6  13
ATOM     10  O   UNL     1      35.011 -24.027 -13.680  0.00  0.00    -0.419 OA
ATOM     11  N   UNL     1      32.825 -24.469 -13.845  0.00  0.00    -0.107 NA
ATOM     12  N   UNL     1      33.269 -24.963 -12.633  0.00  0.00    -0.111 NA
ATOM     13  C   UNL     1      33.873 -23.936 -14.413  0.00  0.00    +0.252 A 
ATOM     14  C   UNL     1      34.551 -24.683 -12.580  0.00  0.00    +0.228 A 
BRANCH  14  15
ATOM     15  C   UNL     1      35.529 -24.973 -11.524  0.00  0.00    +0.105 C 
BRANCH  15  18
ATOM     16  S   UNL     1      37.556 -26.312 -12.857  0.00  0.00    -0.080 S 
ATOM     17  N   UNL     1      39.138 -24.316 -12.409  0.00  0.00    -0.408 NA
ATOM     18  C   UNL     1      36.978 -24.969 -12.007  0.00  0.00    +0.111 C 
ATOM     19  C   UNL     1      37.912 -24.011 -11.851  0.00  0.00    +0.098 C 
ATOM     20  C   UNL     1      39.067 -25.506 -12.967  0.00  0.00    +0.134 C 
ATOM     21  C   UNL     1      37.764 -22.710 -11.168  0.00  0.00    +0.062 C 
ATOM     22  C   UNL     1      40.188 -26.170 -13.665  0.00  0.00    +0.074 C 
ENDBRANCH  15  18
ENDBRANCH  14  15
ENDBRANCH   6  13
BRANCH   4  23
ATOM     23  N   UNL     1      31.612 -23.464 -16.148  0.00  0.00    -0.334 N 
ATOM     24  H   UNL     1      31.389 -24.421 -16.218  0.00  0.00    +0.147 HD
BRANCH  23  26
ATOM     25  O   UNL     1      28.227 -24.037 -14.904  0.00  0.00    -0.354 OA
ATOM     26  C   UNL     1      30.589 -22.556 -15.667  0.00  0.00    +0.074 C 
ATOM     27  C   UNL     1      30.247 -22.880 -14.212  0.00  0.00    +0.052 C 
ATOM     28  C   UNL     1      29.345 -22.645 -16.554  0.00  0.00    +0.052 C 
ATOM     29  C   UNL     1      29.397 -24.141 -14.095  0.00  0.00    +0.144 C 
ATOM     30  C   UNL     1      28.540 -23.914 -16.290  0.00  0.00    +0.144 C 
ENDBRANCH  23  26
ENDBRANCH   4  23
BRANCH   1  31
ATOM     31  C   UNL     1      35.501 -20.858 -19.985  0.00  0.00    +0.118 C 
ATOM     32  C   UNL     1      35.058 -19.776 -20.955  0.00  0.00    +0.025 C 
ENDBRANCH   1  31
TORSDOF 6
ENDMDL
MODEL 4
REMARK VINA RESULT:      -9.5     10.068     15.904
REMARK  Name = 10252640
REMARK  6 active torsions:
REMARK  status: ('A' for Active; 'I' for Inactive)
REMARK    1  A    between atoms: N_1  and  C_31
REMARK    2  A    between atoms: C_4  and  N_23
REMARK    3  A    between atoms: C_6  and  C_13
REMARK    4  A    between atoms: C_14  and  C_15
REMARK    5  A    between atoms: C_15  and  C_18
REMARK    6  A    between atoms: N_23  and  C_26
REMARK                            x       y       z     vdW  Elec       q    Type
REMARK                         _______ _______ _______ _____ _____    ______ ____
ROOT
ATOM      1  N   UNL     1      32.040  -4.407 -22.804  0.00  0.00    -0.195 N 
ATOM      2  N   UNL     1      32.846  -6.080 -24.354  0.00  0.00    -0.227 NA
ATOM      3  N   UNL     1      31.693  -4.279 -21.510  0.00  0.00    -0.175 NA
ATOM      4  C   UNL     1      32.714  -7.785 -22.024  0.00  0.00    +0.055 C 
ATOM      5  C   UNL     1      32.354  -6.418 -21.978  0.00  0.00    +0.067 C 
ATOM      6  C   UNL     1      33.141  -8.258 -23.279  0.00  0.00    +0.087 C 
ATOM      7  C   UNL     1      32.444  -5.666 -23.139  0.00  0.00    +0.153 C 
ATOM      8  C   UNL     1      31.887  -5.505 -21.013  0.00  0.00    +0.122 C 
ATOM      9  C   UNL     1      33.184  -7.392 -24.365  0.00  0.00    +0.106 C 
ENDROOT
BRANCH   6  13
ATOM     10  O   UNL     1      32.589 -10.560 -23.159  0.00  0.00    -0.419 OA
ATOM     11  N   UNL     1      34.672 -10.141 -23.857  0.00  0.00    -0.107 NA
ATOM     12  N   UNL     1      34.497 -11.512 -23.838  0.00  0.00    -0.111 NA
ATOM     13  C   UNL     1      33.537  -9.636 -23.455  0.00  0.00    +0.252 A 
ATOM     14  C   UNL     1      33.267 -11.711 -23.424  0.00  0.00    +0.228 A 
BRANCH  14  15
ATOM     15  C   UNL     1      32.542 -12.970 -23.213  0.00  0.00    +0.105 C 
BRANCH  15  18
ATOM     16  S   UNL     1      34.144 -14.664 -21.715  0.00  0.00    -0.080 S 
ATOM     17  N   UNL     1      34.621 -16.055 -23.841  0.00  0.00    -0.408 NA
ATOM     18  C   UNL     1      33.443 -14.203 -23.183  0.00  0.00    +0.111 C 
ATOM     19  C   UNL     1      33.780 -15.020 -24.199  0.00  0.00    +0.098 C 
ATOM     20  C   UNL     1      34.879 -15.967 -22.554  0.00  0.00    +0.134 C 
ATOM     21  C   UNL     1      33.356 -14.926 -25.611  0.00  0.00    +0.062 C 
ATOM     22  C   UNL     1      35.747 -16.905 -21.809  0.00  0.00    +0.074 C 
ENDBRANCH  15  18
ENDBRANCH  14  15
ENDBRANCH   6  13
BRANCH   4  23
ATOM     23  N   UNL     1      32.651  -8.599 -20.908  0.00  0.00    -0.334 N 
ATOM     24  H   UNL     1      33.496  -8.932 -20.526  0.00  0.00    +0.147 HD
BRANCH  23  26
ATOM     25  O   UNL     1      31.875 -11.189 -18.454  0.00  0.00    -0.354 OA
ATOM     26  C   UNL     1      31.410  -8.988 -20.270  0.00  0.00    +0.074 C 
ATOM     27  C   UNL     1      31.523  -8.805 -18.755  0.00  0.00    +0.052 C 
ATOM     28  C   UNL     1      31.067 -10.438 -20.621  0.00  0.00    +0.052 C 
ATOM     29  C   UNL     1      32.373  -9.896 -18.113  0.00  0.00    +0.144 C 
ATOM     30  C   UNL     1      31.934 -11.435 -19.858  0.00  0.00    +0.144 C 
ENDBRANCH  23  26
ENDBRANCH   4  23
BRANCH   1  31
ATOM     31  C   UNL     1      31.958  -3.262 -23.678  0.00  0.00    +0.118 C 
ATOM     32  C   UNL     1      31.959  -1.951 -22.910  0.00  0.00    +0.025 C 
ENDBRANCH   1  31
TORSDOF 6
ENDMDL
MODEL 5
REMARK VINA RESULT:      -9.5      2.791      6.622
REMARK  Name = 10252640
REMARK  6 active torsions:
REMARK  status: ('A' for Active; 'I' for Inactive)
REMARK    1  A    between atoms: N_1  and  C_31
REMARK    2  A    between atoms: C_4  and  N_23
REMARK    3  A    between atoms: C_6  and  C_13
REMARK    4  A    between atoms: C_14  and  C_15
REMARK    5  A    between atoms: C_15  and  C_18
REMARK    6  A    between atoms: N_23  and  C_26
REMARK                            x       y       z     vdW  Elec       q    Type
REMARK                         _______ _______ _______ _____ _____    ______ ____
ROOT
ATOM      1  N   UNL     1      36.520 -21.541 -18.086  0.00  0.00    -0.195 N 
ATOM      2  N   UNL     1      34.424 -22.745 -17.976  0.00  0.00    -0.227 NA
ATOM      3  N   UNL     1      37.512 -21.120 -17.281  0.00  0.00    -0.175 NA
ATOM      4  C   UNL     1      35.058 -22.872 -15.159  0.00  0.00    +0.055 C 
ATOM      5  C   UNL     1      35.905 -22.233 -16.093  0.00  0.00    +0.067 C 
ATOM      6  C   UNL     1      33.887 -23.443 -15.693  0.00  0.00    +0.087 C 
ATOM      7  C   UNL     1      35.532 -22.214 -17.429  0.00  0.00    +0.153 C 
ATOM      8  C   UNL     1      37.134 -21.544 -16.071  0.00  0.00    +0.122 C 
ATOM      9  C   UNL     1      33.634 -23.351 -17.057  0.00  0.00    +0.106 C 
ENDROOT
BRANCH   6  13
ATOM     10  O   UNL     1      31.666 -24.172 -15.304  0.00  0.00    -0.419 OA
ATOM     11  N   UNL     1      33.115 -24.710 -13.687  0.00  0.00    -0.107 NA
ATOM     12  N   UNL     1      31.874 -25.195 -13.325  0.00  0.00    -0.111 NA
ATOM     13  C   UNL     1      32.940 -24.125 -14.842  0.00  0.00    +0.252 A 
ATOM     14  C   UNL     1      31.058 -24.858 -14.297  0.00  0.00    +0.228 A 
BRANCH  14  15
ATOM     15  C   UNL     1      29.620 -25.113 -14.444  0.00  0.00    +0.105 C 
BRANCH  15  18
ATOM     16  S   UNL     1      27.989 -24.430 -16.579  0.00  0.00    -0.080 S 
ATOM     17  N   UNL     1      28.041 -21.965 -15.800  0.00  0.00    -0.408 NA
ATOM     18  C   UNL     1      28.872 -24.015 -15.198  0.00  0.00    +0.111 C 
ATOM     19  C   UNL     1      28.806 -22.699 -14.916  0.00  0.00    +0.098 C 
ATOM     20  C   UNL     1      27.561 -22.775 -16.719  0.00  0.00    +0.134 C 
ATOM     21  C   UNL     1      29.447 -21.985 -13.792  0.00  0.00    +0.062 C 
ATOM     22  C   UNL     1      26.694 -22.349 -17.839  0.00  0.00    +0.074 C 
ENDBRANCH  15  18
ENDBRANCH  14  15
ENDBRANCH   6  13
BRANCH   4  23
ATOM     23  N   UNL     1      35.363 -22.934 -13.812  0.00  0.00    -0.334 N 
ATOM     24  H   UNL     1      34.650 -22.732 -13.163  0.00  0.00    +0.147 HD
BRANCH  23  26
ATOM     25  O   UNL     1      36.539 -25.758 -11.818  0.00  0.00    -0.354 OA
ATOM     26  C   UNL     1      36.675 -23.281 -13.303  0.00  0.00    +0.074 C 
ATOM     27  C   UNL     1      37.121 -24.623 -13.886  0.00  0.00    +0.052 C 
ATOM     28  C   UNL     1      36.653 -23.329 -11.774  0.00  0.00    +0.052 C 
ATOM     29  C   UNL     1      36.391 -25.795 -13.237  0.00  0.00    +0.144 C 
ATOM     30  C   UNL     1      35.962 -24.584 -11.248  0.00  0.00    +0.144 C 
ENDBRANCH  23  26
ENDBRANCH   4  23
BRANCH   1  31
ATOM     31  C   UNL     1      36.583 -21.259 -19.500  0.00  0.00    +0.118 C 
ATOM     32  C   UNL     1      36.832 -19.787 -19.782  0.00  0.00    +0.025 C 
ENDBRANCH   1  31
TORSDOF 6
ENDMDL
MODEL 6
REMARK VINA RESULT:      -9.3      2.552      7.394
REMARK  Name = 10252640
REMARK  6 active torsions:
REMARK  status: ('A' for Active; 'I' for Inactive)
REMARK    1  A    between atoms: N_1  and  C_31
REMARK    2  A    between atoms: C_4  and  N_23
REMARK    3  A    between atoms: C_6  and  C_13
REMARK    4  A    between atoms: C_14  and  C_15
REMARK    5  A    between atoms: C_15  and  C_18
REMARK    6  A    between atoms: N_23  and  C_26
REMARK                            x       y       z     vdW  Elec       q    Type
REMARK                         _______ _______ _______ _____ _____    ______ ____
ROOT
ATOM      1  N   UNL     1      35.853 -18.924 -21.189  0.00  0.00    -0.195 N 
ATOM      2  N   UNL     1      33.879 -20.217 -20.660  0.00  0.00    -0.227 NA
ATOM      3  N   UNL     1      37.137 -18.796 -20.807  0.00  0.00    -0.175 NA
ATOM      4  C   UNL     1      35.636 -21.433 -18.714  0.00  0.00    +0.055 C 
ATOM      5  C   UNL     1      36.072 -20.410 -19.586  0.00  0.00    +0.067 C 
ATOM      6  C   UNL     1      34.290 -21.820 -18.858  0.00  0.00    +0.087 C 
ATOM      7  C   UNL     1      35.169 -19.876 -20.493  0.00  0.00    +0.153 C 
ATOM      8  C   UNL     1      37.265 -19.702 -19.833  0.00  0.00    +0.122 C 
ATOM      9  C   UNL     1      33.491 -21.200 -19.811  0.00  0.00    +0.106 C 
ENDROOT
BRANCH   6  13
ATOM     10  O   UNL     1      33.089 -22.428 -16.907  0.00  0.00    -0.419 OA
ATOM     11  N   UNL     1      33.725 -24.154 -18.180  0.00  0.00    -0.107 NA
ATOM     12  N   UNL     1      33.043 -24.658 -17.089  0.00  0.00    -0.111 NA
ATOM     13  C   UNL     1      33.723 -22.857 -18.026  0.00  0.00    +0.252 A 
ATOM     14  C   UNL     1      32.691 -23.615 -16.373  0.00  0.00    +0.228 A 
BRANCH  14  15
ATOM     15  C   UNL     1      31.946 -23.555 -15.109  0.00  0.00    +0.105 C 
BRANCH  15  18
ATOM     16  S   UNL     1      29.672 -22.285 -16.055  0.00  0.00    -0.080 S 
ATOM     17  N   UNL     1      28.242 -24.265 -15.206  0.00  0.00    -0.408 NA
ATOM     18  C   UNL     1      30.429 -23.586 -15.284  0.00  0.00    +0.111 C 
ATOM     19  C   UNL     1      29.560 -24.539 -14.898  0.00  0.00    +0.098 C 
ATOM     20  C   UNL     1      28.182 -23.101 -15.817  0.00  0.00    +0.134 C 
ATOM     21  C   UNL     1      29.861 -25.807 -14.203  0.00  0.00    +0.062 C 
ATOM     22  C   UNL     1      26.933 -22.473 -16.299  0.00  0.00    +0.074 C 
ENDBRANCH  15  18
ENDBRANCH  14  15
ENDBRANCH   6  13
BRANCH   4  23
ATOM     23  N   UNL     1      36.477 -22.015 -17.784  0.00  0.00    -0.334 N 
ATOM     24  H   UNL     1      36.960 -22.835 -18.040  0.00  0.00    +0.147 HD
BRANCH  23  26
ATOM     25  O   UNL     1      37.469 -23.605 -14.650  0.00  0.00    -0.354 OA
ATOM     26  C   UNL     1      36.688 -21.484 -16.452  0.00  0.00    +0.074 C 
ATOM     27  C   UNL     1      38.137 -21.716 -16.022  0.00  0.00    +0.052 C 
ATOM     28  C   UNL     1      35.714 -22.132 -15.465  0.00  0.00    +0.052 C 
ATOM     29  C   UNL     1      38.393 -23.172 -15.647  0.00  0.00    +0.144 C 
ATOM     30  C   UNL     1      36.120 -23.560 -15.111  0.00  0.00    +0.144 C 
ENDBRANCH  23  26
ENDBRANCH   4  23
BRANCH   1  31
ATOM     31  C   UNL     1      35.339 -18.087 -22.247  0.00  0.00    +0.118 C 
ATOM     32  C   UNL     1      35.320 -16.618 -21.860  0.00  0.00    +0.025 C 
ENDBRANCH   1  31
TORSDOF 6
ENDMDL
MODEL 7
REMARK VINA RESULT:      -9.1      9.556     13.607
REMARK  Name = 10252640
REMARK  6 active torsions:
REMARK  status: ('A' for Active; 'I' for Inactive)
REMARK    1  A    between atoms: N_1  and  C_31
REMARK    2  A    between atoms: C_4  and  N_23
REMARK    3  A    between atoms: C_6  and  C_13
REMARK    4  A    between atoms: C_14  and  C_15
REMARK    5  A    between atoms: C_15  and  C_18
REMARK    6  A    between atoms: N_23  and  C_26
REMARK                            x       y       z     vdW  Elec       q    Type
REMARK                         _______ _______ _______ _____ _____    ______ ____
ROOT
ATOM      1  N   UNL     1      35.226 -16.821 -21.948  0.00  0.00    -0.195 N 
ATOM      2  N   UNL     1      34.924 -15.325 -23.824  0.00  0.00    -0.227 NA
ATOM      3  N   UNL     1      35.063 -16.849 -20.613  0.00  0.00    -0.175 NA
ATOM      4  C   UNL     1      34.000 -13.514 -21.770  0.00  0.00    +0.055 C 
ATOM      5  C   UNL     1      34.438 -14.826 -21.476  0.00  0.00    +0.067 C 
ATOM      6  C   UNL     1      34.043 -13.151 -23.129  0.00  0.00    +0.087 C 
ATOM      7  C   UNL     1      34.867 -15.635 -22.517  0.00  0.00    +0.153 C 
ATOM      8  C   UNL     1      34.583 -15.634 -20.331  0.00  0.00    +0.122 C 
ATOM      9  C   UNL     1      34.497 -14.063 -24.075  0.00  0.00    +0.106 C 
ENDROOT
BRANCH   6  13
ATOM     10  O   UNL     1      34.381 -10.804 -23.118  0.00  0.00    -0.419 OA
ATOM     11  N   UNL     1      32.614 -11.481 -24.311  0.00  0.00    -0.107 NA
ATOM     12  N   UNL     1      32.683 -10.104 -24.396  0.00  0.00    -0.111 NA
ATOM     13  C   UNL     1      33.621 -11.837 -23.559  0.00  0.00    +0.252 A 
ATOM     14  C   UNL     1      33.729  -9.752 -23.684  0.00  0.00    +0.228 A 
BRANCH  14  15
ATOM     15  C   UNL     1      34.277  -8.415 -23.422  0.00  0.00    +0.105 C 
BRANCH  15  18
ATOM     16  S   UNL     1      32.590  -6.601 -24.664  0.00  0.00    -0.080 S 
ATOM     17  N   UNL     1      31.723  -5.855 -22.345  0.00  0.00    -0.408 NA
ATOM     18  C   UNL     1      33.213  -7.330 -23.272  0.00  0.00    +0.111 C 
ATOM     19  C   UNL     1      32.668  -6.842 -22.141  0.00  0.00    +0.098 C 
ATOM     20  C   UNL     1      31.600  -5.646 -23.638  0.00  0.00    +0.134 C 
ATOM     21  C   UNL     1      32.967  -7.240 -20.750  0.00  0.00    +0.062 C 
ATOM     22  C   UNL     1      30.680  -4.659 -24.242  0.00  0.00    +0.074 C 
ENDBRANCH  15  18
ENDBRANCH  14  15
ENDBRANCH   6  13
BRANCH   4  23
ATOM     23  N   UNL     1      33.558 -12.649 -20.787  0.00  0.00    -0.334 N 
ATOM     24  H   UNL     1      34.162 -11.930 -20.491  0.00  0.00    +0.147 HD
BRANCH  23  26
ATOM     25  O   UNL     1      31.140 -10.099 -19.793  0.00  0.00    -0.354 OA
ATOM     26  C   UNL     1      32.250 -12.742 -20.168  0.00  0.00    +0.074 C 
ATOM     27  C   UNL     1      31.190 -12.148 -21.098  0.00  0.00    +0.052 C 
ATOM     28  C   UNL     1      32.254 -12.027 -18.815  0.00  0.00    +0.052 C 
ATOM     29  C   UNL     1      31.242 -10.623 -21.116  0.00  0.00    +0.144 C 
ATOM     30  C   UNL     1      32.228 -10.509 -18.967  0.00  0.00    +0.144 C 
ENDBRANCH  23  26
ENDBRANCH   4  23
BRANCH   1  31
ATOM     31  C   UNL     1      35.739 -17.987 -22.627  0.00  0.00    +0.118 C 
ATOM     32  C   UNL     1      34.663 -19.031 -22.870  0.00  0.00    +0.025 C 
ENDBRANCH   1  31
TORSDOF 6
ENDMDL
MODEL 8
REMARK VINA RESULT:      -9.0      2.838      7.750
REMARK  Name = 10252640
REMARK  6 active torsions:
REMARK  status: ('A' for Active; 'I' for Inactive)
REMARK    1  A    between atoms: N_1  and  C_31
REMARK    2  A    between atoms: C_4  and  N_23
REMARK    3  A    between atoms: C_6  and  C_13
REMARK    4  A    between atoms: C_14  and  C_15
REMARK    5  A    between atoms: C_15  and  C_18
REMARK    6  A    between atoms: N_23  and  C_26
REMARK                            x       y       z     vdW  Elec       q    Type
REMARK                         _______ _______ _______ _____ _____    ______ ____
ROOT
ATOM      1  N   UNL     1      34.077 -19.989 -20.822  0.00  0.00    -0.195 N 
ATOM      2  N   UNL     1      36.148 -20.312 -19.615  0.00  0.00    -0.227 NA
ATOM      3  N   UNL     1      32.787 -20.371 -20.781  0.00  0.00    -0.175 NA
ATOM      4  C   UNL     1      34.494 -21.993 -17.944  0.00  0.00    +0.055 C 
ATOM      5  C   UNL     1      33.978 -21.307 -19.067  0.00  0.00    +0.067 C 
ATOM      6  C   UNL     1      35.867 -21.802 -17.695  0.00  0.00    +0.087 C 
ATOM      7  C   UNL     1      34.835 -20.519 -19.820  0.00  0.00    +0.153 C 
ATOM      8  C   UNL     1      32.732 -21.171 -19.711  0.00  0.00    +0.122 C 
ATOM      9  C   UNL     1      36.613 -20.981 -18.533  0.00  0.00    +0.106 C 
ENDROOT
BRANCH   6  13
ATOM     10  O   UNL     1      35.946 -23.608 -16.162  0.00  0.00    -0.419 OA
ATOM     11  N   UNL     1      37.568 -22.091 -15.893  0.00  0.00    -0.107 NA
ATOM     12  N   UNL     1      37.741 -23.074 -14.937  0.00  0.00    -0.111 NA
ATOM     13  C   UNL     1      36.514 -22.448 -16.576  0.00  0.00    +0.252 A 
ATOM     14  C   UNL     1      36.772 -23.938 -15.131  0.00  0.00    +0.228 A 
BRANCH  14  15
ATOM     15  C   UNL     1      36.465 -25.179 -14.409  0.00  0.00    +0.105 C 
BRANCH  15  18
ATOM     16  S   UNL     1      35.240 -24.589 -11.994  0.00  0.00    -0.080 S 
ATOM     17  N   UNL     1      37.465 -25.079 -10.772  0.00  0.00    -0.408 NA
ATOM     18  C   UNL     1      36.594 -25.058 -12.892  0.00  0.00    +0.111 C 
ATOM     19  C   UNL     1      37.677 -25.278 -12.122  0.00  0.00    +0.098 C 
ATOM     20  C   UNL     1      36.214 -24.713 -10.588  0.00  0.00    +0.134 C 
ATOM     21  C   UNL     1      39.024 -25.699 -12.559  0.00  0.00    +0.062 C 
ATOM     22  C   UNL     1      35.617 -24.410  -9.269  0.00  0.00    +0.074 C 
ENDBRANCH  15  18
ENDBRANCH  14  15
ENDBRANCH   6  13
BRANCH   4  23
ATOM     23  N   UNL     1      33.703 -22.796 -17.145  0.00  0.00    -0.334 N 
ATOM     24  H   UNL     1      33.759 -23.773 -17.263  0.00  0.00    +0.147 HD
BRANCH  23  26
ATOM     25  O   UNL     1      31.439 -24.460 -14.811  0.00  0.00    -0.354 OA
ATOM     26  C   UNL     1      32.794 -22.279 -16.141  0.00  0.00    +0.074 C 
ATOM     27  C   UNL     1      33.202 -22.789 -14.758  0.00  0.00    +0.052 C 
ATOM     28  C   UNL     1      31.356 -22.684 -16.471  0.00  0.00    +0.052 C 
ATOM     29  C   UNL     1      32.829 -24.255 -14.559  0.00  0.00    +0.144 C 
ATOM     30  C   UNL     1      31.086 -24.154 -16.159  0.00  0.00    +0.144 C 
ENDBRANCH  23  26
ENDBRANCH   4  23
BRANCH   1  31
ATOM     31  C   UNL     1      34.522 -19.100 -21.868  0.00  0.00    +0.118 C 
ATOM     32  C   UNL     1      34.956 -19.851 -23.115  0.00  0.00    +0.025 C 
ENDBRANCH   1  31
TORSDOF 6
ENDMDL
MODEL 9
REMARK VINA RESULT:      -8.6      9.319     14.108
REMARK  Name = 10252640
REMARK  6 active torsions:
REMARK  status: ('A' for Active; 'I' for Inactive)
REMARK    1  A    between atoms: N_1  and  C_31
REMARK    2  A    between atoms: C_4  and  N_23
REMARK    3  A    between atoms: C_6  and  C_13
REMARK    4  A    between atoms: C_14  and  C_15
REMARK    5  A    between atoms: C_15  and  C_18
REMARK    6  A    between atoms: N_23  and  C_26
REMARK                            x       y       z     vdW  Elec       q    Type
REMARK                         _______ _______ _______ _____ _____    ______ ____
ROOT
ATOM      1  N   UNL     1      34.932 -16.325 -21.846  0.00  0.00    -0.195 N 
ATOM      2  N   UNL     1      34.675 -14.810 -23.714  0.00  0.00    -0.227 NA
ATOM      3  N   UNL     1      34.768 -16.356 -20.511  0.00  0.00    -0.175 NA
ATOM      4  C   UNL     1      33.805 -12.984 -21.649  0.00  0.00    +0.055 C 
ATOM      5  C   UNL     1      34.204 -14.310 -21.363  0.00  0.00    +0.067 C 
ATOM      6  C   UNL     1      33.859 -12.615 -23.007  0.00  0.00    +0.087 C 
ATOM      7  C   UNL     1      34.609 -15.125 -22.408  0.00  0.00    +0.153 C 
ATOM      8  C   UNL     1      34.325 -15.128 -20.222  0.00  0.00    +0.122 C 
ATOM      9  C   UNL     1      34.286 -13.535 -23.957  0.00  0.00    +0.106 C 
ENDROOT
BRANCH   6  13
ATOM     10  O   UNL     1      34.189 -10.270 -22.884  0.00  0.00    -0.419 OA
ATOM     11  N   UNL     1      32.542 -10.905 -24.259  0.00  0.00    -0.107 NA
ATOM     12  N   UNL     1      32.616  -9.525 -24.290  0.00  0.00    -0.111 NA
ATOM     13  C   UNL     1      33.476 -11.287 -23.429  0.00  0.00    +0.252 A 
ATOM     14  C   UNL     1      33.590  -9.199 -23.472  0.00  0.00    +0.228 A 
BRANCH  14  15
ATOM     15  C   UNL     1      34.109  -7.872 -23.116  0.00  0.00    +0.105 C 
BRANCH  15  18
ATOM     16  S   UNL     1      31.809  -6.330 -23.204  0.00  0.00    -0.080 S 
ATOM     17  N   UNL     1      32.828  -4.962 -25.147  0.00  0.00    -0.408 NA
ATOM     18  C   UNL     1      33.354  -6.718 -23.770  0.00  0.00    +0.111 C 
ATOM     19  C   UNL     1      33.752  -5.922 -24.782  0.00  0.00    +0.098 C 
ATOM     20  C   UNL     1      31.764  -5.084 -24.382  0.00  0.00    +0.134 C 
ATOM     21  C   UNL     1      35.033  -5.968 -25.515  0.00  0.00    +0.062 C 
ATOM     22  C   UNL     1      30.563  -4.227 -24.479  0.00  0.00    +0.074 C 
ENDBRANCH  15  18
ENDBRANCH  14  15
ENDBRANCH   6  13
BRANCH   4  23
ATOM     23  N   UNL     1      33.388 -12.112 -20.661  0.00  0.00    -0.334 N 
ATOM     24  H   UNL     1      34.022 -11.428 -20.345  0.00  0.00    +0.147 HD
BRANCH  23  26
ATOM     25  O   UNL     1      31.186  -9.467 -19.440  0.00  0.00    -0.354 OA
ATOM     26  C   UNL     1      32.067 -12.149 -20.067  0.00  0.00    +0.074 C 
ATOM     27  C   UNL     1      31.080 -11.373 -20.942  0.00  0.00    +0.052 C 
ATOM     28  C   UNL     1      32.109 -11.574 -18.649  0.00  0.00    +0.052 C 
ATOM     29  C   UNL     1      31.265  -9.865 -20.808  0.00  0.00    +0.144 C 
ATOM     30  C   UNL     1      32.220 -10.052 -18.649  0.00  0.00    +0.144 C 
ENDBRANCH  23  26
ENDBRANCH   4  23
BRANCH   1  31
ATOM     31  C   UNL     1      35.411 -17.502 -22.531  0.00  0.00    +0.118 C 
ATOM     32  C   UNL     1      35.901 -18.569 -21.567  0.00  0.00    +0.025 C 
ENDBRANCH   1  31
TORSDOF 6
ENDMDL
