MODEL 1
REMARK VINA RESULT:     -10.2      0.000      0.000
REMARK  Name = 24178119
REMARK  2 active torsions:
REMARK  status: ('A' for Active; 'I' for Inactive)
REMARK    1  A    between atoms: N_2  and  C_16
REMARK    2  A    between atoms: C_4  and  O_22
REMARK                            x       y       z     vdW  Elec       q    Type
REMARK                         _______ _______ _______ _____ _____    ______ ____
ROOT
ATOM      1  O   UNL     1      32.038 -21.881 -18.025  0.00  0.00    -0.292 OA
ATOM      2  N   UNL     1      34.909 -23.863 -15.062  0.00  0.00    -0.264 N 
ATOM      3  N   UNL     1      35.888 -22.543 -16.865  0.00  0.00    -0.392 NA
ATOM      4  C   UNL     1      33.577 -23.370 -16.951  0.00  0.00    +0.201 C 
ATOM      5  C   UNL     1      32.677 -23.594 -15.742  0.00  0.00    +0.064 C 
ATOM      6  C   UNL     1      33.566 -24.375 -14.766  0.00  0.00    +0.101 C 
ATOM      7  C   UNL     1      34.936 -23.204 -16.288  0.00  0.00    +0.194 C 
ATOM      8  C   UNL     1      33.198 -22.233 -17.858  0.00  0.00    +0.192 C 
ATOM      9  C   UNL     1      34.338 -21.615 -18.562  0.00  0.00    +0.131 C 
ATOM     10  C   UNL     1      35.631 -21.848 -18.063  0.00  0.00    +0.121 C 
ATOM     11  C   UNL     1      34.127 -20.847 -19.710  0.00  0.00    -0.031 C 
ATOM     12  C   UNL     1      36.714 -21.293 -18.753  0.00  0.00    +0.028 C 
ATOM     13  C   UNL     1      35.221 -20.306 -20.382  0.00  0.00    -0.008 C 
ATOM     14  C   UNL     1      36.513 -20.532 -19.907  0.00  0.00    +0.002 C 
ATOM     15  C   UNL     1      32.775 -20.586 -20.290  0.00  0.00    +0.027 C 
ENDROOT
BRANCH   2  16
ATOM     16  C   UNL     1      35.968 -24.068 -14.213  0.00  0.00    +0.053 C 
ATOM     17  C   UNL     1      36.132 -23.253 -13.092  0.00  0.00    +0.015 C 
ATOM     18  C   UNL     1      36.879 -25.093 -14.469  0.00  0.00    +0.015 C 
ATOM     19  C   UNL     1      37.208 -23.462 -12.230  0.00  0.00    +0.001 C 
ATOM     20  C   UNL     1      37.955 -25.301 -13.606  0.00  0.00    +0.001 C 
ATOM     21  C   UNL     1      38.119 -24.486 -12.486  0.00  0.00    +0.000 C 
ENDBRANCH   2  16
BRANCH   4  22
ATOM     22  O   UNL     1      33.634 -24.515 -17.786  0.00  0.00    -0.373 OA
ATOM     23  H   UNL     1      32.866 -24.519 -18.381  0.00  0.00    +0.211 HD
ENDBRANCH   4  22
TORSDOF 2
ENDMDL
MODEL 2
REMARK VINA RESULT:     -10.0     10.700     13.631
REMARK  Name = 24178119
REMARK  2 active torsions:
REMARK  status: ('A' for Active; 'I' for Inactive)
REMARK    1  A    between atoms: N_2  and  C_16
REMARK    2  A    between atoms: C_4  and  O_22
REMARK                            x       y       z     vdW  Elec       q    Type
REMARK                         _______ _______ _______ _____ _____    ______ ____
ROOT
ATOM      1  O   UNL     1      31.841  -9.261 -19.583  0.00  0.00    -0.292 OA
ATOM      2  N   UNL     1      32.773 -13.120 -21.860  0.00  0.00    -0.264 N 
ATOM      3  N   UNL     1      32.705 -11.046 -23.143  0.00  0.00    -0.392 NA
ATOM      4  C   UNL     1      31.687 -11.245 -20.916  0.00  0.00    +0.201 C 
ATOM      5  C   UNL     1      32.184 -12.157 -19.800  0.00  0.00    +0.064 C 
ATOM      6  C   UNL     1      32.388 -13.508 -20.498  0.00  0.00    +0.101 C 
ATOM      7  C   UNL     1      32.454 -11.788 -22.112  0.00  0.00    +0.194 C 
ATOM      8  C   UNL     1      31.868  -9.769 -20.695  0.00  0.00    +0.192 C 
ATOM      9  C   UNL     1      32.032  -8.987 -21.936  0.00  0.00    +0.131 C 
ATOM     10  C   UNL     1      32.387  -9.674 -23.110  0.00  0.00    +0.121 C 
ATOM     11  C   UNL     1      31.808  -7.609 -21.937  0.00  0.00    -0.031 C 
ATOM     12  C   UNL     1      32.505  -8.938 -24.295  0.00  0.00    +0.028 C 
ATOM     13  C   UNL     1      31.929  -6.897 -23.128  0.00  0.00    -0.008 C 
ATOM     14  C   UNL     1      32.273  -7.560 -24.306  0.00  0.00    +0.002 C 
ATOM     15  C   UNL     1      31.412  -6.837 -20.721  0.00  0.00    +0.027 C 
ENDROOT
BRANCH   2  16
ATOM     16  C   UNL     1      33.344 -14.011 -22.734  0.00  0.00    +0.053 C 
ATOM     17  C   UNL     1      32.891 -14.084 -24.053  0.00  0.00    +0.015 C 
ATOM     18  C   UNL     1      34.377 -14.845 -22.306  0.00  0.00    +0.015 C 
ATOM     19  C   UNL     1      33.471 -14.989 -24.940  0.00  0.00    +0.001 C 
ATOM     20  C   UNL     1      34.957 -15.750 -23.195  0.00  0.00    +0.001 C 
ATOM     21  C   UNL     1      34.504 -15.823 -24.511  0.00  0.00    +0.000 C 
ENDBRANCH   2  16
BRANCH   4  22
ATOM     22  O   UNL     1      30.303 -11.421 -21.165  0.00  0.00    -0.373 OA
ATOM     23  H   UNL     1      29.824 -11.449 -20.322  0.00  0.00    +0.211 HD
ENDBRANCH   4  22
TORSDOF 2
ENDMDL
MODEL 3
REMARK VINA RESULT:      -9.5     11.004     14.086
REMARK  Name = 24178119
REMARK  2 active torsions:
REMARK  status: ('A' for Active; 'I' for Inactive)
REMARK    1  A    between atoms: N_2  and  C_16
REMARK    2  A    between atoms: C_4  and  O_22
REMARK                            x       y       z     vdW  Elec       q    Type
REMARK                         _______ _______ _______ _____ _____    ______ ____
ROOT
ATOM      1  O   UNL     1      31.854  -8.418 -20.170  0.00  0.00    -0.292 OA
ATOM      2  N   UNL     1      32.617 -12.471 -22.154  0.00  0.00    -0.264 N 
ATOM      3  N   UNL     1      33.718 -10.521 -23.121  0.00  0.00    -0.392 NA
ATOM      4  C   UNL     1      31.785 -10.325 -21.618  0.00  0.00    +0.201 C 
ATOM      5  C   UNL     1      31.443 -11.295 -20.494  0.00  0.00    +0.064 C 
ATOM      6  C   UNL     1      31.561 -12.675 -21.155  0.00  0.00    +0.101 C 
ATOM      7  C   UNL     1      32.830 -11.115 -22.390  0.00  0.00    +0.194 C 
ATOM      8  C   UNL     1      32.245  -8.958 -21.195  0.00  0.00    +0.192 C 
ATOM      9  C   UNL     1      33.166  -8.308 -22.148  0.00  0.00    +0.131 C 
ATOM     10  C   UNL     1      33.813  -9.115 -23.100  0.00  0.00    +0.121 C 
ATOM     11  C   UNL     1      33.358  -6.925 -22.113  0.00  0.00    -0.031 C 
ATOM     12  C   UNL     1      34.658  -8.493 -24.027  0.00  0.00    +0.028 C 
ATOM     13  C   UNL     1      34.202  -6.328 -23.048  0.00  0.00    -0.008 C 
ATOM     14  C   UNL     1      34.847  -7.109 -24.005  0.00  0.00    +0.002 C 
ATOM     15  C   UNL     1      32.681  -6.023 -21.134  0.00  0.00    +0.027 C 
ENDROOT
BRANCH   2  16
ATOM     16  C   UNL     1      33.253 -13.524 -22.763  0.00  0.00    +0.053 C 
ATOM     17  C   UNL     1      34.228 -14.246 -22.073  0.00  0.00    +0.015 C 
ATOM     18  C   UNL     1      32.924 -13.874 -24.073  0.00  0.00    +0.015 C 
ATOM     19  C   UNL     1      34.873 -15.315 -22.692  0.00  0.00    +0.001 C 
ATOM     20  C   UNL     1      33.570 -14.945 -24.692  0.00  0.00    +0.001 C 
ATOM     21  C   UNL     1      34.544 -15.665 -24.002  0.00  0.00    +0.000 C 
ENDBRANCH   2  16
BRANCH   4  22
ATOM     22  O   UNL     1      30.680 -10.101 -22.477  0.00  0.00    -0.373 OA
ATOM     23  H   UNL     1      30.507  -9.148 -22.540  0.00  0.00    +0.211 HD
ENDBRANCH   4  22
TORSDOF 2
ENDMDL
MODEL 4
REMARK VINA RESULT:      -8.8      2.275      6.412
REMARK  Name = 24178119
REMARK  2 active torsions:
REMARK  status: ('A' for Active; 'I' for Inactive)
REMARK    1  A    between atoms: N_2  and  C_16
REMARK    2  A    between atoms: C_4  and  O_22
REMARK                            x       y       z     vdW  Elec       q    Type
REMARK                         _______ _______ _______ _____ _____    ______ ____
ROOT
ATOM      1  O   UNL     1      33.677 -23.717 -13.583  0.00  0.00    -0.292 OA
ATOM      2  N   UNL     1      34.596 -22.051 -17.746  0.00  0.00    -0.264 N 
ATOM      3  N   UNL     1      32.257 -22.472 -17.194  0.00  0.00    -0.392 NA
ATOM      4  C   UNL     1      34.105 -23.480 -15.928  0.00  0.00    +0.201 C 
ATOM      5  C   UNL     1      35.476 -22.848 -15.719  0.00  0.00    +0.064 C 
ATOM      6  C   UNL     1      35.883 -22.387 -17.124  0.00  0.00    +0.101 C 
ATOM      7  C   UNL     1      33.535 -22.603 -17.033  0.00  0.00    +0.194 C 
ATOM      8  C   UNL     1      33.227 -23.575 -14.712  0.00  0.00    +0.192 C 
ATOM      9  C   UNL     1      31.781 -23.533 -15.004  0.00  0.00    +0.131 C 
ATOM     10  C   UNL     1      31.372 -23.036 -16.253  0.00  0.00    +0.121 C 
ATOM     11  C   UNL     1      30.857 -24.004 -14.069  0.00  0.00    -0.031 C 
ATOM     12  C   UNL     1      30.003 -23.031 -16.545  0.00  0.00    +0.028 C 
ATOM     13  C   UNL     1      29.500 -23.992 -14.382  0.00  0.00    -0.008 C 
ATOM     14  C   UNL     1      29.073 -23.509 -15.619  0.00  0.00    +0.002 C 
ATOM     15  C   UNL     1      31.243 -24.558 -12.736  0.00  0.00    +0.027 C 
ENDROOT
BRANCH   2  16
ATOM     16  C   UNL     1      34.518 -21.311 -18.899  0.00  0.00    +0.053 C 
ATOM     17  C   UNL     1      33.272 -20.988 -19.440  0.00  0.00    +0.015 C 
ATOM     18  C   UNL     1      35.685 -20.880 -19.531  0.00  0.00    +0.015 C 
ATOM     19  C   UNL     1      33.194 -20.237 -20.611  0.00  0.00    +0.001 C 
ATOM     20  C   UNL     1      35.605 -20.127 -20.703  0.00  0.00    +0.001 C 
ATOM     21  C   UNL     1      34.361 -19.806 -21.243  0.00  0.00    +0.000 C 
ENDBRANCH   2  16
BRANCH   4  22
ATOM     22  O   UNL     1      34.205 -24.804 -16.425  0.00  0.00    -0.373 OA
ATOM     23  H   UNL     1      33.445 -25.323 -16.116  0.00  0.00    +0.211 HD
ENDBRANCH   4  22
TORSDOF 2
ENDMDL
MODEL 5
REMARK VINA RESULT:      -8.5      2.572      4.973
REMARK  Name = 24178119
REMARK  2 active torsions:
REMARK  status: ('A' for Active; 'I' for Inactive)
REMARK    1  A    between atoms: N_2  and  C_16
REMARK    2  A    between atoms: C_4  and  O_22
REMARK                            x       y       z     vdW  Elec       q    Type
REMARK                         _______ _______ _______ _____ _____    ______ ____
ROOT
ATOM      1  O   UNL     1      31.650 -22.622 -17.145  0.00  0.00    -0.292 OA
ATOM      2  N   UNL     1      35.112 -24.105 -14.544  0.00  0.00    -0.264 N 
ATOM      3  N   UNL     1      32.867 -24.863 -13.966  0.00  0.00    -0.392 NA
ATOM      4  C   UNL     1      33.262 -22.905 -15.396  0.00  0.00    +0.201 C 
ATOM      5  C   UNL     1      34.456 -22.722 -16.325  0.00  0.00    +0.064 C 
ATOM      6  C   UNL     1      35.660 -23.087 -15.448  0.00  0.00    +0.101 C 
ATOM      7  C   UNL     1      33.720 -24.082 -14.548  0.00  0.00    +0.194 C 
ATOM      8  C   UNL     1      31.931 -23.115 -16.061  0.00  0.00    +0.192 C 
ATOM      9  C   UNL     1      30.980 -23.922 -15.272  0.00  0.00    +0.131 C 
ATOM     10  C   UNL     1      31.490 -24.713 -14.227  0.00  0.00    +0.121 C 
ATOM     11  C   UNL     1      29.612 -23.870 -15.546  0.00  0.00    -0.031 C 
ATOM     12  C   UNL     1      30.584 -25.449 -13.455  0.00  0.00    +0.028 C 
ATOM     13  C   UNL     1      28.728 -24.610 -14.763  0.00  0.00    -0.008 C 
ATOM     14  C   UNL     1      29.213 -25.395 -13.716  0.00  0.00    +0.002 C 
ATOM     15  C   UNL     1      29.020 -23.033 -16.632  0.00  0.00    +0.027 C 
ENDROOT
BRANCH   2  16
ATOM     16  C   UNL     1      35.922 -24.922 -13.795  0.00  0.00    +0.053 C 
ATOM     17  C   UNL     1      36.559 -26.011 -14.391  0.00  0.00    +0.015 C 
ATOM     18  C   UNL     1      36.108 -24.664 -12.436  0.00  0.00    +0.015 C 
ATOM     19  C   UNL     1      37.381 -26.841 -13.630  0.00  0.00    +0.001 C 
ATOM     20  C   UNL     1      36.931 -25.495 -11.675  0.00  0.00    +0.001 C 
ATOM     21  C   UNL     1      37.567 -26.583 -12.272  0.00  0.00    +0.000 C 
ENDBRANCH   2  16
BRANCH   4  22
ATOM     22  O   UNL     1      33.084 -21.790 -14.539  0.00  0.00    -0.373 OA
ATOM     23  H   UNL     1      32.136 -21.653 -14.380  0.00  0.00    +0.211 HD
ENDBRANCH   4  22
TORSDOF 2
ENDMDL
MODEL 6
REMARK VINA RESULT:      -8.2      1.721      6.062
REMARK  Name = 24178119
REMARK  2 active torsions:
REMARK  status: ('A' for Active; 'I' for Inactive)
REMARK    1  A    between atoms: N_2  and  C_16
REMARK    2  A    between atoms: C_4  and  O_22
REMARK                            x       y       z     vdW  Elec       q    Type
REMARK                         _______ _______ _______ _____ _____    ______ ____
ROOT
ATOM      1  O   UNL     1      34.272 -25.462 -13.920  0.00  0.00    -0.292 OA
ATOM      2  N   UNL     1      33.784 -22.426 -17.310  0.00  0.00    -0.264 N 
ATOM      3  N   UNL     1      36.041 -22.823 -16.472  0.00  0.00    -0.392 NA
ATOM      4  C   UNL     1      34.038 -23.447 -15.193  0.00  0.00    +0.201 C 
ATOM      5  C   UNL     1      32.702 -23.861 -15.798  0.00  0.00    +0.064 C 
ATOM      6  C   UNL     1      32.435 -22.787 -16.861  0.00  0.00    +0.101 C 
ATOM      7  C   UNL     1      34.748 -22.862 -16.405  0.00  0.00    +0.194 C 
ATOM      8  C   UNL     1      34.814 -24.529 -14.496  0.00  0.00    +0.192 C 
ATOM      9  C   UNL     1      36.277 -24.339 -14.525  0.00  0.00    +0.131 C 
ATOM     10  C   UNL     1      36.812 -23.452 -15.475  0.00  0.00    +0.121 C 
ATOM     11  C   UNL     1      37.094 -25.006 -13.608  0.00  0.00    -0.031 C 
ATOM     12  C   UNL     1      38.196 -23.244 -15.477  0.00  0.00    +0.028 C 
ATOM     13  C   UNL     1      38.469 -24.781 -13.627  0.00  0.00    -0.008 C 
ATOM     14  C   UNL     1      39.019 -23.899 -14.557  0.00  0.00    +0.002 C 
ATOM     15  C   UNL     1      36.572 -25.943 -12.569  0.00  0.00    +0.027 C 
ENDROOT
BRANCH   2  16
ATOM     16  C   UNL     1      33.999 -21.720 -18.467  0.00  0.00    +0.053 C 
ATOM     17  C   UNL     1      32.930 -21.104 -19.119  0.00  0.00    +0.015 C 
ATOM     18  C   UNL     1      35.288 -21.616 -18.992  0.00  0.00    +0.015 C 
ATOM     19  C   UNL     1      33.149 -20.387 -20.294  0.00  0.00    +0.001 C 
ATOM     20  C   UNL     1      35.506 -20.898 -20.168  0.00  0.00    +0.001 C 
ATOM     21  C   UNL     1      34.437 -20.284 -20.819  0.00  0.00    +0.000 C 
ENDBRANCH   2  16
BRANCH   4  22
ATOM     22  O   UNL     1      33.886 -22.414 -14.234  0.00  0.00    -0.373 OA
ATOM     23  H   UNL     1      34.696 -22.344 -13.703  0.00  0.00    +0.211 HD
ENDBRANCH   4  22
TORSDOF 2
ENDMDL
MODEL 7
REMARK VINA RESULT:      -8.1      2.977      6.101
REMARK  Name = 24178119
REMARK  2 active torsions:
REMARK  status: ('A' for Active; 'I' for Inactive)
REMARK    1  A    between atoms: N_2  and  C_16
REMARK    2  A    between atoms: C_4  and  O_22
REMARK                            x       y       z     vdW  Elec       q    Type
REMARK                         _______ _______ _______ _____ _____    ______ ____
ROOT
ATOM      1  O   UNL     1      35.647 -25.370 -13.205  0.00  0.00    -0.292 OA
ATOM      2  N   UNL     1      31.344 -24.236 -14.276  0.00  0.00    -0.264 N 
ATOM      3  N   UNL     1      33.135 -23.210 -15.578  0.00  0.00    -0.392 NA
ATOM      4  C   UNL     1      33.536 -24.254 -13.391  0.00  0.00    +0.201 C 
ATOM      5  C   UNL     1      32.749 -25.427 -12.818  0.00  0.00    +0.064 C 
ATOM      6  C   UNL     1      31.284 -25.027 -13.042  0.00  0.00    +0.101 C 
ATOM      7  C   UNL     1      32.649 -23.836 -14.554  0.00  0.00    +0.194 C 
ATOM      8  C   UNL     1      34.959 -24.539 -13.781  0.00  0.00    +0.192 C 
ATOM      9  C   UNL     1      35.464 -23.696 -14.882  0.00  0.00    +0.131 C 
ATOM     10  C   UNL     1      34.528 -23.029 -15.690  0.00  0.00    +0.121 C 
ATOM     11  C   UNL     1      36.839 -23.550 -15.086  0.00  0.00    -0.031 C 
ATOM     12  C   UNL     1      35.009 -22.200 -16.710  0.00  0.00    +0.028 C 
ATOM     13  C   UNL     1      37.294 -22.718 -16.106  0.00  0.00    -0.008 C 
ATOM     14  C   UNL     1      36.381 -22.041 -16.915  0.00  0.00    +0.002 C 
ATOM     15  C   UNL     1      37.873 -24.223 -14.244  0.00  0.00    +0.027 C 
ENDROOT
BRANCH   2  16
ATOM     16  C   UNL     1      30.218 -23.936 -15.002  0.00  0.00    +0.053 C 
ATOM     17  C   UNL     1      29.551 -24.942 -15.703  0.00  0.00    +0.015 C 
ATOM     18  C   UNL     1      29.740 -22.626 -15.038  0.00  0.00    +0.015 C 
ATOM     19  C   UNL     1      28.408 -24.637 -16.440  0.00  0.00    +0.001 C 
ATOM     20  C   UNL     1      28.595 -22.322 -15.775  0.00  0.00    +0.001 C 
ATOM     21  C   UNL     1      27.929 -23.327 -16.476  0.00  0.00    +0.000 C 
ENDBRANCH   2  16
BRANCH   4  22
ATOM     22  O   UNL     1      33.605 -23.170 -12.479  0.00  0.00    -0.373 OA
ATOM     23  H   UNL     1      32.713 -22.814 -12.333  0.00  0.00    +0.211 HD
ENDBRANCH   4  22
TORSDOF 2
ENDMDL
MODEL 8
REMARK VINA RESULT:      -8.1      2.040      6.514
REMARK  Name = 24178119
REMARK  2 active torsions:
REMARK  status: ('A' for Active; 'I' for Inactive)
REMARK    1  A    between atoms: N_2  and  C_16
REMARK    2  A    between atoms: C_4  and  O_22
REMARK                            x       y       z     vdW  Elec       q    Type
REMARK                         _______ _______ _______ _____ _____    ______ ____
ROOT
ATOM      1  O   UNL     1      36.414 -23.169 -12.956  0.00  0.00    -0.292 OA
ATOM      2  N   UNL     1      35.865 -21.917 -17.323  0.00  0.00    -0.264 N 
ATOM      3  N   UNL     1      33.955 -22.933 -16.197  0.00  0.00    -0.392 NA
ATOM      4  C   UNL     1      36.249 -23.152 -15.345  0.00  0.00    +0.201 C 
ATOM      5  C   UNL     1      37.353 -22.116 -15.517  0.00  0.00    +0.064 C 
ATOM      6  C   UNL     1      37.290 -21.760 -17.008  0.00  0.00    +0.101 C 
ATOM      7  C   UNL     1      35.211 -22.653 -16.339  0.00  0.00    +0.194 C 
ATOM      8  C   UNL     1      35.720 -23.331 -13.950  0.00  0.00    +0.192 C 
ATOM      9  C   UNL     1      34.310 -23.764 -13.888  0.00  0.00    +0.131 C 
ATOM     10  C   UNL     1      33.514 -23.595 -15.034  0.00  0.00    +0.121 C 
ATOM     11  C   UNL     1      33.802 -24.352 -12.727  0.00  0.00    -0.031 C 
ATOM     12  C   UNL     1      32.188 -24.041 -14.987  0.00  0.00    +0.028 C 
ATOM     13  C   UNL     1      32.480 -24.790 -12.704  0.00  0.00    -0.008 C 
ATOM     14  C   UNL     1      31.675 -24.639 -13.833  0.00  0.00    +0.002 C 
ATOM     15  C   UNL     1      34.612 -24.569 -11.491  0.00  0.00    +0.027 C 
ENDROOT
BRANCH   2  16
ATOM     16  C   UNL     1      35.316 -21.405 -18.473  0.00  0.00    +0.053 C 
ATOM     17  C   UNL     1      33.954 -21.569 -18.730  0.00  0.00    +0.015 C 
ATOM     18  C   UNL     1      36.119 -20.721 -19.386  0.00  0.00    +0.015 C 
ATOM     19  C   UNL     1      33.396 -21.050 -19.897  0.00  0.00    +0.001 C 
ATOM     20  C   UNL     1      35.560 -20.201 -20.554  0.00  0.00    +0.001 C 
ATOM     21  C   UNL     1      34.200 -20.366 -20.810  0.00  0.00    +0.000 C 
ENDBRANCH   2  16
BRANCH   4  22
ATOM     22  O   UNL     1      36.666 -24.443 -15.758  0.00  0.00    -0.373 OA
ATOM     23  H   UNL     1      36.272 -25.111 -15.176  0.00  0.00    +0.211 HD
ENDBRANCH   4  22
TORSDOF 2
ENDMDL
MODEL 9
REMARK VINA RESULT:      -8.0      2.379      4.676
REMARK  Name = 24178119
REMARK  2 active torsions:
REMARK  status: ('A' for Active; 'I' for Inactive)
REMARK    1  A    between atoms: N_2  and  C_16
REMARK    2  A    between atoms: C_4  and  O_22
REMARK                            x       y       z     vdW  Elec       q    Type
REMARK                         _______ _______ _______ _____ _____    ______ ____
ROOT
ATOM      1  O   UNL     1      36.572 -22.940 -16.976  0.00  0.00    -0.292 OA
ATOM      2  N   UNL     1      32.501 -23.894 -15.116  0.00  0.00    -0.264 N 
ATOM      3  N   UNL     1      32.518 -22.573 -17.167  0.00  0.00    -0.392 NA
ATOM      4  C   UNL     1      34.513 -22.833 -15.757  0.00  0.00    +0.201 C 
ATOM      5  C   UNL     1      34.834 -24.055 -14.905  0.00  0.00    +0.064 C 
ATOM      6  C   UNL     1      33.523 -24.334 -14.159  0.00  0.00    +0.101 C 
ATOM      7  C   UNL     1      33.054 -23.085 -16.105  0.00  0.00    +0.194 C 
ATOM      8  C   UNL     1      35.395 -22.610 -16.954  0.00  0.00    +0.192 C 
ATOM      9  C   UNL     1      34.730 -21.916 -18.074  0.00  0.00    +0.131 C 
ATOM     10  C   UNL     1      33.325 -21.884 -18.094  0.00  0.00    +0.121 C 
ATOM     11  C   UNL     1      35.488 -21.287 -19.064  0.00  0.00    -0.031 C 
ATOM     12  C   UNL     1      32.696 -21.194 -19.136  0.00  0.00    +0.028 C 
ATOM     13  C   UNL     1      34.840 -20.604 -20.091  0.00  0.00    -0.008 C 
ATOM     14  C   UNL     1      33.447 -20.553 -20.126  0.00  0.00    +0.002 C 
ATOM     15  C   UNL     1      36.982 -21.277 -19.078  0.00  0.00    +0.027 C 
ENDROOT
BRANCH   2  16
ATOM     16  C   UNL     1      31.180 -24.245 -14.981  0.00  0.00    +0.053 C 
ATOM     17  C   UNL     1      30.187 -23.479 -15.591  0.00  0.00    +0.015 C 
ATOM     18  C   UNL     1      30.831 -25.370 -14.232  0.00  0.00    +0.015 C 
ATOM     19  C   UNL     1      28.847 -23.835 -15.453  0.00  0.00    +0.001 C 
ATOM     20  C   UNL     1      29.489 -25.727 -14.095  0.00  0.00    +0.001 C 
ATOM     21  C   UNL     1      28.498 -24.960 -14.705  0.00  0.00    +0.000 C 
ENDBRANCH   2  16
BRANCH   4  22
ATOM     22  O   UNL     1      34.585 -21.632 -15.007  0.00  0.00    -0.373 OA
ATOM     23  H   UNL     1      35.292 -21.071 -15.363  0.00  0.00    +0.211 HD
ENDBRANCH   4  22
TORSDOF 2
ENDMDL
