MODEL 1
REMARK VINA RESULT:     -11.1      0.000      0.000
REMARK  Name = 9820008
REMARK  6 active torsions:
REMARK  status: ('A' for Active; 'I' for Inactive)
REMARK    1  A    between atoms: C_2  and  N_17
REMARK    2  A    between atoms: C_3  and  C_8
REMARK    3  A    between atoms: C_11  and  O_14
REMARK    4  A    between atoms: C_18  and  C_23
REMARK    5  A    between atoms: C_24  and  C_26
REMARK    6  A    between atoms: C_26  and  O_27
REMARK                            x       y       z     vdW  Elec       q    Type
REMARK                         _______ _______ _______ _____ _____    ______ ____
ROOT
ATOM      1  F   UNL     1      33.420 -21.865 -18.727  0.00  0.00    -0.203 F 
ATOM      2  C   UNL     1      35.729 -21.309 -18.777  0.00  0.00    +0.078 C 
ATOM      3  C   UNL     1      35.264 -19.652 -20.946  0.00  0.00    +0.002 C 
ATOM      4  C   UNL     1      34.442 -21.192 -19.276  0.00  0.00    +0.153 C 
ATOM      5  C   UNL     1      36.788 -20.616 -19.339  0.00  0.00    +0.017 C 
ATOM      6  C   UNL     1      34.208 -20.358 -20.368  0.00  0.00    +0.031 C 
ATOM      7  C   UNL     1      36.554 -19.782 -20.432  0.00  0.00    +0.001 C 
ENDROOT
BRANCH   3   8
ATOM      8  C   UNL     1      35.021 -18.786 -22.079  0.00  0.00    +0.003 C 
ATOM      9  C   UNL     1      35.336 -17.429 -22.000  0.00  0.00    +0.037 C 
ATOM     10  C   UNL     1      34.472 -19.307 -23.251  0.00  0.00    +0.000 C 
ATOM     11  C   UNL     1      35.102 -16.594 -23.091  0.00  0.00    +0.139 C 
ATOM     12  C   UNL     1      34.239 -18.472 -24.343  0.00  0.00    +0.003 C 
ATOM     13  C   UNL     1      34.552 -17.115 -24.263  0.00  0.00    +0.037 C 
BRANCH  11  14
ATOM     14  O   UNL     1      35.408 -15.270 -23.015  0.00  0.00    -0.471 OA
ATOM     15  C   UNL     1      34.317 -14.353 -22.950  0.00  0.00    +0.252 C 
ENDBRANCH  11  14
ENDBRANCH   3   8
BRANCH   2  17
ATOM     16  O   UNL     1      37.388 -20.869 -16.298  0.00  0.00    -0.270 OA
ATOM     17  N   UNL     1      35.970 -22.157 -17.670  0.00  0.00    -0.279 N 
ATOM     18  C   UNL     1      36.751 -21.898 -16.546  0.00  0.00    +0.245 C 
ATOM     19  H   UNL     1      35.531 -23.038 -17.696  0.00  0.00    +0.155 HD
BRANCH  18  23
ATOM     20  C   UNL     1      37.598 -24.440 -13.927  0.00  0.00    +0.010 C 
ATOM     21  C   UNL     1      38.050 -23.601 -15.122  0.00  0.00    +0.031 C 
ATOM     22  C   UNL     1      36.112 -24.730 -14.151  0.00  0.00    +0.033 C 
ATOM     23  C   UNL     1      36.765 -23.011 -15.606  0.00  0.00    +0.034 C 
ATOM     24  C   UNL     1      35.706 -23.630 -15.075  0.00  0.00    +0.054 C 
BRANCH  24  26
ATOM     25  O   UNL     1      33.675 -23.675 -16.309  0.00  0.00    -0.245 OA
ATOM     26  C   UNL     1      34.302 -23.328 -15.318  0.00  0.00    +0.334 C 
BRANCH  26  27
ATOM     27  O   UNL     1      33.799 -22.611 -14.288  0.00  0.00    -0.477 OA
ATOM     28  H   UNL     1      33.997 -22.856 -13.406  0.00  0.00    +0.295 HD
ENDBRANCH  26  27
ENDBRANCH  24  26
ENDBRANCH  18  23
ENDBRANCH   2  17
TORSDOF 6
ENDMDL
MODEL 2
REMARK VINA RESULT:     -11.0      3.323      4.646
REMARK  Name = 9820008
REMARK  6 active torsions:
REMARK  status: ('A' for Active; 'I' for Inactive)
REMARK    1  A    between atoms: C_2  and  N_17
REMARK    2  A    between atoms: C_3  and  C_8
REMARK    3  A    between atoms: C_11  and  O_14
REMARK    4  A    between atoms: C_18  and  C_23
REMARK    5  A    between atoms: C_24  and  C_26
REMARK    6  A    between atoms: C_26  and  O_27
REMARK                            x       y       z     vdW  Elec       q    Type
REMARK                         _______ _______ _______ _____ _____    ______ ____
ROOT
ATOM      1  F   UNL     1      35.203 -23.123 -16.786  0.00  0.00    -0.203 F 
ATOM      2  C   UNL     1      33.144 -22.368 -17.697  0.00  0.00    +0.078 C 
ATOM      3  C   UNL     1      34.540 -20.831 -19.529  0.00  0.00    +0.002 C 
ATOM      4  C   UNL     1      34.529 -22.381 -17.676  0.00  0.00    +0.153 C 
ATOM      5  C   UNL     1      32.443 -21.604 -18.614  0.00  0.00    +0.017 C 
ATOM      6  C   UNL     1      35.232 -21.607 -18.598  0.00  0.00    +0.031 C 
ATOM      7  C   UNL     1      33.145 -20.829 -19.537  0.00  0.00    +0.001 C 
ENDROOT
BRANCH   3   8
ATOM      8  C   UNL     1      35.270 -20.029 -20.487  0.00  0.00    +0.003 C 
ATOM      9  C   UNL     1      34.638 -19.585 -21.649  0.00  0.00    +0.037 C 
ATOM     10  C   UNL     1      36.603 -19.699 -20.249  0.00  0.00    +0.000 C 
ATOM     11  C   UNL     1      35.341 -18.812 -22.573  0.00  0.00    +0.139 C 
ATOM     12  C   UNL     1      37.306 -18.925 -21.172  0.00  0.00    +0.003 C 
ATOM     13  C   UNL     1      36.675 -18.482 -22.335  0.00  0.00    +0.037 C 
BRANCH  11  14
ATOM     14  O   UNL     1      34.726 -18.379 -23.707  0.00  0.00    -0.471 OA
ATOM     15  C   UNL     1      34.735 -16.975 -23.957  0.00  0.00    +0.252 C 
ENDBRANCH  11  14
ENDBRANCH   3   8
BRANCH   2  17
ATOM     16  O   UNL     1      30.342 -22.064 -16.626  0.00  0.00    -0.270 OA
ATOM     17  N   UNL     1      32.428 -23.151 -16.760  0.00  0.00    -0.279 N 
ATOM     18  C   UNL     1      31.127 -22.961 -16.301  0.00  0.00    +0.245 C 
ATOM     19  H   UNL     1      32.908 -23.926 -16.389  0.00  0.00    +0.155 HD
BRANCH  18  23
ATOM     20  C   UNL     1      30.803 -25.270 -13.368  0.00  0.00    +0.010 C 
ATOM     21  C   UNL     1      31.707 -24.582 -14.391  0.00  0.00    +0.031 C 
ATOM     22  C   UNL     1      29.463 -25.496 -14.072  0.00  0.00    +0.033 C 
ATOM     23  C   UNL     1      30.722 -23.973 -15.334  0.00  0.00    +0.034 C 
ATOM     24  C   UNL     1      29.495 -24.473 -15.160  0.00  0.00    +0.054 C 
BRANCH  24  26
ATOM     25  O   UNL     1      27.916 -24.663 -16.926  0.00  0.00    -0.245 OA
ATOM     26  C   UNL     1      28.290 -24.118 -15.898  0.00  0.00    +0.334 C 
BRANCH  26  27
ATOM     27  O   UNL     1      27.652 -23.101 -15.276  0.00  0.00    -0.477 OA
ATOM     28  H   UNL     1      27.394 -22.343 -15.763  0.00  0.00    +0.295 HD
ENDBRANCH  26  27
ENDBRANCH  24  26
ENDBRANCH  18  23
ENDBRANCH   2  17
TORSDOF 6
ENDMDL
MODEL 3
REMARK VINA RESULT:     -10.5      2.006      8.894
REMARK  Name = 9820008
REMARK  6 active torsions:
REMARK  status: ('A' for Active; 'I' for Inactive)
REMARK    1  A    between atoms: C_2  and  N_17
REMARK    2  A    between atoms: C_3  and  C_8
REMARK    3  A    between atoms: C_11  and  O_14
REMARK    4  A    between atoms: C_18  and  C_23
REMARK    5  A    between atoms: C_24  and  C_26
REMARK    6  A    between atoms: C_26  and  O_27
REMARK                            x       y       z     vdW  Elec       q    Type
REMARK                         _______ _______ _______ _____ _____    ______ ____
ROOT
ATOM      1  F   UNL     1      32.876 -21.682 -19.546  0.00  0.00    -0.203 F 
ATOM      2  C   UNL     1      35.134 -20.953 -19.444  0.00  0.00    +0.078 C 
ATOM      3  C   UNL     1      35.480 -22.412 -17.116  0.00  0.00    +0.002 C 
ATOM      4  C   UNL     1      34.068 -21.675 -18.933  0.00  0.00    +0.153 C 
ATOM      5  C   UNL     1      36.368 -20.944 -18.816  0.00  0.00    +0.017 C 
ATOM      6  C   UNL     1      34.243 -22.410 -17.761  0.00  0.00    +0.031 C 
ATOM      7  C   UNL     1      36.543 -21.678 -17.643  0.00  0.00    +0.001 C 
ENDROOT
BRANCH   3   8
ATOM      8  C   UNL     1      35.661 -23.174 -15.900  0.00  0.00    +0.003 C 
ATOM      9  C   UNL     1      36.932 -23.301 -15.339  0.00  0.00    +0.037 C 
ATOM     10  C   UNL     1      34.566 -23.784 -15.289  0.00  0.00    +0.000 C 
ATOM     11  C   UNL     1      37.108 -24.036 -14.167  0.00  0.00    +0.139 C 
ATOM     12  C   UNL     1      34.741 -24.519 -14.116  0.00  0.00    +0.003 C 
ATOM     13  C   UNL     1      36.011 -24.646 -13.556  0.00  0.00    +0.037 C 
BRANCH  11  14
ATOM     14  O   UNL     1      38.347 -24.161 -13.620  0.00  0.00    -0.471 OA
ATOM     15  C   UNL     1      39.194 -25.178 -14.151  0.00  0.00    +0.252 C 
ENDBRANCH  11  14
ENDBRANCH   3   8
BRANCH   2  17
ATOM     16  O   UNL     1      36.719 -18.640 -20.553  0.00  0.00    -0.270 OA
ATOM     17  N   UNL     1      34.960 -20.204 -20.632  0.00  0.00    -0.279 N 
ATOM     18  C   UNL     1      35.728 -19.139 -21.096  0.00  0.00    +0.245 C 
ATOM     19  H   UNL     1      34.202 -20.470 -21.203  0.00  0.00    +0.155 HD
BRANCH  18  23
ATOM     20  C   UNL     1      34.179 -18.619 -24.468  0.00  0.00    +0.010 C 
ATOM     21  C   UNL     1      34.992 -19.514 -23.532  0.00  0.00    +0.031 C 
ATOM     22  C   UNL     1      34.506 -17.179 -24.067  0.00  0.00    +0.033 C 
ATOM     23  C   UNL     1      35.247 -18.614 -22.366  0.00  0.00    +0.034 C 
ATOM     24  C   UNL     1      34.981 -17.337 -22.660  0.00  0.00    +0.054 C 
BRANCH  24  26
ATOM     25  O   UNL     1      35.018 -16.230 -20.557  0.00  0.00    -0.245 OA
ATOM     26  C   UNL     1      35.115 -16.188 -21.775  0.00  0.00    +0.334 C 
BRANCH  26  27
ATOM     27  O   UNL     1      35.360 -15.073 -22.500  0.00  0.00    -0.477 OA
ATOM     28  H   UNL     1      35.165 -14.229 -22.143  0.00  0.00    +0.295 HD
ENDBRANCH  26  27
ENDBRANCH  24  26
ENDBRANCH  18  23
ENDBRANCH   2  17
TORSDOF 6
ENDMDL
MODEL 4
REMARK VINA RESULT:     -10.2      2.371      3.464
REMARK  Name = 9820008
REMARK  6 active torsions:
REMARK  status: ('A' for Active; 'I' for Inactive)
REMARK    1  A    between atoms: C_2  and  N_17
REMARK    2  A    between atoms: C_3  and  C_8
REMARK    3  A    between atoms: C_11  and  O_14
REMARK    4  A    between atoms: C_18  and  C_23
REMARK    5  A    between atoms: C_24  and  C_26
REMARK    6  A    between atoms: C_26  and  O_27
REMARK                            x       y       z     vdW  Elec       q    Type
REMARK                         _______ _______ _______ _____ _____    ______ ____
ROOT
ATOM      1  F   UNL     1      34.434 -23.500 -17.056  0.00  0.00    -0.203 F 
ATOM      2  C   UNL     1      36.335 -22.245 -16.381  0.00  0.00    +0.078 C 
ATOM      3  C   UNL     1      36.217 -20.826 -18.756  0.00  0.00    +0.002 C 
ATOM      4  C   UNL     1      35.340 -22.541 -17.298  0.00  0.00    +0.153 C 
ATOM      5  C   UNL     1      37.271 -21.256 -16.625  0.00  0.00    +0.017 C 
ATOM      6  C   UNL     1      35.280 -21.826 -18.494  0.00  0.00    +0.031 C 
ATOM      7  C   UNL     1      37.213 -20.541 -17.821  0.00  0.00    +0.001 C 
ENDROOT
BRANCH   3   8
ATOM      8  C   UNL     1      36.156 -20.083 -19.996  0.00  0.00    +0.003 C 
ATOM      9  C   UNL     1      35.019 -20.162 -20.800  0.00  0.00    +0.037 C 
ATOM     10  C   UNL     1      37.234 -19.290 -20.388  0.00  0.00    +0.000 C 
ATOM     11  C   UNL     1      34.960 -19.447 -21.996  0.00  0.00    +0.139 C 
ATOM     12  C   UNL     1      37.175 -18.574 -21.583  0.00  0.00    +0.003 C 
ATOM     13  C   UNL     1      36.039 -18.653 -22.388  0.00  0.00    +0.037 C 
BRANCH  11  14
ATOM     14  O   UNL     1      33.852 -19.523 -22.782  0.00  0.00    -0.471 OA
ATOM     15  C   UNL     1      33.966 -19.034 -24.117  0.00  0.00    +0.252 C 
ENDBRANCH  11  14
ENDBRANCH   3   8
BRANCH   2  17
ATOM     16  O   UNL     1      38.653 -23.641 -15.052  0.00  0.00    -0.270 OA
ATOM     17  N   UNL     1      36.398 -22.970 -15.167  0.00  0.00    -0.279 N 
ATOM     18  C   UNL     1      37.505 -23.598 -14.600  0.00  0.00    +0.245 C 
ATOM     19  H   UNL     1      35.557 -23.039 -14.661  0.00  0.00    +0.155 HD
BRANCH  18  23
ATOM     20  C   UNL     1      36.306 -24.492 -11.165  0.00  0.00    +0.010 C 
ATOM     21  C   UNL     1      36.936 -23.456 -12.096  0.00  0.00    +0.031 C 
ATOM     22  C   UNL     1      36.755 -25.859 -11.687  0.00  0.00    +0.033 C 
ATOM     23  C   UNL     1      37.191 -24.250 -13.336  0.00  0.00    +0.034 C 
ATOM     24  C   UNL     1      37.092 -25.564 -13.112  0.00  0.00    +0.054 C 
BRANCH  24  26
ATOM     25  O   UNL     1      38.339 -27.197 -14.307  0.00  0.00    -0.245 OA
ATOM     26  C   UNL     1      37.276 -26.635 -14.081  0.00  0.00    +0.334 C 
BRANCH  26  27
ATOM     27  O   UNL     1      36.101 -26.914 -14.690  0.00  0.00    -0.477 OA
ATOM     28  H   UNL     1      35.412 -27.329 -14.210  0.00  0.00    +0.295 HD
ENDBRANCH  26  27
ENDBRANCH  24  26
ENDBRANCH  18  23
ENDBRANCH   2  17
TORSDOF 6
ENDMDL
MODEL 5
REMARK VINA RESULT:     -10.2      6.144     12.328
REMARK  Name = 9820008
REMARK  6 active torsions:
REMARK  status: ('A' for Active; 'I' for Inactive)
REMARK    1  A    between atoms: C_2  and  N_17
REMARK    2  A    between atoms: C_3  and  C_8
REMARK    3  A    between atoms: C_11  and  O_14
REMARK    4  A    between atoms: C_18  and  C_23
REMARK    5  A    between atoms: C_24  and  C_26
REMARK    6  A    between atoms: C_26  and  O_27
REMARK                            x       y       z     vdW  Elec       q    Type
REMARK                         _______ _______ _______ _____ _____    ______ ____
ROOT
ATOM      1  F   UNL     1      32.008 -11.863 -20.334  0.00  0.00    -0.203 F 
ATOM      2  C   UNL     1      32.936 -11.273 -22.439  0.00  0.00    +0.078 C 
ATOM      3  C   UNL     1      33.840 -13.872 -22.747  0.00  0.00    +0.002 C 
ATOM      4  C   UNL     1      32.683 -12.201 -21.442  0.00  0.00    +0.153 C 
ATOM      5  C   UNL     1      33.631 -11.617 -23.586  0.00  0.00    +0.017 C 
ATOM      6  C   UNL     1      33.138 -13.510 -21.598  0.00  0.00    +0.031 C 
ATOM      7  C   UNL     1      34.087 -12.926 -23.742  0.00  0.00    +0.001 C 
ENDROOT
BRANCH   3   8
ATOM      8  C   UNL     1      34.312 -15.230 -22.909  0.00  0.00    +0.003 C 
ATOM      9  C   UNL     1      34.879 -15.905 -21.828  0.00  0.00    +0.037 C 
ATOM     10  C   UNL     1      34.202 -15.865 -24.146  0.00  0.00    +0.000 C 
ATOM     11  C   UNL     1      35.335 -17.214 -21.984  0.00  0.00    +0.139 C 
ATOM     12  C   UNL     1      34.656 -17.174 -24.302  0.00  0.00    +0.003 C 
ATOM     13  C   UNL     1      35.224 -17.848 -23.222  0.00  0.00    +0.037 C 
BRANCH  11  14
ATOM     14  O   UNL     1      35.889 -17.873 -20.930  0.00  0.00    -0.471 OA
ATOM     15  C   UNL     1      37.036 -18.678 -21.196  0.00  0.00    +0.252 C 
ENDBRANCH  11  14
ENDBRANCH   3   8
BRANCH   2  17
ATOM     16  O   UNL     1      34.261  -8.652 -23.117  0.00  0.00    -0.270 OA
ATOM     17  N   UNL     1      32.477  -9.944 -22.283  0.00  0.00    -0.279 N 
ATOM     18  C   UNL     1      33.138  -8.764 -22.617  0.00  0.00    +0.245 C 
ATOM     19  H   UNL     1      31.580  -9.840 -21.892  0.00  0.00    +0.155 HD
BRANCH  18  23
ATOM     20  C   UNL     1      30.783  -5.850 -22.653  0.00  0.00    +0.010 C 
ATOM     21  C   UNL     1      31.805  -6.707 -23.399  0.00  0.00    +0.031 C 
ATOM     22  C   UNL     1      31.204  -5.871 -21.182  0.00  0.00    +0.033 C 
ATOM     23  C   UNL     1      32.350  -7.577 -22.312  0.00  0.00    +0.034 C 
ATOM     24  C   UNL     1      32.021  -7.118 -21.100  0.00  0.00    +0.054 C 
BRANCH  24  26
ATOM     25  O   UNL     1      31.812  -8.658 -19.301  0.00  0.00    -0.245 OA
ATOM     26  C   UNL     1      32.378  -7.704 -19.815  0.00  0.00    +0.334 C 
BRANCH  26  27
ATOM     27  O   UNL     1      33.425  -7.036 -19.279  0.00  0.00    -0.477 OA
ATOM     28  H   UNL     1      33.712  -6.230 -19.660  0.00  0.00    +0.295 HD
ENDBRANCH  26  27
ENDBRANCH  24  26
ENDBRANCH  18  23
ENDBRANCH   2  17
TORSDOF 6
ENDMDL
MODEL 6
REMARK VINA RESULT:     -10.2      1.378      2.090
REMARK  Name = 9820008
REMARK  6 active torsions:
REMARK  status: ('A' for Active; 'I' for Inactive)
REMARK    1  A    between atoms: C_2  and  N_17
REMARK    2  A    between atoms: C_3  and  C_8
REMARK    3  A    between atoms: C_11  and  O_14
REMARK    4  A    between atoms: C_18  and  C_23
REMARK    5  A    between atoms: C_24  and  C_26
REMARK    6  A    between atoms: C_26  and  O_27
REMARK                            x       y       z     vdW  Elec       q    Type
REMARK                         _______ _______ _______ _____ _____    ______ ____
ROOT
ATOM      1  F   UNL     1      32.877 -22.011 -18.387  0.00  0.00    -0.203 F 
ATOM      2  C   UNL     1      35.229 -21.690 -18.316  0.00  0.00    +0.078 C 
ATOM      3  C   UNL     1      35.050 -20.033 -20.528  0.00  0.00    +0.002 C 
ATOM      4  C   UNL     1      33.989 -21.453 -18.887  0.00  0.00    +0.153 C 
ATOM      5  C   UNL     1      36.381 -21.115 -18.827  0.00  0.00    +0.017 C 
ATOM      6  C   UNL     1      33.899 -20.619 -20.000  0.00  0.00    +0.031 C 
ATOM      7  C   UNL     1      36.291 -20.281 -19.941  0.00  0.00    +0.001 C 
ENDROOT
BRANCH   3   8
ATOM      8  C   UNL     1      34.957 -19.166 -21.683  0.00  0.00    +0.003 C 
ATOM      9  C   UNL     1      35.292 -17.817 -21.571  0.00  0.00    +0.037 C 
ATOM     10  C   UNL     1      34.531 -19.680 -22.907  0.00  0.00    +0.000 C 
ATOM     11  C   UNL     1      35.201 -16.981 -22.684  0.00  0.00    +0.139 C 
ATOM     12  C   UNL     1      34.442 -18.845 -24.021  0.00  0.00    +0.003 C 
ATOM     13  C   UNL     1      34.776 -17.496 -23.909  0.00  0.00    +0.037 C 
BRANCH  11  14
ATOM     14  O   UNL     1      35.528 -15.665 -22.576  0.00  0.00    -0.471 OA
ATOM     15  C   UNL     1      34.509 -14.778 -22.119  0.00  0.00    +0.252 C 
ENDBRANCH  11  14
ENDBRANCH   3   8
BRANCH   2  17
ATOM     16  O   UNL     1      36.950 -21.481 -15.850  0.00  0.00    -0.270 OA
ATOM     17  N   UNL     1      35.324 -22.537 -17.187  0.00  0.00    -0.279 N 
ATOM     18  C   UNL     1      36.143 -22.390 -16.070  0.00  0.00    +0.245 C 
ATOM     19  H   UNL     1      34.738 -23.329 -17.191  0.00  0.00    +0.155 HD
BRANCH  18  23
ATOM     20  C   UNL     1      34.843 -25.119 -13.858  0.00  0.00    +0.010 C 
ATOM     21  C   UNL     1      34.637 -23.739 -14.481  0.00  0.00    +0.031 C 
ATOM     22  C   UNL     1      36.353 -25.276 -13.665  0.00  0.00    +0.033 C 
ATOM     23  C   UNL     1      35.968 -23.464 -15.102  0.00  0.00    +0.034 C 
ATOM     24  C   UNL     1      36.906 -24.305 -14.655  0.00  0.00    +0.054 C 
BRANCH  24  26
ATOM     25  O   UNL     1      38.996 -23.344 -15.254  0.00  0.00    -0.245 OA
ATOM     26  C   UNL     1      38.312 -24.333 -15.036  0.00  0.00    +0.334 C 
BRANCH  26  27
ATOM     27  O   UNL     1      38.743 -25.613 -15.111  0.00  0.00    -0.477 OA
ATOM     28  H   UNL     1      39.613 -25.831 -14.840  0.00  0.00    +0.295 HD
ENDBRANCH  26  27
ENDBRANCH  24  26
ENDBRANCH  18  23
ENDBRANCH   2  17
TORSDOF 6
ENDMDL
MODEL 7
REMARK VINA RESULT:     -10.0      1.988      2.625
REMARK  Name = 9820008
REMARK  6 active torsions:
REMARK  status: ('A' for Active; 'I' for Inactive)
REMARK    1  A    between atoms: C_2  and  N_17
REMARK    2  A    between atoms: C_3  and  C_8
REMARK    3  A    between atoms: C_11  and  O_14
REMARK    4  A    between atoms: C_18  and  C_23
REMARK    5  A    between atoms: C_24  and  C_26
REMARK    6  A    between atoms: C_26  and  O_27
REMARK                            x       y       z     vdW  Elec       q    Type
REMARK                         _______ _______ _______ _____ _____    ______ ____
ROOT
ATOM      1  F   UNL     1      36.764 -21.672 -18.659  0.00  0.00    -0.203 F 
ATOM      2  C   UNL     1      34.396 -21.494 -18.657  0.00  0.00    +0.078 C 
ATOM      3  C   UNL     1      34.535 -19.876 -20.900  0.00  0.00    +0.002 C 
ATOM      4  C   UNL     1      35.634 -21.193 -19.199  0.00  0.00    +0.153 C 
ATOM      5  C   UNL     1      33.226 -21.003 -19.212  0.00  0.00    +0.017 C 
ATOM      6  C   UNL     1      35.705 -20.378 -20.329  0.00  0.00    +0.031 C 
ATOM      7  C   UNL     1      33.295 -20.188 -20.341  0.00  0.00    +0.001 C 
ENDROOT
BRANCH   3   8
ATOM      8  C   UNL     1      34.607 -19.031 -22.072  0.00  0.00    +0.003 C 
ATOM      9  C   UNL     1      35.058 -17.716 -21.957  0.00  0.00    +0.037 C 
ATOM     10  C   UNL     1      34.226 -19.530 -23.317  0.00  0.00    +0.000 C 
ATOM     11  C   UNL     1      35.127 -16.900 -23.086  0.00  0.00    +0.139 C 
ATOM     12  C   UNL     1      34.296 -18.716 -24.447  0.00  0.00    +0.003 C 
ATOM     13  C   UNL     1      34.745 -17.401 -24.332  0.00  0.00    +0.037 C 
BRANCH  11  14
ATOM     14  O   UNL     1      35.565 -15.617 -22.975  0.00  0.00    -0.471 OA
ATOM     15  C   UNL     1      34.574 -14.601 -22.836  0.00  0.00    +0.252 C 
ENDBRANCH  11  14
ENDBRANCH   3   8
BRANCH   2  17
ATOM     16  O   UNL     1      32.013 -22.724 -17.281  0.00  0.00    -0.270 OA
ATOM     17  N   UNL     1      34.321 -22.319 -17.509  0.00  0.00    -0.279 N 
ATOM     18  C   UNL     1      33.184 -22.861 -16.915  0.00  0.00    +0.245 C 
ATOM     19  H   UNL     1      35.179 -22.537 -17.079  0.00  0.00    +0.155 HD
BRANCH  18  23
ATOM     20  C   UNL     1      34.816 -24.629 -14.043  0.00  0.00    +0.010 C 
ATOM     21  C   UNL     1      34.875 -24.194 -15.507  0.00  0.00    +0.031 C 
ATOM     22  C   UNL     1      33.336 -24.855 -13.727  0.00  0.00    +0.033 C 
ATOM     23  C   UNL     1      33.496 -23.666 -15.742  0.00  0.00    +0.034 C 
ATOM     24  C   UNL     1      32.655 -24.028 -14.768  0.00  0.00    +0.054 C 
BRANCH  24  26
ATOM     25  O   UNL     1      30.785 -22.767 -14.016  0.00  0.00    -0.245 OA
ATOM     26  C   UNL     1      31.240 -23.699 -14.664  0.00  0.00    +0.334 C 
BRANCH  26  27
ATOM     27  O   UNL     1      30.509 -24.575 -15.390  0.00  0.00    -0.477 OA
ATOM     28  H   UNL     1      30.291 -24.380 -16.280  0.00  0.00    +0.295 HD
ENDBRANCH  26  27
ENDBRANCH  24  26
ENDBRANCH  18  23
ENDBRANCH   2  17
TORSDOF 6
ENDMDL
MODEL 8
REMARK VINA RESULT:     -10.0      3.602      6.156
REMARK  Name = 9820008
REMARK  6 active torsions:
REMARK  status: ('A' for Active; 'I' for Inactive)
REMARK    1  A    between atoms: C_2  and  N_17
REMARK    2  A    between atoms: C_3  and  C_8
REMARK    3  A    between atoms: C_11  and  O_14
REMARK    4  A    between atoms: C_18  and  C_23
REMARK    5  A    between atoms: C_24  and  C_26
REMARK    6  A    between atoms: C_26  and  O_27
REMARK                            x       y       z     vdW  Elec       q    Type
REMARK                         _______ _______ _______ _____ _____    ______ ____
ROOT
ATOM      1  F   UNL     1      35.517 -17.002 -23.258  0.00  0.00    -0.203 F 
ATOM      2  C   UNL     1      34.769 -16.391 -21.088  0.00  0.00    +0.078 C 
ATOM      3  C   UNL     1      34.021 -13.911 -22.065  0.00  0.00    +0.002 C 
ATOM      4  C   UNL     1      34.970 -16.103 -22.428  0.00  0.00    +0.153 C 
ATOM      5  C   UNL     1      34.203 -15.467 -20.227  0.00  0.00    +0.017 C 
ATOM      6  C   UNL     1      34.593 -14.853 -22.920  0.00  0.00    +0.031 C 
ATOM      7  C   UNL     1      33.827 -14.217 -20.718  0.00  0.00    +0.001 C 
ENDROOT
BRANCH   3   8
ATOM      8  C   UNL     1      33.630 -12.614 -22.575  0.00  0.00    +0.003 C 
ATOM      9  C   UNL     1      32.633 -11.883 -21.929  0.00  0.00    +0.037 C 
ATOM     10  C   UNL     1      34.247 -12.097 -23.713  0.00  0.00    +0.000 C 
ATOM     11  C   UNL     1      32.255 -10.634 -22.421  0.00  0.00    +0.139 C 
ATOM     12  C   UNL     1      33.870 -10.848 -24.205  0.00  0.00    +0.003 C 
ATOM     13  C   UNL     1      32.873 -10.116 -23.560  0.00  0.00    +0.037 C 
BRANCH  11  14
ATOM     14  O   UNL     1      31.282  -9.919 -21.792  0.00  0.00    -0.471 OA
ATOM     15  C   UNL     1      31.648  -9.240 -20.592  0.00  0.00    +0.252 C 
ENDBRANCH  11  14
ENDBRANCH   3   8
BRANCH   2  17
ATOM     16  O   UNL     1      34.118 -19.166 -22.069  0.00  0.00    -0.270 OA
ATOM     17  N   UNL     1      35.153 -17.657 -20.585  0.00  0.00    -0.279 N 
ATOM     18  C   UNL     1      34.819 -18.914 -21.083  0.00  0.00    +0.245 C 
ATOM     19  H   UNL     1      35.727 -17.649 -19.786  0.00  0.00    +0.155 HD
BRANCH  18  23
ATOM     20  C   UNL     1      37.002 -21.137 -19.003  0.00  0.00    +0.010 C 
ATOM     21  C   UNL     1      36.880 -20.144 -20.159  0.00  0.00    +0.031 C 
ATOM     22  C   UNL     1      35.675 -21.897 -18.954  0.00  0.00    +0.033 C 
ATOM     23  C   UNL     1      35.399 -19.998 -20.302  0.00  0.00    +0.034 C 
ATOM     24  C   UNL     1      34.741 -20.957 -19.643  0.00  0.00    +0.054 C 
BRANCH  24  26
ATOM     25  O   UNL     1      32.481 -20.222 -19.598  0.00  0.00    -0.245 OA
ATOM     26  C   UNL     1      33.297 -21.132 -19.560  0.00  0.00    +0.334 C 
BRANCH  26  27
ATOM     27  O   UNL     1      32.998 -22.444 -19.437  0.00  0.00    -0.477 OA
ATOM     28  H   UNL     1      33.674 -23.089 -19.518  0.00  0.00    +0.295 HD
ENDBRANCH  26  27
ENDBRANCH  24  26
ENDBRANCH  18  23
ENDBRANCH   2  17
TORSDOF 6
ENDMDL
MODEL 9
REMARK VINA RESULT:      -9.9      6.025      9.864
REMARK  Name = 9820008
REMARK  6 active torsions:
REMARK  status: ('A' for Active; 'I' for Inactive)
REMARK    1  A    between atoms: C_2  and  N_17
REMARK    2  A    between atoms: C_3  and  C_8
REMARK    3  A    between atoms: C_11  and  O_14
REMARK    4  A    between atoms: C_18  and  C_23
REMARK    5  A    between atoms: C_24  and  C_26
REMARK    6  A    between atoms: C_26  and  O_27
REMARK                            x       y       z     vdW  Elec       q    Type
REMARK                         _______ _______ _______ _____ _____    ______ ____
ROOT
ATOM      1  F   UNL     1      31.941 -13.850 -21.183  0.00  0.00    -0.203 F 
ATOM      2  C   UNL     1      33.519 -13.424 -22.905  0.00  0.00    +0.078 C 
ATOM      3  C   UNL     1      32.633 -10.804 -23.041  0.00  0.00    +0.002 C 
ATOM      4  C   UNL     1      32.502 -13.008 -22.062  0.00  0.00    +0.153 C 
ATOM      5  C   UNL     1      34.103 -12.558 -23.814  0.00  0.00    +0.017 C 
ATOM      6  C   UNL     1      32.056 -11.689 -22.131  0.00  0.00    +0.031 C 
ATOM      7  C   UNL     1      33.657 -11.238 -23.884  0.00  0.00    +0.001 C 
ENDROOT
BRANCH   3   8
ATOM      8  C   UNL     1      32.171  -9.434 -23.113  0.00  0.00    +0.003 C 
ATOM      9  C   UNL     1      32.067  -8.672 -21.949  0.00  0.00    +0.037 C 
ATOM     10  C   UNL     1      31.829  -8.877 -24.344  0.00  0.00    +0.000 C 
ATOM     11  C   UNL     1      31.621  -7.352 -22.017  0.00  0.00    +0.139 C 
ATOM     12  C   UNL     1      31.384  -7.557 -24.413  0.00  0.00    +0.003 C 
ATOM     13  C   UNL     1      31.279  -6.795 -23.250  0.00  0.00    +0.037 C 
BRANCH  11  14
ATOM     14  O   UNL     1      31.519  -6.608 -20.883  0.00  0.00    -0.471 OA
ATOM     15  C   UNL     1      32.384  -5.481 -20.765  0.00  0.00    +0.252 C 
ENDBRANCH  11  14
ENDBRANCH   3   8
BRANCH   2  17
ATOM     16  O   UNL     1      35.006 -14.882 -20.726  0.00  0.00    -0.270 OA
ATOM     17  N   UNL     1      33.972 -14.763 -22.839  0.00  0.00    -0.279 N 
ATOM     18  C   UNL     1      34.659 -15.385 -21.799  0.00  0.00    +0.245 C 
ATOM     19  H   UNL     1      33.778 -15.324 -23.625  0.00  0.00    +0.155 HD
BRANCH  18  23
ATOM     20  C   UNL     1      35.259 -19.081 -21.668  0.00  0.00    +0.010 C 
ATOM     21  C   UNL     1      35.426 -17.710 -21.012  0.00  0.00    +0.031 C 
ATOM     22  C   UNL     1      35.274 -18.832 -23.178  0.00  0.00    +0.033 C 
ATOM     23  C   UNL     1      34.963 -16.780 -22.086  0.00  0.00    +0.034 C 
ATOM     24  C   UNL     1      34.880 -17.395 -23.271  0.00  0.00    +0.054 C 
BRANCH  24  26
ATOM     25  O   UNL     1      33.396 -17.010 -25.087  0.00  0.00    -0.245 OA
ATOM     26  C   UNL     1      34.469 -16.805 -24.537  0.00  0.00    +0.334 C 
BRANCH  26  27
ATOM     27  O   UNL     1      35.447 -16.001 -25.011  0.00  0.00    -0.477 OA
ATOM     28  H   UNL     1      36.263 -16.369 -25.290  0.00  0.00    +0.295 HD
ENDBRANCH  26  27
ENDBRANCH  24  26
ENDBRANCH  18  23
ENDBRANCH   2  17
TORSDOF 6
ENDMDL
