MODEL 1
REMARK VINA RESULT:     -11.4      0.000      0.000
REMARK  Name = 5289179
REMARK  4 active torsions:
REMARK  status: ('A' for Active; 'I' for Inactive)
REMARK    1  A    between atoms: C_3  and  C_14
REMARK    2  A    between atoms: C_6  and  C_22
REMARK    3  A    between atoms: C_14  and  C_15
REMARK    4  A    between atoms: C_22  and  C_25
REMARK                            x       y       z     vdW  Elec       q    Type
REMARK                         _______ _______ _______ _____ _____    ______ ____
ROOT
ATOM      1  N   UNL     1      34.481 -23.230 -15.553  0.00  0.00    -0.249 N 
ATOM      2  N   UNL     1      36.539 -22.451 -15.150  0.00  0.00    -0.375 NA
ATOM      3  C   UNL     1      35.006 -22.874 -16.769  0.00  0.00    +0.208 C 
ATOM      4  C   UNL     1      35.453 -22.953 -14.595  0.00  0.00    +0.189 C 
ATOM      5  C   UNL     1      33.231 -23.767 -15.251  0.00  0.00    +0.071 C 
ATOM      6  C   UNL     1      32.938 -24.038 -13.968  0.00  0.00    +0.054 C 
ATOM      7  C   UNL     1      36.267 -22.400 -16.493  0.00  0.00    +0.182 C 
ATOM      8  C   UNL     1      35.130 -23.245 -13.238  0.00  0.00    +0.048 C 
ATOM      9  C   UNL     1      33.925 -23.765 -12.934  0.00  0.00    +0.008 C 
ATOM     10  N   UNL     1      37.160 -21.935 -17.396  0.00  0.00    -0.335 N 
ATOM     11  H   UNL     1      38.041 -21.617 -17.096  0.00  0.00    +0.144 HD
ATOM     12  H   UNL     1      36.928 -21.916 -18.353  0.00  0.00    +0.144 HD
ENDROOT
BRANCH   3  14
ATOM     13  O   UNL     1      33.815 -24.034 -18.465  0.00  0.00    -0.289 OA
ATOM     14  C   UNL     1      34.343 -22.988 -18.030  0.00  0.00    +0.200 C 
BRANCH  14  15
ATOM     15  C   UNL     1      34.213 -21.812 -18.951  0.00  0.00    +0.037 C 
ATOM     16  C   UNL     1      32.973 -21.247 -19.117  0.00  0.00    +0.003 C 
ATOM     17  C   UNL     1      35.340 -21.356 -19.589  0.00  0.00    +0.003 C 
ATOM     18  C   UNL     1      32.853 -20.153 -19.975  0.00  0.00    +0.000 C 
ATOM     19  C   UNL     1      35.220 -20.263 -20.447  0.00  0.00    +0.000 C 
ATOM     20  C   UNL     1      33.975 -19.661 -20.640  0.00  0.00    +0.000 C 
ENDBRANCH  14  15
ENDBRANCH   3  14
BRANCH   6  22
ATOM     21  O   UNL     1      31.497 -25.399 -12.716  0.00  0.00    -0.286 OA
ATOM     22  C   UNL     1      31.627 -24.600 -13.645  0.00  0.00    +0.201 C 
BRANCH  22  25
ATOM     23  F   UNL     1      30.762 -21.933 -13.728  0.00  0.00    -0.204 F 
ATOM     24  F   UNL     1      30.110 -26.420 -15.147  0.00  0.00    -0.204 F 
ATOM     25  C   UNL     1      30.439 -24.178 -14.435  0.00  0.00    +0.094 C 
ATOM     26  C   UNL     1      30.074 -22.848 -14.427  0.00  0.00    +0.145 C 
ATOM     27  C   UNL     1      29.743 -25.131 -15.148  0.00  0.00    +0.145 C 
ATOM     28  C   UNL     1      28.960 -22.453 -15.167  0.00  0.00    +0.030 C 
ATOM     29  C   UNL     1      28.629 -24.735 -15.888  0.00  0.00    +0.030 C 
ATOM     30  C   UNL     1      28.237 -23.396 -15.897  0.00  0.00    +0.005 C 
ENDBRANCH  22  25
ENDBRANCH   6  22
TORSDOF 4
ENDMDL
MODEL 2
REMARK VINA RESULT:     -11.3      3.206      6.863
REMARK  Name = 5289179
REMARK  4 active torsions:
REMARK  status: ('A' for Active; 'I' for Inactive)
REMARK    1  A    between atoms: C_3  and  C_14
REMARK    2  A    between atoms: C_6  and  C_22
REMARK    3  A    between atoms: C_14  and  C_15
REMARK    4  A    between atoms: C_22  and  C_25
REMARK                            x       y       z     vdW  Elec       q    Type
REMARK                         _______ _______ _______ _____ _____    ______ ____
ROOT
ATOM      1  N   UNL     1      34.448 -23.194 -15.222  0.00  0.00    -0.249 N 
ATOM      2  N   UNL     1      33.087 -23.221 -13.447  0.00  0.00    -0.375 NA
ATOM      3  C   UNL     1      35.250 -23.342 -14.120  0.00  0.00    +0.208 C 
ATOM      4  C   UNL     1      33.136 -23.125 -14.761  0.00  0.00    +0.189 C 
ATOM      5  C   UNL     1      34.798 -23.119 -16.568  0.00  0.00    +0.071 C 
ATOM      6  C   UNL     1      33.822 -22.972 -17.481  0.00  0.00    +0.054 C 
ATOM      7  C   UNL     1      34.392 -23.355 -13.046  0.00  0.00    +0.182 C 
ATOM      8  C   UNL     1      32.111 -22.969 -15.739  0.00  0.00    +0.048 C 
ATOM      9  C   UNL     1      32.437 -22.895 -17.044  0.00  0.00    +0.008 C 
ATOM     10  N   UNL     1      34.741 -23.483 -11.746  0.00  0.00    -0.335 N 
ATOM     11  H   UNL     1      34.047 -23.481 -11.048  0.00  0.00    +0.144 HD
ATOM     12  H   UNL     1      35.689 -23.579 -11.499  0.00  0.00    +0.144 HD
ENDROOT
BRANCH   3  14
ATOM     13  O   UNL     1      37.465 -22.485 -14.094  0.00  0.00    -0.289 OA
ATOM     14  C   UNL     1      36.676 -23.452 -14.134  0.00  0.00    +0.200 C 
BRANCH  14  15
ATOM     15  C   UNL     1      37.354 -24.789 -14.183  0.00  0.00    +0.037 C 
ATOM     16  C   UNL     1      38.699 -24.849 -13.917  0.00  0.00    +0.003 C 
ATOM     17  C   UNL     1      36.598 -25.892 -14.494  0.00  0.00    +0.003 C 
ATOM     18  C   UNL     1      39.329 -26.093 -13.963  0.00  0.00    +0.000 C 
ATOM     19  C   UNL     1      37.228 -27.136 -14.540  0.00  0.00    +0.000 C 
ATOM     20  C   UNL     1      38.594 -27.236 -14.275  0.00  0.00    +0.000 C 
ENDBRANCH  14  15
ENDBRANCH   3  14
BRANCH   6  22
ATOM     21  O   UNL     1      34.078 -23.874 -19.630  0.00  0.00    -0.286 OA
ATOM     22  C   UNL     1      34.184 -22.890 -18.896  0.00  0.00    +0.201 C 
BRANCH  22  25
ATOM     23  F   UNL     1      32.454 -21.095 -20.181  0.00  0.00    -0.204 F 
ATOM     24  F   UNL     1      36.866 -22.088 -18.727  0.00  0.00    -0.204 F 
ATOM     25  C   UNL     1      34.659 -21.595 -19.453  0.00  0.00    +0.094 C 
ATOM     26  C   UNL     1      33.749 -20.764 -20.072  0.00  0.00    +0.145 C 
ATOM     27  C   UNL     1      35.993 -21.269 -19.331  0.00  0.00    +0.145 C 
ATOM     28  C   UNL     1      34.195 -19.550 -20.594  0.00  0.00    +0.030 C 
ATOM     29  C   UNL     1      36.438 -20.055 -19.854  0.00  0.00    +0.030 C 
ATOM     30  C   UNL     1      35.539 -19.196 -20.486  0.00  0.00    +0.005 C 
ENDBRANCH  22  25
ENDBRANCH   6  22
TORSDOF 4
ENDMDL
MODEL 3
REMARK VINA RESULT:     -11.1      2.225      6.181
REMARK  Name = 5289179
REMARK  4 active torsions:
REMARK  status: ('A' for Active; 'I' for Inactive)
REMARK    1  A    between atoms: C_3  and  C_14
REMARK    2  A    between atoms: C_6  and  C_22
REMARK    3  A    between atoms: C_14  and  C_15
REMARK    4  A    between atoms: C_22  and  C_25
REMARK                            x       y       z     vdW  Elec       q    Type
REMARK                         _______ _______ _______ _____ _____    ______ ____
ROOT
ATOM      1  N   UNL     1      34.514 -23.451 -14.942  0.00  0.00    -0.249 N 
ATOM      2  N   UNL     1      35.924 -23.077 -13.246  0.00  0.00    -0.375 NA
ATOM      3  C   UNL     1      33.923 -23.977 -13.822  0.00  0.00    +0.208 C 
ATOM      4  C   UNL     1      35.734 -22.913 -14.540  0.00  0.00    +0.189 C 
ATOM      5  C   UNL     1      34.052 -23.422 -16.256  0.00  0.00    +0.071 C 
ATOM      6  C   UNL     1      34.819 -22.843 -17.196  0.00  0.00    +0.054 C 
ATOM      7  C   UNL     1      34.808 -23.735 -12.797  0.00  0.00    +0.182 C 
ATOM      8  C   UNL     1      36.537 -22.302 -15.547  0.00  0.00    +0.048 C 
ATOM      9  C   UNL     1      36.101 -22.267 -16.821  0.00  0.00    +0.008 C 
ATOM     10  N   UNL     1      34.642 -24.079 -11.501  0.00  0.00    -0.335 N 
ATOM     11  H   UNL     1      35.337 -23.859 -10.840  0.00  0.00    +0.144 HD
ATOM     12  H   UNL     1      33.824 -24.549 -11.217  0.00  0.00    +0.144 HD
ENDROOT
BRANCH   3  14
ATOM     13  O   UNL     1      32.446 -25.750 -13.257  0.00  0.00    -0.289 OA
ATOM     14  C   UNL     1      32.653 -24.633 -13.778  0.00  0.00    +0.200 C 
BRANCH  14  15
ATOM     15  C   UNL     1      31.427 -23.997 -14.361  0.00  0.00    +0.037 C 
ATOM     16  C   UNL     1      31.180 -22.676 -14.080  0.00  0.00    +0.003 C 
ATOM     17  C   UNL     1      30.605 -24.765 -15.148  0.00  0.00    +0.003 C 
ATOM     18  C   UNL     1      30.038 -22.085 -14.623  0.00  0.00    +0.000 C 
ATOM     19  C   UNL     1      29.463 -24.174 -15.690  0.00  0.00    +0.000 C 
ATOM     20  C   UNL     1      29.181 -22.833 -15.427  0.00  0.00    +0.000 C 
ENDBRANCH  14  15
ENDBRANCH   3  14
BRANCH   6  22
ATOM     21  O   UNL     1      33.832 -23.809 -19.091  0.00  0.00    -0.286 OA
ATOM     22  C   UNL     1      34.340 -22.811 -18.578  0.00  0.00    +0.201 C 
BRANCH  22  25
ATOM     23  F   UNL     1      36.760 -21.963 -19.714  0.00  0.00    -0.204 F 
ATOM     24  F   UNL     1      32.138 -21.126 -19.003  0.00  0.00    -0.204 F 
ATOM     25  C   UNL     1      34.449 -21.548 -19.356  0.00  0.00    +0.094 C 
ATOM     26  C   UNL     1      35.673 -21.196 -19.885  0.00  0.00    +0.145 C 
ATOM     27  C   UNL     1      33.322 -20.771 -19.523  0.00  0.00    +0.145 C 
ATOM     28  C   UNL     1      35.775 -20.012 -20.615  0.00  0.00    +0.030 C 
ATOM     29  C   UNL     1      33.425 -19.587 -20.253  0.00  0.00    +0.030 C 
ATOM     30  C   UNL     1      34.651 -19.207 -20.799  0.00  0.00    +0.005 C 
ENDBRANCH  22  25
ENDBRANCH   6  22
TORSDOF 4
ENDMDL
MODEL 4
REMARK VINA RESULT:     -11.1     12.937     16.818
REMARK  Name = 5289179
REMARK  4 active torsions:
REMARK  status: ('A' for Active; 'I' for Inactive)
REMARK    1  A    between atoms: C_3  and  C_14
REMARK    2  A    between atoms: C_6  and  C_22
REMARK    3  A    between atoms: C_14  and  C_15
REMARK    4  A    between atoms: C_22  and  C_25
REMARK                            x       y       z     vdW  Elec       q    Type
REMARK                         _______ _______ _______ _____ _____    ______ ____
ROOT
ATOM      1  N   UNL     1      32.069  -8.889 -20.953  0.00  0.00    -0.249 N 
ATOM      2  N   UNL     1      32.380  -8.307 -18.816  0.00  0.00    -0.375 NA
ATOM      3  C   UNL     1      31.741  -9.987 -20.200  0.00  0.00    +0.208 C 
ATOM      4  C   UNL     1      32.452  -7.889 -20.064  0.00  0.00    +0.189 C 
ATOM      5  C   UNL     1      32.048  -8.726 -22.336  0.00  0.00    +0.071 C 
ATOM      6  C   UNL     1      32.417  -7.541 -22.852  0.00  0.00    +0.054 C 
ATOM      7  C   UNL     1      31.942  -9.605 -18.895  0.00  0.00    +0.182 C 
ATOM      8  C   UNL     1      32.842  -6.637 -20.623  0.00  0.00    +0.048 C 
ATOM      9  C   UNL     1      32.826  -6.466 -21.959  0.00  0.00    +0.008 C 
ATOM     10  N   UNL     1      31.744 -10.370 -17.799  0.00  0.00    -0.335 N 
ATOM     11  H   UNL     1      31.916 -10.001 -16.903  0.00  0.00    +0.144 HD
ATOM     12  H   UNL     1      31.426 -11.297 -17.897  0.00  0.00    +0.144 HD
ENDROOT
BRANCH   3  14
ATOM     13  O   UNL     1      30.111 -11.511 -21.014  0.00  0.00    -0.289 OA
ATOM     14  C   UNL     1      31.293 -11.246 -20.710  0.00  0.00    +0.200 C 
BRANCH  14  15
ATOM     15  C   UNL     1      32.249 -12.378 -20.942  0.00  0.00    +0.037 C 
ATOM     16  C   UNL     1      32.936 -12.419 -22.130  0.00  0.00    +0.003 C 
ATOM     17  C   UNL     1      32.392 -13.322 -19.956  0.00  0.00    +0.003 C 
ATOM     18  C   UNL     1      33.825 -13.473 -22.345  0.00  0.00    +0.000 C 
ATOM     19  C   UNL     1      33.281 -14.376 -20.171  0.00  0.00    +0.000 C 
ATOM     20  C   UNL     1      33.997 -14.451 -21.367  0.00  0.00    +0.000 C 
ENDBRANCH  14  15
ENDBRANCH   3  14
BRANCH   6  22
ATOM     21  O   UNL     1      31.687  -8.074 -25.015  0.00  0.00    -0.286 OA
ATOM     22  C   UNL     1      32.399  -7.364 -24.303  0.00  0.00    +0.201 C 
BRANCH  22  25
ATOM     23  F   UNL     1      31.277  -5.058 -25.437  0.00  0.00    -0.204 F 
ATOM     24  F   UNL     1      35.198  -7.530 -24.400  0.00  0.00    -0.204 F 
ATOM     25  C   UNL     1      33.235  -6.297 -24.917  0.00  0.00    +0.094 C 
ATOM     26  C   UNL     1      32.611  -5.191 -25.456  0.00  0.00    +0.145 C 
ATOM     27  C   UNL     1      34.605  -6.450 -24.928  0.00  0.00    +0.145 C 
ATOM     28  C   UNL     1      33.394  -4.191 -26.032  0.00  0.00    +0.030 C 
ATOM     29  C   UNL     1      35.388  -5.449 -25.504  0.00  0.00    +0.030 C 
ATOM     30  C   UNL     1      34.782  -4.320 -26.056  0.00  0.00    +0.005 C 
ENDBRANCH  22  25
ENDBRANCH   6  22
TORSDOF 4
ENDMDL
MODEL 5
REMARK VINA RESULT:     -11.0      2.230      6.161
REMARK  Name = 5289179
REMARK  4 active torsions:
REMARK  status: ('A' for Active; 'I' for Inactive)
REMARK    1  A    between atoms: C_3  and  C_14
REMARK    2  A    between atoms: C_6  and  C_22
REMARK    3  A    between atoms: C_14  and  C_15
REMARK    4  A    between atoms: C_22  and  C_25
REMARK                            x       y       z     vdW  Elec       q    Type
REMARK                         _______ _______ _______ _____ _____    ______ ____
ROOT
ATOM      1  N   UNL     1      34.516 -23.449 -14.946  0.00  0.00    -0.249 N 
ATOM      2  N   UNL     1      35.919 -23.076 -13.244  0.00  0.00    -0.375 NA
ATOM      3  C   UNL     1      33.920 -23.976 -13.829  0.00  0.00    +0.208 C 
ATOM      4  C   UNL     1      35.734 -22.911 -14.539  0.00  0.00    +0.189 C 
ATOM      5  C   UNL     1      34.060 -23.418 -16.262  0.00  0.00    +0.071 C 
ATOM      6  C   UNL     1      34.830 -22.839 -17.199  0.00  0.00    +0.054 C 
ATOM      7  C   UNL     1      34.800 -23.735 -12.801  0.00  0.00    +0.182 C 
ATOM      8  C   UNL     1      36.542 -22.299 -15.542  0.00  0.00    +0.048 C 
ATOM      9  C   UNL     1      36.111 -22.263 -16.818  0.00  0.00    +0.008 C 
ATOM     10  N   UNL     1      34.629 -24.080 -11.505  0.00  0.00    -0.335 N 
ATOM     11  H   UNL     1      35.321 -23.860 -10.842  0.00  0.00    +0.144 HD
ATOM     12  H   UNL     1      33.810 -24.550 -11.226  0.00  0.00    +0.144 HD
ENDROOT
BRANCH   3  14
ATOM     13  O   UNL     1      32.442 -25.752 -13.279  0.00  0.00    -0.289 OA
ATOM     14  C   UNL     1      32.650 -24.632 -13.791  0.00  0.00    +0.200 C 
BRANCH  14  15
ATOM     15  C   UNL     1      31.424 -23.991 -14.372  0.00  0.00    +0.037 C 
ATOM     16  C   UNL     1      30.558 -24.774 -15.094  0.00  0.00    +0.003 C 
ATOM     17  C   UNL     1      31.226 -22.650 -14.156  0.00  0.00    +0.003 C 
ATOM     18  C   UNL     1      29.419 -24.177 -15.634  0.00  0.00    +0.000 C 
ATOM     19  C   UNL     1      30.086 -22.053 -14.697  0.00  0.00    +0.000 C 
ATOM     20  C   UNL     1      29.183 -22.818 -15.436  0.00  0.00    +0.000 C 
ENDBRANCH  14  15
ENDBRANCH   3  14
BRANCH   6  22
ATOM     21  O   UNL     1      33.850 -23.802 -19.098  0.00  0.00    -0.286 OA
ATOM     22  C   UNL     1      34.357 -22.805 -18.582  0.00  0.00    +0.201 C 
BRANCH  22  25
ATOM     23  F   UNL     1      32.163 -21.111 -19.006  0.00  0.00    -0.204 F 
ATOM     24  F   UNL     1      36.781 -21.965 -19.718  0.00  0.00    -0.204 F 
ATOM     25  C   UNL     1      34.472 -21.542 -19.360  0.00  0.00    +0.094 C 
ATOM     26  C   UNL     1      33.348 -20.760 -19.527  0.00  0.00    +0.145 C 
ATOM     27  C   UNL     1      35.697 -21.196 -19.888  0.00  0.00    +0.145 C 
ATOM     28  C   UNL     1      33.455 -19.577 -20.257  0.00  0.00    +0.030 C 
ATOM     29  C   UNL     1      35.803 -20.012 -20.618  0.00  0.00    +0.030 C 
ATOM     30  C   UNL     1      34.682 -19.202 -20.802  0.00  0.00    +0.005 C 
ENDBRANCH  22  25
ENDBRANCH   6  22
TORSDOF 4
ENDMDL
MODEL 6
REMARK VINA RESULT:     -11.0     13.097     16.911
REMARK  Name = 5289179
REMARK  4 active torsions:
REMARK  status: ('A' for Active; 'I' for Inactive)
REMARK    1  A    between atoms: C_3  and  C_14
REMARK    2  A    between atoms: C_6  and  C_22
REMARK    3  A    between atoms: C_14  and  C_15
REMARK    4  A    between atoms: C_22  and  C_25
REMARK                            x       y       z     vdW  Elec       q    Type
REMARK                         _______ _______ _______ _____ _____    ______ ____
ROOT
ATOM      1  N   UNL     1      32.006  -8.867 -20.935  0.00  0.00    -0.249 N 
ATOM      2  N   UNL     1      32.375  -8.315 -18.799  0.00  0.00    -0.375 NA
ATOM      3  C   UNL     1      31.705  -9.978 -20.190  0.00  0.00    +0.208 C 
ATOM      4  C   UNL     1      32.411  -7.878 -20.043  0.00  0.00    +0.189 C 
ATOM      5  C   UNL     1      31.946  -8.684 -22.315  0.00  0.00    +0.071 C 
ATOM      6  C   UNL     1      32.295  -7.490 -22.823  0.00  0.00    +0.054 C 
ATOM      7  C   UNL     1      31.940  -9.614 -18.885  0.00  0.00    +0.182 C 
ATOM      8  C   UNL     1      32.778  -6.616 -20.594  0.00  0.00    +0.048 C 
ATOM      9  C   UNL     1      32.724  -6.427 -21.927  0.00  0.00    +0.008 C 
ATOM     10  N   UNL     1      31.777 -10.396 -17.796  0.00  0.00    -0.335 N 
ATOM     11  H   UNL     1      31.972 -10.039 -16.900  0.00  0.00    +0.144 HD
ATOM     12  H   UNL     1      31.460 -11.323 -17.899  0.00  0.00    +0.144 HD
ENDROOT
BRANCH   3  14
ATOM     13  O   UNL     1      30.059 -11.497 -20.981  0.00  0.00    -0.289 OA
ATOM     14  C   UNL     1      31.249 -11.231 -20.706  0.00  0.00    +0.200 C 
BRANCH  14  15
ATOM     15  C   UNL     1      32.202 -12.355 -20.981  0.00  0.00    +0.037 C 
ATOM     16  C   UNL     1      32.388 -13.306 -20.009  0.00  0.00    +0.003 C 
ATOM     17  C   UNL     1      32.849 -12.380 -22.192  0.00  0.00    +0.003 C 
ATOM     18  C   UNL     1      33.276 -14.351 -20.265  0.00  0.00    +0.000 C 
ATOM     19  C   UNL     1      33.737 -13.425 -22.448  0.00  0.00    +0.000 C 
ATOM     20  C   UNL     1      33.951 -14.410 -21.483  0.00  0.00    +0.000 C 
ENDBRANCH  14  15
ENDBRANCH   3  14
BRANCH   6  22
ATOM     21  O   UNL     1      31.858  -8.198 -25.015  0.00  0.00    -0.286 OA
ATOM     22  C   UNL     1      32.236  -7.292 -24.271  0.00  0.00    +0.201 C 
BRANCH  22  25
ATOM     23  F   UNL     1      34.853  -6.725 -25.107  0.00  0.00    -0.204 F 
ATOM     24  F   UNL     1      30.381  -5.211 -24.580  0.00  0.00    -0.204 F 
ATOM     25  C   UNL     1      32.616  -5.971 -24.842  0.00  0.00    +0.094 C 
ATOM     26  C   UNL     1      33.923  -5.766 -25.230  0.00  0.00    +0.145 C 
ATOM     27  C   UNL     1      31.648  -4.997 -24.962  0.00  0.00    +0.145 C 
ATOM     28  C   UNL     1      34.279  -4.528 -25.765  0.00  0.00    +0.030 C 
ATOM     29  C   UNL     1      32.005  -3.759 -25.497  0.00  0.00    +0.030 C 
ATOM     30  C   UNL     1      33.320  -3.524 -25.898  0.00  0.00    +0.005 C 
ENDBRANCH  22  25
ENDBRANCH   6  22
TORSDOF 4
ENDMDL
MODEL 7
REMARK VINA RESULT:     -11.0      2.541      6.565
REMARK  Name = 5289179
REMARK  4 active torsions:
REMARK  status: ('A' for Active; 'I' for Inactive)
REMARK    1  A    between atoms: C_3  and  C_14
REMARK    2  A    between atoms: C_6  and  C_22
REMARK    3  A    between atoms: C_14  and  C_15
REMARK    4  A    between atoms: C_22  and  C_25
REMARK                            x       y       z     vdW  Elec       q    Type
REMARK                         _______ _______ _______ _____ _____    ______ ____
ROOT
ATOM      1  N   UNL     1      32.484 -23.607 -15.438  0.00  0.00    -0.249 N 
ATOM      2  N   UNL     1      32.902 -23.316 -13.260  0.00  0.00    -0.375 NA
ATOM      3  C   UNL     1      31.370 -24.045 -14.767  0.00  0.00    +0.208 C 
ATOM      4  C   UNL     1      33.391 -23.172 -14.476  0.00  0.00    +0.189 C 
ATOM      5  C   UNL     1      32.735 -23.571 -16.808  0.00  0.00    +0.071 C 
ATOM      6  C   UNL     1      33.915 -23.092 -17.235  0.00  0.00    +0.054 C 
ATOM      7  C   UNL     1      31.653 -23.857 -13.435  0.00  0.00    +0.182 C 
ATOM      8  C   UNL     1      34.639 -22.665 -14.942  0.00  0.00    +0.048 C 
ATOM      9  C   UNL     1      34.894 -22.626 -16.264  0.00  0.00    +0.008 C 
ATOM     10  N   UNL     1      30.838 -24.148 -12.397  0.00  0.00    -0.335 N 
ATOM     11  H   UNL     1      31.134 -23.974 -11.475  0.00  0.00    +0.144 HD
ATOM     12  H   UNL     1      29.947 -24.533 -12.564  0.00  0.00    +0.144 HD
ENDROOT
BRANCH   3  14
ATOM     13  O   UNL     1      30.034 -25.777 -15.693  0.00  0.00    -0.289 OA
ATOM     14  C   UNL     1      30.189 -24.580 -15.370  0.00  0.00    +0.200 C 
BRANCH  14  15
ATOM     15  C   UNL     1      28.998 -23.714 -15.654  0.00  0.00    +0.037 C 
ATOM     16  C   UNL     1      28.470 -23.725 -16.921  0.00  0.00    +0.003 C 
ATOM     17  C   UNL     1      28.492 -22.947 -14.634  0.00  0.00    +0.003 C 
ATOM     18  C   UNL     1      27.363 -22.919 -17.184  0.00  0.00    +0.000 C 
ATOM     19  C   UNL     1      27.384 -22.141 -14.897  0.00  0.00    +0.000 C 
ATOM     20  C   UNL     1      26.820 -22.127 -16.174  0.00  0.00    +0.000 C 
ENDBRANCH  14  15
ENDBRANCH   3  14
BRANCH   6  22
ATOM     21  O   UNL     1      34.050 -24.064 -19.364  0.00  0.00    -0.286 OA
ATOM     22  C   UNL     1      34.186 -23.054 -18.672  0.00  0.00    +0.201 C 
BRANCH  22  25
ATOM     23  F   UNL     1      32.353 -21.336 -19.918  0.00  0.00    -0.204 F 
ATOM     24  F   UNL     1      36.858 -22.202 -18.686  0.00  0.00    -0.204 F 
ATOM     25  C   UNL     1      34.605 -21.772 -19.301  0.00  0.00    +0.094 C 
ATOM     26  C   UNL     1      33.646 -20.980 -19.895  0.00  0.00    +0.145 C 
ATOM     27  C   UNL     1      35.938 -21.421 -19.268  0.00  0.00    +0.145 C 
ATOM     28  C   UNL     1      34.038 -19.778 -20.485  0.00  0.00    +0.030 C 
ATOM     29  C   UNL     1      36.329 -20.219 -19.858  0.00  0.00    +0.030 C 
ATOM     30  C   UNL     1      35.380 -19.398 -20.467  0.00  0.00    +0.005 C 
ENDBRANCH  22  25
ENDBRANCH   6  22
TORSDOF 4
ENDMDL
MODEL 8
REMARK VINA RESULT:     -10.9     12.196     15.307
REMARK  Name = 5289179
REMARK  4 active torsions:
REMARK  status: ('A' for Active; 'I' for Inactive)
REMARK    1  A    between atoms: C_3  and  C_14
REMARK    2  A    between atoms: C_6  and  C_22
REMARK    3  A    between atoms: C_14  and  C_15
REMARK    4  A    between atoms: C_22  and  C_25
REMARK                            x       y       z     vdW  Elec       q    Type
REMARK                         _______ _______ _______ _____ _____    ______ ____
ROOT
ATOM      1  N   UNL     1      32.102  -8.329 -21.098  0.00  0.00    -0.249 N 
ATOM      2  N   UNL     1      32.484  -6.901 -19.418  0.00  0.00    -0.375 NA
ATOM      3  C   UNL     1      32.154  -7.077 -21.656  0.00  0.00    +0.208 C 
ATOM      4  C   UNL     1      32.309  -8.170 -19.730  0.00  0.00    +0.189 C 
ATOM      5  C   UNL     1      31.890  -9.563 -21.709  0.00  0.00    +0.071 C 
ATOM      6  C   UNL     1      31.882 -10.668 -20.944  0.00  0.00    +0.054 C 
ATOM      7  C   UNL     1      32.388  -6.221 -20.606  0.00  0.00    +0.182 C 
ATOM      8  C   UNL     1      32.299  -9.350 -18.931  0.00  0.00    +0.048 C 
ATOM      9  C   UNL     1      32.095 -10.549 -19.510  0.00  0.00    +0.008 C 
ATOM     10  N   UNL     1      32.516  -4.878 -20.684  0.00  0.00    -0.335 N 
ATOM     11  H   UNL     1      32.685  -4.352 -19.870  0.00  0.00    +0.144 HD
ATOM     12  H   UNL     1      32.443  -4.426 -21.556  0.00  0.00    +0.144 HD
ENDROOT
BRANCH   3  14
ATOM     13  O   UNL     1      30.904  -6.830 -23.661  0.00  0.00    -0.289 OA
ATOM     14  C   UNL     1      31.989  -6.775 -23.044  0.00  0.00    +0.200 C 
BRANCH  14  15
ATOM     15  C   UNL     1      33.148  -6.337 -23.889  0.00  0.00    +0.037 C 
ATOM     16  C   UNL     1      32.889  -5.640 -25.043  0.00  0.00    +0.003 C 
ATOM     17  C   UNL     1      34.416  -6.656 -23.472  0.00  0.00    +0.003 C 
ATOM     18  C   UNL     1      33.967  -5.234 -25.828  0.00  0.00    +0.000 C 
ATOM     19  C   UNL     1      35.495  -6.250 -24.257  0.00  0.00    +0.000 C 
ATOM     20  C   UNL     1      35.270  -5.539 -25.437  0.00  0.00    +0.000 C 
ENDBRANCH  14  15
ENDBRANCH   3  14
BRANCH   6  22
ATOM     21  O   UNL     1      30.589 -12.215 -22.141  0.00  0.00    -0.286 OA
ATOM     22  C   UNL     1      31.657 -11.966 -21.579  0.00  0.00    +0.201 C 
BRANCH  22  25
ATOM     23  F   UNL     1      32.103 -13.639 -19.373  0.00  0.00    -0.204 F 
ATOM     24  F   UNL     1      33.390 -12.332 -23.755  0.00  0.00    -0.204 F 
ATOM     25  C   UNL     1      32.744 -12.982 -21.564  0.00  0.00    +0.094 C 
ATOM     26  C   UNL     1      32.902 -13.769 -20.442  0.00  0.00    +0.145 C 
ATOM     27  C   UNL     1      33.556 -13.104 -22.672  0.00  0.00    +0.145 C 
ATOM     28  C   UNL     1      33.920 -14.721 -20.428  0.00  0.00    +0.030 C 
ATOM     29  C   UNL     1      34.574 -14.056 -22.656  0.00  0.00    +0.030 C 
ATOM     30  C   UNL     1      34.757 -14.865 -21.534  0.00  0.00    +0.005 C 
ENDBRANCH  22  25
ENDBRANCH   6  22
TORSDOF 4
ENDMDL
MODEL 9
REMARK VINA RESULT:     -10.9     12.209     15.329
REMARK  Name = 5289179
REMARK  4 active torsions:
REMARK  status: ('A' for Active; 'I' for Inactive)
REMARK    1  A    between atoms: C_3  and  C_14
REMARK    2  A    between atoms: C_6  and  C_22
REMARK    3  A    between atoms: C_14  and  C_15
REMARK    4  A    between atoms: C_22  and  C_25
REMARK                            x       y       z     vdW  Elec       q    Type
REMARK                         _______ _______ _______ _____ _____    ______ ____
ROOT
ATOM      1  N   UNL     1      32.084  -8.313 -21.097  0.00  0.00    -0.249 N 
ATOM      2  N   UNL     1      32.460  -6.883 -19.419  0.00  0.00    -0.375 NA
ATOM      3  C   UNL     1      32.137  -7.063 -21.658  0.00  0.00    +0.208 C 
ATOM      4  C   UNL     1      32.287  -8.152 -19.729  0.00  0.00    +0.189 C 
ATOM      5  C   UNL     1      31.873  -9.549 -21.706  0.00  0.00    +0.071 C 
ATOM      6  C   UNL     1      31.863 -10.652 -20.939  0.00  0.00    +0.054 C 
ATOM      7  C   UNL     1      32.368  -6.205 -20.608  0.00  0.00    +0.182 C 
ATOM      8  C   UNL     1      32.274  -9.330 -18.927  0.00  0.00    +0.048 C 
ATOM      9  C   UNL     1      32.071 -10.531 -19.504  0.00  0.00    +0.008 C 
ATOM     10  N   UNL     1      32.497  -4.862 -20.689  0.00  0.00    -0.335 N 
ATOM     11  H   UNL     1      32.663  -4.334 -19.875  0.00  0.00    +0.144 HD
ATOM     12  H   UNL     1      32.427  -4.412 -21.562  0.00  0.00    +0.144 HD
ENDROOT
BRANCH   3  14
ATOM     13  O   UNL     1      30.894  -6.820 -23.667  0.00  0.00    -0.289 OA
ATOM     14  C   UNL     1      31.977  -6.764 -23.047  0.00  0.00    +0.200 C 
BRANCH  14  15
ATOM     15  C   UNL     1      33.139  -6.329 -23.889  0.00  0.00    +0.037 C 
ATOM     16  C   UNL     1      34.406  -6.656 -23.474  0.00  0.00    +0.003 C 
ATOM     17  C   UNL     1      32.883  -5.619 -25.037  0.00  0.00    +0.003 C 
ATOM     18  C   UNL     1      35.486  -6.250 -24.258  0.00  0.00    +0.000 C 
ATOM     19  C   UNL     1      33.963  -5.213 -25.820  0.00  0.00    +0.000 C 
ATOM     20  C   UNL     1      35.265  -5.529 -25.430  0.00  0.00    +0.000 C 
ENDBRANCH  14  15
ENDBRANCH   3  14
BRANCH   6  22
ATOM     21  O   UNL     1      30.575 -12.201 -22.137  0.00  0.00    -0.286 OA
ATOM     22  C   UNL     1      31.640 -11.952 -21.572  0.00  0.00    +0.201 C 
BRANCH  22  25
ATOM     23  F   UNL     1      33.402 -12.298 -23.726  0.00  0.00    -0.204 F 
ATOM     24  F   UNL     1      32.057 -13.644 -19.374  0.00  0.00    -0.204 F 
ATOM     25  C   UNL     1      32.726 -12.969 -21.550  0.00  0.00    +0.094 C 
ATOM     26  C   UNL     1      33.554 -13.080 -22.648  0.00  0.00    +0.145 C 
ATOM     27  C   UNL     1      32.869 -13.764 -20.433  0.00  0.00    +0.145 C 
ATOM     28  C   UNL     1      34.572 -14.034 -22.627  0.00  0.00    +0.030 C 
ATOM     29  C   UNL     1      33.887 -14.717 -20.414  0.00  0.00    +0.030 C 
ATOM     30  C   UNL     1      34.738 -14.852 -21.511  0.00  0.00    +0.005 C 
ENDBRANCH  22  25
ENDBRANCH   6  22
TORSDOF 4
ENDMDL
