MODEL 1
REMARK VINA RESULT:     -11.2      0.000      0.000
REMARK  Name = 1150567
REMARK  6 active torsions:
REMARK  status: ('A' for Active; 'I' for Inactive)
REMARK    1  A    between atoms: C_1  and  C_3
REMARK    2  A    between atoms: C_1  and  C_17
REMARK    3  A    between atoms: C_10  and  O_12
REMARK    4  A    between atoms: C_11  and  O_14
REMARK    5  A    between atoms: N_16  and  C_23
REMARK    6  A    between atoms: C_23  and  C_24
REMARK                            x       y       z     vdW  Elec       q    Type
REMARK                         _______ _______ _______ _____ _____    ______ ____
ROOT
ATOM      1  C   UNL     1      35.109 -19.837 -22.202  0.00  0.00    +0.008 C 
ENDROOT
BRANCH   1   3
ATOM      2  O   UNL     1      32.552 -20.333 -20.673  0.00  0.00    -0.291 OA
ATOM      3  C   UNL     1      34.907 -19.663 -20.709  0.00  0.00    +0.066 C 
ATOM      4  C   UNL     1      36.079 -20.236 -19.880  0.00  0.00    +0.034 C 
ATOM      5  C   UNL     1      33.682 -20.421 -20.228  0.00  0.00    +0.173 C 
ATOM      6  C   UNL     1      35.423 -21.173 -18.917  0.00  0.00    -0.016 C 
ATOM      7  C   UNL     1      34.054 -21.289 -19.121  0.00  0.00    +0.034 C 
ATOM      8  C   UNL     1      36.031 -21.905 -17.909  0.00  0.00    +0.036 C 
ATOM      9  C   UNL     1      33.245 -22.110 -18.359  0.00  0.00    +0.043 C 
ATOM     10  C   UNL     1      35.238 -22.744 -17.119  0.00  0.00    +0.172 C 
ATOM     11  C   UNL     1      33.855 -22.847 -17.343  0.00  0.00    +0.172 C 
BRANCH  10  12
ATOM     12  O   UNL     1      35.827 -23.469 -16.126  0.00  0.00    -0.468 OA
ATOM     13  C   UNL     1      36.863 -22.829 -15.385  0.00  0.00    +0.253 C 
ENDBRANCH  10  12
BRANCH  11  14
ATOM     14  O   UNL     1      33.094 -23.670 -16.568  0.00  0.00    -0.468 OA
ATOM     15  C   UNL     1      31.869 -23.139 -16.069  0.00  0.00    +0.253 C 
ENDBRANCH  11  14
ENDBRANCH   1   3
BRANCH   1  17
ATOM     16  N   UNL     1      34.281 -15.836 -23.602  0.00  0.00    +0.390 N 
ATOM     17  C   UNL     1      35.300 -18.494 -22.899  0.00  0.00    -0.004 C 
ATOM     18  C   UNL     1      34.240 -18.279 -23.984  0.00  0.00    -0.023 C 
ATOM     19  C   UNL     1      35.251 -17.339 -21.893  0.00  0.00    -0.023 C 
ATOM     20  C   UNL     1      34.364 -16.892 -24.618  0.00  0.00    -0.077 C 
ATOM     21  C   UNL     1      35.342 -15.983 -22.595  0.00  0.00    -0.077 C 
ATOM     22  H   UNL     1      33.383 -15.925 -23.127  0.00  0.00    -0.079 HD
BRANCH  16  23
ATOM     23  C   UNL     1      34.350 -14.516 -24.228  0.00  0.00    -0.050 C 
BRANCH  23  24
ATOM     24  C   UNL     1      33.586 -13.482 -23.444  0.00  0.00    -0.043 C 
ATOM     25  C   UNL     1      33.619 -12.155 -23.850  0.00  0.00    -0.006 C 
ATOM     26  C   UNL     1      32.861 -13.869 -22.326  0.00  0.00    -0.006 C 
ATOM     27  C   UNL     1      32.912 -11.196 -23.124  0.00  0.00    -0.000 C 
ATOM     28  C   UNL     1      32.154 -12.910 -21.600  0.00  0.00    -0.000 C 
ATOM     29  C   UNL     1      32.179 -11.574 -22.000  0.00  0.00    -0.000 C 
ENDBRANCH  23  24
ENDBRANCH  16  23
ENDBRANCH   1  17
TORSDOF 6
ENDMDL
MODEL 2
REMARK VINA RESULT:     -10.9      1.697      3.104
REMARK  Name = 1150567
REMARK  6 active torsions:
REMARK  status: ('A' for Active; 'I' for Inactive)
REMARK    1  A    between atoms: C_1  and  C_3
REMARK    2  A    between atoms: C_1  and  C_17
REMARK    3  A    between atoms: C_10  and  O_12
REMARK    4  A    between atoms: C_11  and  O_14
REMARK    5  A    between atoms: N_16  and  C_23
REMARK    6  A    between atoms: C_23  and  C_24
REMARK                            x       y       z     vdW  Elec       q    Type
REMARK                         _______ _______ _______ _____ _____    ______ ____
ROOT
ATOM      1  C   UNL     1      36.099 -17.155 -21.421  0.00  0.00    +0.008 C 
ENDROOT
BRANCH   1   3
ATOM      2  O   UNL     1      37.847 -19.362 -20.328  0.00  0.00    -0.291 OA
ATOM      3  C   UNL     1      35.884 -18.645 -21.603  0.00  0.00    +0.066 C 
ATOM      4  C   UNL     1      34.408 -19.061 -21.405  0.00  0.00    +0.034 C 
ATOM      5  C   UNL     1      36.656 -19.443 -20.567  0.00  0.00    +0.173 C 
ATOM      6  C   UNL     1      34.468 -20.140 -20.371  0.00  0.00    -0.016 C 
ATOM      7  C   UNL     1      35.750 -20.353 -19.883  0.00  0.00    +0.034 C 
ATOM      8  C   UNL     1      33.412 -20.890 -19.876  0.00  0.00    +0.036 C 
ATOM      9  C   UNL     1      36.041 -21.290 -18.910  0.00  0.00    +0.043 C 
ATOM     10  C   UNL     1      33.674 -21.849 -18.892  0.00  0.00    +0.172 C 
ATOM     11  C   UNL     1      34.979 -22.047 -18.412  0.00  0.00    +0.172 C 
BRANCH  10  12
ATOM     12  O   UNL     1      32.642 -22.591 -18.398  0.00  0.00    -0.468 OA
ATOM     13  C   UNL     1      32.304 -22.397 -17.027  0.00  0.00    +0.253 C 
ENDBRANCH  10  12
BRANCH  11  14
ATOM     14  O   UNL     1      35.222 -22.983 -17.451  0.00  0.00    -0.468 OA
ATOM     15  C   UNL     1      35.930 -22.551 -16.291  0.00  0.00    +0.253 C 
ENDBRANCH  11  14
ENDBRANCH   1   3
BRANCH   1  17
ATOM     16  N   UNL     1      33.649 -13.830 -22.686  0.00  0.00    +0.390 N 
ATOM     17  C   UNL     1      34.866 -16.359 -21.835  0.00  0.00    -0.004 C 
ATOM     18  C   UNL     1      34.602 -15.205 -20.863  0.00  0.00    -0.023 C 
ATOM     19  C   UNL     1      35.015 -15.811 -23.259  0.00  0.00    -0.023 C 
ATOM     20  C   UNL     1      33.426 -14.342 -21.328  0.00  0.00    -0.077 C 
ATOM     21  C   UNL     1      33.827 -14.929 -23.645  0.00  0.00    -0.077 C 
ATOM     22  H   UNL     1      34.507 -13.279 -22.677  0.00  0.00    -0.079 HD
BRANCH  16  23
ATOM     23  C   UNL     1      32.543 -12.966 -23.096  0.00  0.00    -0.050 C 
BRANCH  23  24
ATOM     24  C   UNL     1      32.935 -11.513 -23.096  0.00  0.00    -0.043 C 
ATOM     25  C   UNL     1      34.137 -11.130 -23.676  0.00  0.00    -0.006 C 
ATOM     26  C   UNL     1      32.092 -10.577 -22.515  0.00  0.00    -0.006 C 
ATOM     27  C   UNL     1      34.502  -9.783 -23.676  0.00  0.00    -0.000 C 
ATOM     28  C   UNL     1      32.457  -9.229 -22.516  0.00  0.00    -0.000 C 
ATOM     29  C   UNL     1      33.662  -8.834 -23.097  0.00  0.00    -0.000 C 
ENDBRANCH  23  24
ENDBRANCH  16  23
ENDBRANCH   1  17
TORSDOF 6
ENDMDL
MODEL 3
REMARK VINA RESULT:     -10.8      1.984      3.794
REMARK  Name = 1150567
REMARK  6 active torsions:
REMARK  status: ('A' for Active; 'I' for Inactive)
REMARK    1  A    between atoms: C_1  and  C_3
REMARK    2  A    between atoms: C_1  and  C_17
REMARK    3  A    between atoms: C_10  and  O_12
REMARK    4  A    between atoms: C_11  and  O_14
REMARK    5  A    between atoms: N_16  and  C_23
REMARK    6  A    between atoms: C_23  and  C_24
REMARK                            x       y       z     vdW  Elec       q    Type
REMARK                         _______ _______ _______ _____ _____    ______ ____
ROOT
ATOM      1  C   UNL     1      36.421 -20.541 -18.797  0.00  0.00    +0.008 C 
ENDROOT
BRANCH   1   3
ATOM      2  O   UNL     1      37.294 -22.255 -16.469  0.00  0.00    -0.291 OA
ATOM      3  C   UNL     1      35.934 -21.941 -18.480  0.00  0.00    +0.066 C 
ATOM      4  C   UNL     1      34.402 -22.087 -18.634  0.00  0.00    +0.034 C 
ATOM      5  C   UNL     1      36.216 -22.308 -17.034  0.00  0.00    +0.173 C 
ATOM      6  C   UNL     1      33.953 -22.637 -17.318  0.00  0.00    -0.016 C 
ATOM      7  C   UNL     1      34.987 -22.754 -16.398  0.00  0.00    +0.034 C 
ATOM      8  C   UNL     1      32.667 -23.003 -16.954  0.00  0.00    +0.036 C 
ATOM      9  C   UNL     1      34.802 -23.226 -15.112  0.00  0.00    +0.043 C 
ATOM     10  C   UNL     1      32.447 -23.486 -15.660  0.00  0.00    +0.172 C 
ATOM     11  C   UNL     1      33.508 -23.596 -14.745  0.00  0.00    +0.172 C 
BRANCH  10  12
ATOM     12  O   UNL     1      31.185 -23.847 -15.292  0.00  0.00    -0.468 OA
ATOM     13  C   UNL     1      30.108 -23.109 -15.864  0.00  0.00    +0.253 C 
ENDBRANCH  10  12
BRANCH  11  14
ATOM     14  O   UNL     1      33.281 -24.065 -13.486  0.00  0.00    -0.468 OA
ATOM     15  C   UNL     1      34.418 -24.230 -12.642  0.00  0.00    +0.253 C 
ENDBRANCH  11  14
ENDBRANCH   1   3
BRANCH   1  17
ATOM     16  N   UNL     1      35.311 -18.246 -22.284  0.00  0.00    +0.390 N 
ATOM     17  C   UNL     1      36.176 -20.183 -20.260  0.00  0.00    -0.004 C 
ATOM     18  C   UNL     1      34.700 -19.854 -20.507  0.00  0.00    -0.023 C 
ATOM     19  C   UNL     1      37.048 -18.999 -20.691  0.00  0.00    -0.023 C 
ATOM     20  C   UNL     1      34.465 -19.397 -21.948  0.00  0.00    -0.077 C 
ATOM     21  C   UNL     1      36.736 -18.570 -22.126  0.00  0.00    -0.077 C 
ATOM     22  H   UNL     1      35.088 -17.491 -21.636  0.00  0.00    -0.079 HD
BRANCH  16  23
ATOM     23  C   UNL     1      35.039 -17.788 -23.646  0.00  0.00    -0.050 C 
BRANCH  23  24
ATOM     24  C   UNL     1      34.576 -16.356 -23.675  0.00  0.00    -0.043 C 
ATOM     25  C   UNL     1      34.885 -15.517 -22.613  0.00  0.00    -0.006 C 
ATOM     26  C   UNL     1      33.847 -15.894 -24.762  0.00  0.00    -0.006 C 
ATOM     27  C   UNL     1      34.456 -14.189 -22.639  0.00  0.00    -0.000 C 
ATOM     28  C   UNL     1      33.418 -14.566 -24.787  0.00  0.00    -0.000 C 
ATOM     29  C   UNL     1      33.724 -13.714 -23.726  0.00  0.00    -0.000 C 
ENDBRANCH  23  24
ENDBRANCH  16  23
ENDBRANCH   1  17
TORSDOF 6
ENDMDL
MODEL 4
REMARK VINA RESULT:     -10.8      2.302      4.079
REMARK  Name = 1150567
REMARK  6 active torsions:
REMARK  status: ('A' for Active; 'I' for Inactive)
REMARK    1  A    between atoms: C_1  and  C_3
REMARK    2  A    between atoms: C_1  and  C_17
REMARK    3  A    between atoms: C_10  and  O_12
REMARK    4  A    between atoms: C_11  and  O_14
REMARK    5  A    between atoms: N_16  and  C_23
REMARK    6  A    between atoms: C_23  and  C_24
REMARK                            x       y       z     vdW  Elec       q    Type
REMARK                         _______ _______ _______ _____ _____    ______ ____
ROOT
ATOM      1  C   UNL     1      34.578 -22.669 -18.998  0.00  0.00    +0.008 C 
ENDROOT
BRANCH   1   3
ATOM      2  O   UNL     1      31.915 -22.424 -17.595  0.00  0.00    -0.291 OA
ATOM      3  C   UNL     1      34.337 -22.066 -17.627  0.00  0.00    +0.066 C 
ATOM      4  C   UNL     1      35.386 -22.518 -16.586  0.00  0.00    +0.034 C 
ATOM      5  C   UNL     1      33.003 -22.515 -17.056  0.00  0.00    +0.173 C 
ATOM      6  C   UNL     1      34.571 -23.070 -15.460  0.00  0.00    -0.016 C 
ATOM      7  C   UNL     1      33.209 -23.079 -15.731  0.00  0.00    +0.034 C 
ATOM      8  C   UNL     1      35.033 -23.559 -14.249  0.00  0.00    +0.036 C 
ATOM      9  C   UNL     1      32.267 -23.559 -14.841  0.00  0.00    +0.043 C 
ATOM     10  C   UNL     1      34.104 -24.050 -13.326  0.00  0.00    +0.172 C 
ATOM     11  C   UNL     1      32.730 -24.050 -13.621  0.00  0.00    +0.172 C 
BRANCH  10  12
ATOM     12  O   UNL     1      34.548 -24.534 -12.131  0.00  0.00    -0.468 OA
ATOM     13  C   UNL     1      35.754 -23.975 -11.615  0.00  0.00    +0.253 C 
ENDBRANCH  10  12
BRANCH  11  14
ATOM     14  O   UNL     1      31.835 -24.534 -12.714  0.00  0.00    -0.468 OA
ATOM     15  C   UNL     1      30.528 -24.841 -13.195  0.00  0.00    +0.253 C 
ENDBRANCH  11  14
ENDBRANCH   1   3
BRANCH   1  17
ATOM     16  N   UNL     1      35.760 -18.852 -20.638  0.00  0.00    +0.390 N 
ATOM     17  C   UNL     1      35.162 -21.642 -19.963  0.00  0.00    -0.004 C 
ATOM     18  C   UNL     1      34.086 -20.663 -20.444  0.00  0.00    -0.023 C 
ATOM     19  C   UNL     1      36.313 -20.867 -19.314  0.00  0.00    -0.023 C 
ATOM     20  C   UNL     1      34.683 -19.570 -21.332  0.00  0.00    -0.077 C 
ATOM     21  C   UNL     1      36.838 -19.768 -20.240  0.00  0.00    -0.077 C 
ATOM     22  H   UNL     1      35.368 -18.440 -19.792  0.00  0.00    -0.079 HD
BRANCH  16  23
ATOM     23  C   UNL     1      36.286 -17.778 -21.480  0.00  0.00    -0.050 C 
BRANCH  23  24
ATOM     24  C   UNL     1      35.377 -16.578 -21.494  0.00  0.00    -0.043 C 
ATOM     25  C   UNL     1      35.022 -16.005 -22.707  0.00  0.00    -0.006 C 
ATOM     26  C   UNL     1      34.908 -16.062 -20.295  0.00  0.00    -0.006 C 
ATOM     27  C   UNL     1      34.180 -14.892 -22.721  0.00  0.00    -0.000 C 
ATOM     28  C   UNL     1      34.065 -14.949 -20.309  0.00  0.00    -0.000 C 
ATOM     29  C   UNL     1      33.701 -14.365 -21.523  0.00  0.00    -0.000 C 
ENDBRANCH  23  24
ENDBRANCH  16  23
ENDBRANCH   1  17
TORSDOF 6
ENDMDL
MODEL 5
REMARK VINA RESULT:     -10.6      2.191      4.322
REMARK  Name = 1150567
REMARK  6 active torsions:
REMARK  status: ('A' for Active; 'I' for Inactive)
REMARK    1  A    between atoms: C_1  and  C_3
REMARK    2  A    between atoms: C_1  and  C_17
REMARK    3  A    between atoms: C_10  and  O_12
REMARK    4  A    between atoms: C_11  and  O_14
REMARK    5  A    between atoms: N_16  and  C_23
REMARK    6  A    between atoms: C_23  and  C_24
REMARK                            x       y       z     vdW  Elec       q    Type
REMARK                         _______ _______ _______ _____ _____    ______ ____
ROOT
ATOM      1  C   UNL     1      34.705 -22.440 -18.834  0.00  0.00    +0.008 C 
ENDROOT
BRANCH   1   3
ATOM      2  O   UNL     1      33.135 -23.029 -16.322  0.00  0.00    -0.291 OA
ATOM      3  C   UNL     1      35.030 -21.951 -17.436  0.00  0.00    +0.066 C 
ATOM      4  C   UNL     1      36.535 -22.071 -17.099  0.00  0.00    +0.034 C 
ATOM      5  C   UNL     1      34.328 -22.790 -16.382  0.00  0.00    +0.173 C 
ATOM      6  C   UNL     1      36.563 -22.854 -15.825  0.00  0.00    -0.016 C 
ATOM      7  C   UNL     1      35.304 -23.275 -15.420  0.00  0.00    +0.034 C 
ATOM      8  C   UNL     1      37.675 -23.190 -15.070  0.00  0.00    +0.036 C 
ATOM      9  C   UNL     1      35.091 -24.026 -14.279  0.00  0.00    +0.043 C 
ATOM     10  C   UNL     1      37.493 -23.948 -13.909  0.00  0.00    +0.172 C 
ATOM     11  C   UNL     1      36.210 -24.364 -13.517  0.00  0.00    +0.172 C 
BRANCH  10  12
ATOM     12  O   UNL     1      38.581 -24.284 -13.158  0.00  0.00    -0.468 OA
ATOM     13  C   UNL     1      39.293 -25.458 -13.541  0.00  0.00    +0.253 C 
ENDBRANCH  10  12
BRANCH  11  14
ATOM     14  O   UNL     1      36.045 -25.105 -12.384  0.00  0.00    -0.468 OA
ATOM     15  C   UNL     1      35.743 -24.395 -11.185  0.00  0.00    +0.253 C 
ENDBRANCH  11  14
ENDBRANCH   1   3
BRANCH   1  17
ATOM     16  N   UNL     1      35.661 -18.710 -20.789  0.00  0.00    +0.390 N 
ATOM     17  C   UNL     1      35.202 -21.464 -19.895  0.00  0.00    -0.004 C 
ATOM     18  C   UNL     1      34.068 -20.559 -20.387  0.00  0.00    -0.023 C 
ATOM     19  C   UNL     1      36.353 -20.606 -19.359  0.00  0.00    -0.023 C 
ATOM     20  C   UNL     1      34.581 -19.511 -21.377  0.00  0.00    -0.077 C 
ATOM     21  C   UNL     1      36.791 -19.557 -20.383  0.00  0.00    -0.077 C 
ATOM     22  H   UNL     1      35.295 -18.253 -19.954  0.00  0.00    -0.079 HD
BRANCH  16  23
ATOM     23  C   UNL     1      36.105 -17.680 -21.728  0.00  0.00    -0.050 C 
BRANCH  23  24
ATOM     24  C   UNL     1      35.270 -16.431 -21.629  0.00  0.00    -0.043 C 
ATOM     25  C   UNL     1      34.865 -15.978 -20.380  0.00  0.00    -0.006 C 
ATOM     26  C   UNL     1      34.916 -15.751 -22.785  0.00  0.00    -0.006 C 
ATOM     27  C   UNL     1      34.091 -14.822 -20.287  0.00  0.00    -0.000 C 
ATOM     28  C   UNL     1      34.142 -14.593 -22.691  0.00  0.00    -0.000 C 
ATOM     29  C   UNL     1      33.730 -14.130 -21.442  0.00  0.00    -0.000 C 
ENDBRANCH  23  24
ENDBRANCH  16  23
ENDBRANCH   1  17
TORSDOF 6
ENDMDL
MODEL 6
REMARK VINA RESULT:     -10.3      4.341      9.795
REMARK  Name = 1150567
REMARK  6 active torsions:
REMARK  status: ('A' for Active; 'I' for Inactive)
REMARK    1  A    between atoms: C_1  and  C_3
REMARK    2  A    between atoms: C_1  and  C_17
REMARK    3  A    between atoms: C_10  and  O_12
REMARK    4  A    between atoms: C_11  and  O_14
REMARK    5  A    between atoms: N_16  and  C_23
REMARK    6  A    between atoms: C_23  and  C_24
REMARK                            x       y       z     vdW  Elec       q    Type
REMARK                         _______ _______ _______ _____ _____    ______ ____
ROOT
ATOM      1  C   UNL     1      34.245 -15.160 -23.570  0.00  0.00    +0.008 C 
ENDROOT
BRANCH   1   3
ATOM      2  O   UNL     1      34.364 -12.297 -24.525  0.00  0.00    -0.291 OA
ATOM      3  C   UNL     1      34.418 -13.929 -22.701  0.00  0.00    +0.066 C 
ATOM      4  C   UNL     1      33.542 -13.972 -21.427  0.00  0.00    +0.034 C 
ATOM      5  C   UNL     1      33.979 -12.673 -23.433  0.00  0.00    +0.173 C 
ATOM      6  C   UNL     1      32.772 -12.691 -21.469  0.00  0.00    -0.016 C 
ATOM      7  C   UNL     1      33.012 -11.952 -22.620  0.00  0.00    +0.034 C 
ATOM      8  C   UNL     1      31.879 -12.216 -20.522  0.00  0.00    +0.036 C 
ATOM      9  C   UNL     1      32.398 -10.741 -22.880  0.00  0.00    +0.043 C 
ATOM     10  C   UNL     1      31.243 -10.992 -20.755  0.00  0.00    +0.172 C 
ATOM     11  C   UNL     1      31.500 -10.260 -21.926  0.00  0.00    +0.172 C 
BRANCH  10  12
ATOM     12  O   UNL     1      30.363 -10.516 -19.828  0.00  0.00    -0.468 OA
ATOM     13  C   UNL     1      30.908 -10.054 -18.595  0.00  0.00    +0.253 C 
ENDBRANCH  10  12
BRANCH  11  14
ATOM     14  O   UNL     1      30.872  -9.070 -22.142  0.00  0.00    -0.468 OA
ATOM     15  C   UNL     1      31.628  -7.886 -21.899  0.00  0.00    +0.253 C 
ENDBRANCH  11  14
ENDBRANCH   1   3
BRANCH   1  17
ATOM     16  N   UNL     1      35.164 -18.856 -21.534  0.00  0.00    +0.390 N 
ATOM     17  C   UNL     1      35.049 -16.339 -23.033  0.00  0.00    -0.004 C 
ATOM     18  C   UNL     1      35.002 -16.388 -21.503  0.00  0.00    -0.023 C 
ATOM     19  C   UNL     1      34.537 -17.664 -23.609  0.00  0.00    -0.023 C 
ATOM     20  C   UNL     1      35.723 -17.625 -20.962  0.00  0.00    -0.077 C 
ATOM     21  C   UNL     1      35.273 -18.858 -22.999  0.00  0.00    -0.077 C 
ATOM     22  H   UNL     1      34.173 -18.894 -21.292  0.00  0.00    -0.079 HD
BRANCH  16  23
ATOM     23  C   UNL     1      35.827 -20.031 -20.969  0.00  0.00    -0.050 C 
BRANCH  23  24
ATOM     24  C   UNL     1      34.934 -20.775 -20.013  0.00  0.00    -0.043 C 
ATOM     25  C   UNL     1      33.572 -20.505 -20.001  0.00  0.00    -0.006 C 
ATOM     26  C   UNL     1      35.483 -21.719 -19.157  0.00  0.00    -0.006 C 
ATOM     27  C   UNL     1      32.743 -21.194 -19.115  0.00  0.00    -0.000 C 
ATOM     28  C   UNL     1      34.654 -22.408 -18.271  0.00  0.00    -0.000 C 
ATOM     29  C   UNL     1      33.284 -22.145 -18.251  0.00  0.00    -0.000 C 
ENDBRANCH  23  24
ENDBRANCH  16  23
ENDBRANCH   1  17
TORSDOF 6
ENDMDL
MODEL 7
REMARK VINA RESULT:     -10.2      4.927     11.425
REMARK  Name = 1150567
REMARK  6 active torsions:
REMARK  status: ('A' for Active; 'I' for Inactive)
REMARK    1  A    between atoms: C_1  and  C_3
REMARK    2  A    between atoms: C_1  and  C_17
REMARK    3  A    between atoms: C_10  and  O_12
REMARK    4  A    between atoms: C_11  and  O_14
REMARK    5  A    between atoms: N_16  and  C_23
REMARK    6  A    between atoms: C_23  and  C_24
REMARK                            x       y       z     vdW  Elec       q    Type
REMARK                         _______ _______ _______ _____ _____    ______ ____
ROOT
ATOM      1  C   UNL     1      32.828 -12.846 -21.807  0.00  0.00    +0.008 C 
ENDROOT
BRANCH   1   3
ATOM      2  O   UNL     1      30.689 -10.766 -22.279  0.00  0.00    -0.291 OA
ATOM      3  C   UNL     1      32.762 -11.871 -22.968  0.00  0.00    +0.066 C 
ATOM      4  C   UNL     1      34.132 -11.229 -23.283  0.00  0.00    +0.034 C 
ATOM      5  C   UNL     1      31.846 -10.702 -22.653  0.00  0.00    +0.173 C 
ATOM      6  C   UNL     1      33.864  -9.758 -23.246  0.00  0.00    -0.016 C 
ATOM      7  C   UNL     1      32.560  -9.454 -22.875  0.00  0.00    +0.034 C 
ATOM      8  C   UNL     1      34.757  -8.733 -23.517  0.00  0.00    +0.036 C 
ATOM      9  C   UNL     1      32.092  -8.159 -22.760  0.00  0.00    +0.043 C 
ATOM     10  C   UNL     1      34.312  -7.411 -23.411  0.00  0.00    +0.172 C 
ATOM     11  C   UNL     1      32.989  -7.127 -23.034  0.00  0.00    +0.172 C 
BRANCH  10  12
ATOM     12  O   UNL     1      35.183  -6.396 -23.675  0.00  0.00    -0.468 OA
ATOM     13  C   UNL     1      35.194  -5.882 -25.005  0.00  0.00    +0.253 C 
ENDBRANCH  10  12
BRANCH  11  14
ATOM     14  O   UNL     1      32.569  -5.834 -22.931  0.00  0.00    -0.468 OA
ATOM     15  C   UNL     1      32.275  -5.351 -21.622  0.00  0.00    +0.253 C 
ENDBRANCH  11  14
ENDBRANCH   1   3
BRANCH   1  17
ATOM     16  N   UNL     1      34.882 -16.622 -22.220  0.00  0.00    +0.390 N 
ATOM     17  C   UNL     1      33.964 -13.848 -21.984  0.00  0.00    -0.004 C 
ATOM     18  C   UNL     1      34.065 -14.786 -20.778  0.00  0.00    -0.023 C 
ATOM     19  C   UNL     1      33.780 -14.670 -23.265  0.00  0.00    -0.023 C 
ATOM     20  C   UNL     1      35.136 -15.858 -20.993  0.00  0.00    -0.077 C 
ATOM     21  C   UNL     1      34.860 -15.744 -23.398  0.00  0.00    -0.077 C 
ATOM     22  H   UNL     1      33.964 -17.058 -22.135  0.00  0.00    -0.079 HD
BRANCH  16  23
ATOM     23  C   UNL     1      35.884 -17.675 -22.385  0.00  0.00    -0.050 C 
BRANCH  23  24
ATOM     24  C   UNL     1      35.701 -18.786 -21.386  0.00  0.00    -0.043 C 
ATOM     25  C   UNL     1      34.453 -19.377 -21.243  0.00  0.00    -0.006 C 
ATOM     26  C   UNL     1      36.781 -19.203 -20.621  0.00  0.00    -0.006 C 
ATOM     27  C   UNL     1      34.282 -20.407 -20.317  0.00  0.00    -0.000 C 
ATOM     28  C   UNL     1      36.610 -20.234 -19.695  0.00  0.00    -0.000 C 
ATOM     29  C   UNL     1      35.360 -20.835 -19.544  0.00  0.00    -0.000 C 
ENDBRANCH  23  24
ENDBRANCH  16  23
ENDBRANCH   1  17
TORSDOF 6
ENDMDL
MODEL 8
REMARK VINA RESULT:     -10.2      4.386     10.883
REMARK  Name = 1150567
REMARK  6 active torsions:
REMARK  status: ('A' for Active; 'I' for Inactive)
REMARK    1  A    between atoms: C_1  and  C_3
REMARK    2  A    between atoms: C_1  and  C_17
REMARK    3  A    between atoms: C_10  and  O_12
REMARK    4  A    between atoms: C_11  and  O_14
REMARK    5  A    between atoms: N_16  and  C_23
REMARK    6  A    between atoms: C_23  and  C_24
REMARK                            x       y       z     vdW  Elec       q    Type
REMARK                         _______ _______ _______ _____ _____    ______ ____
ROOT
ATOM      1  C   UNL     1      34.152 -13.447 -21.689  0.00  0.00    +0.008 C 
ENDROOT
BRANCH   1   3
ATOM      2  O   UNL     1      31.816 -12.080 -20.347  0.00  0.00    -0.291 OA
ATOM      3  C   UNL     1      32.950 -12.835 -22.382  0.00  0.00    +0.066 C 
ATOM      4  C   UNL     1      33.340 -12.004 -23.627  0.00  0.00    +0.034 C 
ATOM      5  C   UNL     1      32.229 -11.857 -21.472  0.00  0.00    +0.173 C 
ATOM      6  C   UNL     1      32.711 -10.669 -23.387  0.00  0.00    -0.016 C 
ATOM      7  C   UNL     1      32.084 -10.579 -22.151  0.00  0.00    +0.034 C 
ATOM      8  C   UNL     1      32.715  -9.573 -24.235  0.00  0.00    +0.036 C 
ATOM      9  C   UNL     1      31.449  -9.434 -21.709  0.00  0.00    +0.043 C 
ATOM     10  C   UNL     1      32.078  -8.400 -23.818  0.00  0.00    +0.172 C 
ATOM     11  C   UNL     1      31.451  -8.331 -22.563  0.00  0.00    +0.172 C 
BRANCH  10  12
ATOM     12  O   UNL     1      32.077  -7.316 -24.645  0.00  0.00    -0.468 OA
ATOM     13  C   UNL     1      33.291  -6.576 -24.744  0.00  0.00    +0.253 C 
ENDBRANCH  10  12
BRANCH  11  14
ATOM     14  O   UNL     1      30.836  -7.180 -22.166  0.00  0.00    -0.468 OA
ATOM     15  C   UNL     1      31.527  -6.371 -21.217  0.00  0.00    +0.253 C 
ENDBRANCH  11  14
ENDBRANCH   1   3
BRANCH   1  17
ATOM     16  N   UNL     1      35.743 -17.428 -22.213  0.00  0.00    +0.390 N 
ATOM     17  C   UNL     1      34.196 -14.959 -21.881  0.00  0.00    -0.004 C 
ATOM     18  C   UNL     1      34.883 -15.329 -23.199  0.00  0.00    -0.023 C 
ATOM     19  C   UNL     1      34.917 -15.642 -20.713  0.00  0.00    -0.023 C 
ATOM     20  C   UNL     1      35.020 -16.846 -23.350  0.00  0.00    -0.077 C 
ATOM     21  C   UNL     1      35.053 -17.148 -20.945  0.00  0.00    -0.077 C 
ATOM     22  H   UNL     1      36.665 -16.995 -22.171  0.00  0.00    -0.079 HD
BRANCH  16  23
ATOM     23  C   UNL     1      35.911 -18.869 -22.396  0.00  0.00    -0.050 C 
BRANCH  23  24
ATOM     24  C   UNL     1      35.256 -19.656 -21.292  0.00  0.00    -0.043 C 
ATOM     25  C   UNL     1      33.873 -19.777 -21.268  0.00  0.00    -0.006 C 
ATOM     26  C   UNL     1      36.043 -20.248 -20.314  0.00  0.00    -0.006 C 
ATOM     27  C   UNL     1      33.265 -20.506 -20.245  0.00  0.00    -0.000 C 
ATOM     28  C   UNL     1      35.434 -20.977 -19.291  0.00  0.00    -0.000 C 
ATOM     29  C   UNL     1      34.045 -21.106 -19.258  0.00  0.00    -0.000 C 
ENDBRANCH  23  24
ENDBRANCH  16  23
ENDBRANCH   1  17
TORSDOF 6
ENDMDL
MODEL 9
REMARK VINA RESULT:     -10.1      4.746     11.352
REMARK  Name = 1150567
REMARK  6 active torsions:
REMARK  status: ('A' for Active; 'I' for Inactive)
REMARK    1  A    between atoms: C_1  and  C_3
REMARK    2  A    between atoms: C_1  and  C_17
REMARK    3  A    between atoms: C_10  and  O_12
REMARK    4  A    between atoms: C_11  and  O_14
REMARK    5  A    between atoms: N_16  and  C_23
REMARK    6  A    between atoms: C_23  and  C_24
REMARK                            x       y       z     vdW  Elec       q    Type
REMARK                         _______ _______ _______ _____ _____    ______ ____
ROOT
ATOM      1  C   UNL     1      32.991 -13.407 -23.518  0.00  0.00    +0.008 C 
ENDROOT
BRANCH   1   3
ATOM      2  O   UNL     1      34.899 -11.187 -24.261  0.00  0.00    -0.291 OA
ATOM      3  C   UNL     1      33.290 -12.167 -22.698  0.00  0.00    +0.066 C 
ATOM      4  C   UNL     1      32.015 -11.524 -22.106  0.00  0.00    +0.034 C 
ATOM      5  C   UNL     1      33.914 -11.078 -23.553  0.00  0.00    +0.173 C 
ATOM      6  C   UNL     1      32.077 -10.102 -22.562  0.00  0.00    -0.016 C 
ATOM      7  C   UNL     1      33.156  -9.847 -23.399  0.00  0.00    +0.034 C 
ATOM      8  C   UNL     1      31.192  -9.080 -22.254  0.00  0.00    +0.036 C 
ATOM      9  C   UNL     1      33.404  -8.606 -23.953  0.00  0.00    +0.043 C 
ATOM     10  C   UNL     1      31.417  -7.811 -22.798  0.00  0.00    +0.172 C 
ATOM     11  C   UNL     1      32.515  -7.576 -23.642  0.00  0.00    +0.172 C 
BRANCH  10  12
ATOM     12  O   UNL     1      30.552  -6.800 -22.501  0.00  0.00    -0.468 OA
ATOM     13  C   UNL     1      30.899  -5.951 -21.410  0.00  0.00    +0.253 C 
ENDBRANCH  10  12
BRANCH  11  14
ATOM     14  O   UNL     1      32.722  -6.335 -24.168  0.00  0.00    -0.468 OA
ATOM     15  C   UNL     1      34.075  -5.905 -24.298  0.00  0.00    +0.253 C 
ENDBRANCH  11  14
ENDBRANCH   1   3
BRANCH   1  17
ATOM     16  N   UNL     1      34.911 -17.177 -22.650  0.00  0.00    +0.390 N 
ATOM     17  C   UNL     1      34.088 -14.455 -23.366  0.00  0.00    -0.004 C 
ATOM     18  C   UNL     1      34.204 -14.925 -21.912  0.00  0.00    -0.023 C 
ATOM     19  C   UNL     1      33.832 -15.659 -24.279  0.00  0.00    -0.023 C 
ATOM     20  C   UNL     1      35.233 -16.048 -21.769  0.00  0.00    -0.077 C 
ATOM     21  C   UNL     1      34.873 -16.758 -24.059  0.00  0.00    -0.077 C 
ATOM     22  H   UNL     1      33.983 -17.518 -22.399  0.00  0.00    -0.079 HD
BRANCH  16  23
ATOM     23  C   UNL     1      35.873 -18.263 -22.465  0.00  0.00    -0.050 C 
BRANCH  23  24
ATOM     24  C   UNL     1      35.426 -19.236 -21.407  0.00  0.00    -0.043 C 
ATOM     25  C   UNL     1      34.079 -19.556 -21.300  0.00  0.00    -0.006 C 
ATOM     26  C   UNL     1      36.364 -19.796 -20.553  0.00  0.00    -0.006 C 
ATOM     27  C   UNL     1      33.663 -20.457 -20.319  0.00  0.00    -0.000 C 
ATOM     28  C   UNL     1      35.948 -20.698 -19.572  0.00  0.00    -0.000 C 
ATOM     29  C   UNL     1      34.597 -21.028 -19.456  0.00  0.00    -0.000 C 
ENDBRANCH  23  24
ENDBRANCH  16  23
ENDBRANCH   1  17
TORSDOF 6
ENDMDL
