MODEL 1
REMARK VINA RESULT:     -10.8      0.000      0.000
REMARK  Name = 57855696
REMARK  10 active torsions:
REMARK  status: ('A' for Active; 'I' for Inactive)
REMARK    1  A    between atoms: C_3  and  C_6
REMARK    2  A    between atoms: C_4  and  C_20
REMARK    3  A    between atoms: C_7  and  O_12
REMARK    4  A    between atoms: C_9  and  O_16
REMARK    5  A    between atoms: O_12  and  C_13
REMARK    6  A    between atoms: O_16  and  C_19
REMARK    7  A    between atoms: C_20  and  N_22
REMARK    8  A    between atoms: C_23  and  C_25
REMARK    9  A    between atoms: C_26  and  O_31
REMARK   10  A    between atoms: O_31  and  C_32
REMARK                            x       y       z     vdW  Elec       q    Type
REMARK                         _______ _______ _______ _____ _____    ______ ____
ROOT
ATOM      1  O   UNL     1      36.799 -18.672 -20.234  0.00  0.00    -0.444 OA
ATOM      2  N   UNL     1      35.019 -19.887 -20.920  0.00  0.00    -0.371 NA
ATOM      3  C   UNL     1      35.656 -18.739 -20.971  0.00  0.00    +0.277 C 
ATOM      4  C   UNL     1      35.803 -20.640 -20.083  0.00  0.00    +0.154 C 
ATOM      5  C   UNL     1      36.885 -19.906 -19.665  0.00  0.00    +0.264 C 
ENDROOT
BRANCH   3   6
ATOM      6  C   UNL     1      35.318 -17.538 -21.695  0.00  0.00    +0.069 C 
ATOM      7  C   UNL     1      34.585 -15.236 -21.705  0.00  0.00    +0.172 C 
ATOM      8  C   UNL     1      34.912 -16.397 -21.004  0.00  0.00    +0.046 C 
ATOM      9  C   UNL     1      34.664 -15.217 -23.098  0.00  0.00    +0.178 C 
ATOM     10  C   UNL     1      35.397 -17.520 -23.088  0.00  0.00    +0.009 C 
ATOM     11  C   UNL     1      35.070 -16.359 -23.789  0.00  0.00    +0.040 C 
BRANCH   7  12
ATOM     12  O   UNL     1      34.189 -14.128 -21.020  0.00  0.00    -0.476 OA
BRANCH  12  13
ATOM     13  C   UNL     1      32.785 -13.910 -20.895  0.00  0.00    +0.166 C 
ATOM     14  C   UNL     1      32.339 -14.311 -19.497  0.00  0.00    +0.047 C 
ATOM     15  C   UNL     1      32.476 -12.450 -21.192  0.00  0.00    +0.047 C 
ENDBRANCH  12  13
ENDBRANCH   7  12
BRANCH   9  16
ATOM     16  O   UNL     1      34.347 -14.090 -23.794  0.00  0.00    -0.421 OA
BRANCH  16  19
ATOM     17  F   UNL     1      32.738 -12.838 -24.728  0.00  0.00    -0.155 F 
ATOM     18  F   UNL     1      33.462 -14.573 -25.822  0.00  0.00    -0.155 F 
ATOM     19  C   UNL     1      33.161 -14.119 -24.579  0.00  0.00    +0.509 C 
ENDBRANCH  16  19
ENDBRANCH   9  16
ENDBRANCH   3   6
BRANCH   4  20
ATOM     20  C   UNL     1      35.444 -22.025 -19.748  0.00  0.00    +0.149 C 
BRANCH  20  22
ATOM     21  O   UNL     1      33.836 -24.216 -18.821  0.00  0.00    -0.270 OA
ATOM     22  N   UNL     1      34.829 -22.155 -18.442  0.00  0.00    -0.295 N 
ATOM     23  C   UNL     1      34.069 -23.256 -18.090  0.00  0.00    +0.249 C 
ATOM     24  H   UNL     1      34.958 -21.435 -17.782  0.00  0.00    +0.150 HD
BRANCH  23  25
ATOM     25  C   UNL     1      33.485 -23.226 -16.724  0.00  0.00    +0.087 C 
ATOM     26  C   UNL     1      34.261 -23.532 -15.607  0.00  0.00    +0.143 C 
ATOM     27  C   UNL     1      32.142 -22.885 -16.569  0.00  0.00    +0.008 C 
ATOM     28  C   UNL     1      33.694 -23.498 -14.333  0.00  0.00    +0.037 C 
ATOM     29  C   UNL     1      31.573 -22.851 -15.295  0.00  0.00    +0.000 C 
ATOM     30  C   UNL     1      32.350 -23.157 -14.177  0.00  0.00    +0.003 C 
BRANCH  26  31
ATOM     31  O   UNL     1      35.575 -23.867 -15.738  0.00  0.00    -0.475 OA
BRANCH  31  32
ATOM     32  C   UNL     1      36.516 -23.114 -14.974  0.00  0.00    +0.206 C 
ATOM     33  C   UNL     1      37.023 -21.962 -15.814  0.00  0.00    +0.051 C 
ENDBRANCH  31  32
ENDBRANCH  26  31
ENDBRANCH  23  25
ENDBRANCH  20  22
ENDBRANCH   4  20
TORSDOF 10
ENDMDL
MODEL 2
REMARK VINA RESULT:     -10.5      3.761      9.819
REMARK  Name = 57855696
REMARK  10 active torsions:
REMARK  status: ('A' for Active; 'I' for Inactive)
REMARK    1  A    between atoms: C_3  and  C_6
REMARK    2  A    between atoms: C_4  and  C_20
REMARK    3  A    between atoms: C_7  and  O_12
REMARK    4  A    between atoms: C_9  and  O_16
REMARK    5  A    between atoms: O_12  and  C_13
REMARK    6  A    between atoms: O_16  and  C_19
REMARK    7  A    between atoms: C_20  and  N_22
REMARK    8  A    between atoms: C_23  and  C_25
REMARK    9  A    between atoms: C_26  and  O_31
REMARK   10  A    between atoms: O_31  and  C_32
REMARK                            x       y       z     vdW  Elec       q    Type
REMARK                         _______ _______ _______ _____ _____    ______ ____
ROOT
ATOM      1  O   UNL     1      36.323 -18.924 -20.709  0.00  0.00    -0.444 OA
ATOM      2  N   UNL     1      34.425 -18.840 -21.936  0.00  0.00    -0.371 NA
ATOM      3  C   UNL     1      35.059 -19.383 -20.921  0.00  0.00    +0.277 C 
ATOM      4  C   UNL     1      35.342 -17.950 -22.435  0.00  0.00    +0.154 C 
ATOM      5  C   UNL     1      36.495 -17.998 -21.692  0.00  0.00    +0.264 C 
ENDROOT
BRANCH   3   6
ATOM      6  C   UNL     1      34.607 -20.397 -20.000  0.00  0.00    +0.069 C 
ATOM      7  C   UNL     1      35.092 -22.062 -18.318  0.00  0.00    +0.172 C 
ATOM      8  C   UNL     1      35.529 -21.081 -19.208  0.00  0.00    +0.046 C 
ATOM      9  C   UNL     1      33.733 -22.359 -18.220  0.00  0.00    +0.178 C 
ATOM     10  C   UNL     1      33.248 -20.694 -19.903  0.00  0.00    +0.009 C 
ATOM     11  C   UNL     1      32.810 -21.675 -19.012  0.00  0.00    +0.040 C 
BRANCH   7  12
ATOM     12  O   UNL     1      36.002 -22.723 -17.550  0.00  0.00    -0.476 OA
BRANCH  12  13
ATOM     13  C   UNL     1      36.191 -22.252 -16.217  0.00  0.00    +0.166 C 
ATOM     14  C   UNL     1      36.244 -23.440 -15.269  0.00  0.00    +0.047 C 
ATOM     15  C   UNL     1      37.462 -21.418 -16.155  0.00  0.00    +0.047 C 
ENDBRANCH  12  13
ENDBRANCH   7  12
BRANCH   9  16
ATOM     16  O   UNL     1      33.294 -23.315 -17.354  0.00  0.00    -0.421 OA
BRANCH  16  19
ATOM     17  F   UNL     1      31.512 -23.951 -16.149  0.00  0.00    -0.155 F 
ATOM     18  F   UNL     1      33.023 -22.717 -15.186  0.00  0.00    -0.155 F 
ATOM     19  C   UNL     1      32.363 -22.913 -16.355  0.00  0.00    +0.509 C 
ENDBRANCH  16  19
ENDBRANCH   9  16
ENDBRANCH   3   6
BRANCH   4  20
ATOM     20  C   UNL     1      35.032 -17.112 -23.601  0.00  0.00    +0.149 C 
BRANCH  20  22
ATOM     21  O   UNL     1      33.514 -15.318 -25.250  0.00  0.00    -0.270 OA
ATOM     22  N   UNL     1      34.580 -15.783 -23.245  0.00  0.00    -0.295 N 
ATOM     23  C   UNL     1      33.850 -14.993 -24.114  0.00  0.00    +0.249 C 
ATOM     24  H   UNL     1      34.799 -15.430 -22.352  0.00  0.00    +0.150 HD
BRANCH  23  25
ATOM     25  C   UNL     1      33.485 -13.644 -23.608  0.00  0.00    +0.087 C 
ATOM     26  C   UNL     1      32.952 -13.479 -22.330  0.00  0.00    +0.143 C 
ATOM     27  C   UNL     1      33.682 -12.536 -24.431  0.00  0.00    +0.008 C 
ATOM     28  C   UNL     1      32.616 -12.204 -21.874  0.00  0.00    +0.037 C 
ATOM     29  C   UNL     1      33.346 -11.260 -23.976  0.00  0.00    +0.000 C 
ATOM     30  C   UNL     1      32.813 -11.095 -22.696  0.00  0.00    +0.003 C 
BRANCH  26  31
ATOM     31  O   UNL     1      32.752 -14.550 -21.512  0.00  0.00    -0.475 OA
BRANCH  31  32
ATOM     32  C   UNL     1      33.199 -14.427 -20.163  0.00  0.00    +0.206 C 
ATOM     33  C   UNL     1      34.618 -14.947 -20.065  0.00  0.00    +0.051 C 
ENDBRANCH  31  32
ENDBRANCH  26  31
ENDBRANCH  23  25
ENDBRANCH  20  22
ENDBRANCH   4  20
TORSDOF 10
ENDMDL
MODEL 3
REMARK VINA RESULT:     -10.4      3.817      9.780
REMARK  Name = 57855696
REMARK  10 active torsions:
REMARK  status: ('A' for Active; 'I' for Inactive)
REMARK    1  A    between atoms: C_3  and  C_6
REMARK    2  A    between atoms: C_4  and  C_20
REMARK    3  A    between atoms: C_7  and  O_12
REMARK    4  A    between atoms: C_9  and  O_16
REMARK    5  A    between atoms: O_12  and  C_13
REMARK    6  A    between atoms: O_16  and  C_19
REMARK    7  A    between atoms: C_20  and  N_22
REMARK    8  A    between atoms: C_23  and  C_25
REMARK    9  A    between atoms: C_26  and  O_31
REMARK   10  A    between atoms: O_31  and  C_32
REMARK                            x       y       z     vdW  Elec       q    Type
REMARK                         _______ _______ _______ _____ _____    ______ ____
ROOT
ATOM      1  O   UNL     1      34.435 -20.059 -22.120  0.00  0.00    -0.444 OA
ATOM      2  N   UNL     1      35.238 -18.495 -20.697  0.00  0.00    -0.371 NA
ATOM      3  C   UNL     1      34.701 -19.686 -20.838  0.00  0.00    +0.277 C 
ATOM      4  C   UNL     1      35.336 -18.045 -21.989  0.00  0.00    +0.154 C 
ATOM      5  C   UNL     1      34.851 -18.992 -22.856  0.00  0.00    +0.264 C 
ENDROOT
BRANCH   3   6
ATOM      6  C   UNL     1      34.350 -20.654 -19.828  0.00  0.00    +0.069 C 
ATOM      7  C   UNL     1      35.009 -22.203 -18.095  0.00  0.00    +0.172 C 
ATOM      8  C   UNL     1      35.349 -21.266 -19.071  0.00  0.00    +0.046 C 
ATOM      9  C   UNL     1      33.671 -22.528 -17.876  0.00  0.00    +0.178 C 
ATOM     10  C   UNL     1      33.011 -20.979 -19.610  0.00  0.00    +0.009 C 
ATOM     11  C   UNL     1      32.671 -21.916 -18.633  0.00  0.00    +0.040 C 
BRANCH   7  12
ATOM     12  O   UNL     1      35.993 -22.794 -17.363  0.00  0.00    -0.476 OA
BRANCH  12  13
ATOM     13  C   UNL     1      36.247 -22.259 -16.065  0.00  0.00    +0.166 C 
ATOM     14  C   UNL     1      36.320 -23.398 -15.059  0.00  0.00    +0.047 C 
ATOM     15  C   UNL     1      37.533 -21.448 -16.099  0.00  0.00    +0.047 C 
ENDBRANCH  12  13
ENDBRANCH   7  12
BRANCH   9  16
ATOM     16  O   UNL     1      33.326 -23.441 -16.926  0.00  0.00    -0.421 OA
BRANCH  16  19
ATOM     17  F   UNL     1      31.604 -24.145 -15.674  0.00  0.00    -0.155 F 
ATOM     18  F   UNL     1      32.974 -22.689 -14.818  0.00  0.00    -0.155 F 
ATOM     19  C   UNL     1      32.350 -23.050 -15.967  0.00  0.00    +0.509 C 
ENDBRANCH  16  19
ENDBRANCH   9  16
ENDBRANCH   3   6
BRANCH   4  20
ATOM     20  C   UNL     1      35.899 -16.721 -22.292  0.00  0.00    +0.149 C 
BRANCH  20  22
ATOM     21  O   UNL     1      34.960 -15.362 -19.944  0.00  0.00    -0.270 OA
ATOM     22  N   UNL     1      34.915 -15.659 -22.243  0.00  0.00    -0.295 N 
ATOM     23  C   UNL     1      34.528 -15.065 -21.055  0.00  0.00    +0.249 C 
ATOM     24  H   UNL     1      34.508 -15.348 -23.084  0.00  0.00    +0.150 HD
BRANCH  23  25
ATOM     25  C   UNL     1      33.489 -14.009 -21.170  0.00  0.00    +0.087 C 
ATOM     26  C   UNL     1      33.283 -13.335 -22.374  0.00  0.00    +0.143 C 
ATOM     27  C   UNL     1      32.714 -13.696 -20.054  0.00  0.00    +0.008 C 
ATOM     28  C   UNL     1      32.303 -12.347 -22.461  0.00  0.00    +0.037 C 
ATOM     29  C   UNL     1      31.733 -12.707 -20.140  0.00  0.00    +0.000 C 
ATOM     30  C   UNL     1      31.528 -12.033 -21.345  0.00  0.00    +0.003 C 
BRANCH  26  31
ATOM     31  O   UNL     1      34.030 -13.627 -23.475  0.00  0.00    -0.475 OA
BRANCH  31  32
ATOM     32  C   UNL     1      33.349 -13.668 -24.728  0.00  0.00    +0.206 C 
ATOM     33  C   UNL     1      33.316 -15.098 -25.224  0.00  0.00    +0.051 C 
ENDBRANCH  31  32
ENDBRANCH  26  31
ENDBRANCH  23  25
ENDBRANCH  20  22
ENDBRANCH   4  20
TORSDOF 10
ENDMDL
MODEL 4
REMARK VINA RESULT:     -10.3      1.656      2.791
REMARK  Name = 57855696
REMARK  10 active torsions:
REMARK  status: ('A' for Active; 'I' for Inactive)
REMARK    1  A    between atoms: C_3  and  C_6
REMARK    2  A    between atoms: C_4  and  C_20
REMARK    3  A    between atoms: C_7  and  O_12
REMARK    4  A    between atoms: C_9  and  O_16
REMARK    5  A    between atoms: O_12  and  C_13
REMARK    6  A    between atoms: O_16  and  C_19
REMARK    7  A    between atoms: C_20  and  N_22
REMARK    8  A    between atoms: C_23  and  C_25
REMARK    9  A    between atoms: C_26  and  O_31
REMARK   10  A    between atoms: O_31  and  C_32
REMARK                            x       y       z     vdW  Elec       q    Type
REMARK                         _______ _______ _______ _____ _____    ______ ____
ROOT
ATOM      1  O   UNL     1      34.236 -20.610 -20.342  0.00  0.00    -0.444 OA
ATOM      2  N   UNL     1      36.382 -20.065 -19.880  0.00  0.00    -0.371 NA
ATOM      3  C   UNL     1      35.328 -19.851 -20.635  0.00  0.00    +0.277 C 
ATOM      4  C   UNL     1      35.954 -21.043 -19.020  0.00  0.00    +0.154 C 
ATOM      5  C   UNL     1      34.651 -21.376 -19.296  0.00  0.00    +0.264 C 
ENDROOT
BRANCH   3   6
ATOM      6  C   UNL     1      35.161 -18.927 -21.730  0.00  0.00    +0.069 C 
ATOM      7  C   UNL     1      35.209 -16.670 -22.590  0.00  0.00    +0.172 C 
ATOM      8  C   UNL     1      35.371 -17.563 -21.531  0.00  0.00    +0.046 C 
ATOM      9  C   UNL     1      34.838 -17.142 -23.849  0.00  0.00    +0.178 C 
ATOM     10  C   UNL     1      34.789 -19.399 -22.989  0.00  0.00    +0.009 C 
ATOM     11  C   UNL     1      34.627 -18.507 -24.049  0.00  0.00    +0.040 C 
BRANCH   7  12
ATOM     12  O   UNL     1      35.416 -15.340 -22.384  0.00  0.00    -0.476 OA
BRANCH  12  13
ATOM     13  C   UNL     1      34.335 -14.594 -21.828  0.00  0.00    +0.166 C 
ATOM     14  C   UNL     1      34.586 -14.380 -20.343  0.00  0.00    +0.047 C 
ATOM     15  C   UNL     1      34.198 -13.276 -22.575  0.00  0.00    +0.047 C 
ENDBRANCH  12  13
ENDBRANCH   7  12
BRANCH   9  16
ATOM     16  O   UNL     1      34.676 -16.280 -24.892  0.00  0.00    -0.421 OA
BRANCH  16  19
ATOM     17  F   UNL     1      33.498 -14.750 -26.032  0.00  0.00    -0.155 F 
ATOM     18  F   UNL     1      32.531 -16.632 -25.527  0.00  0.00    -0.155 F 
ATOM     19  C   UNL     1      33.392 -15.693 -25.061  0.00  0.00    +0.509 C 
ENDBRANCH  16  19
ENDBRANCH   9  16
ENDBRANCH   3   6
BRANCH   4  20
ATOM     20  C   UNL     1      36.844 -21.587 -17.984  0.00  0.00    +0.149 C 
BRANCH  20  22
ATOM     21  O   UNL     1      38.001 -22.798 -15.653  0.00  0.00    -0.270 OA
ATOM     22  N   UNL     1      36.129 -22.146 -16.854  0.00  0.00    -0.295 N 
ATOM     23  C   UNL     1      36.782 -22.710 -15.773  0.00  0.00    +0.249 C 
ATOM     24  H   UNL     1      35.144 -22.122 -16.856  0.00  0.00    +0.150 HD
BRANCH  23  25
ATOM     25  C   UNL     1      35.906 -23.263 -14.708  0.00  0.00    +0.087 C 
ATOM     26  C   UNL     1      34.667 -23.823 -15.018  0.00  0.00    +0.143 C 
ATOM     27  C   UNL     1      36.340 -23.217 -13.383  0.00  0.00    +0.008 C 
ATOM     28  C   UNL     1      33.860 -24.336 -14.003  0.00  0.00    +0.037 C 
ATOM     29  C   UNL     1      35.533 -23.731 -12.366  0.00  0.00    +0.000 C 
ATOM     30  C   UNL     1      34.293 -24.291 -12.678  0.00  0.00    +0.003 C 
BRANCH  26  31
ATOM     31  O   UNL     1      34.227 -23.876 -16.306  0.00  0.00    -0.475 OA
BRANCH  31  32
ATOM     32  C   UNL     1      32.815 -23.920 -16.506  0.00  0.00    +0.206 C 
ATOM     33  C   UNL     1      32.324 -22.533 -16.860  0.00  0.00    +0.051 C 
ENDBRANCH  31  32
ENDBRANCH  26  31
ENDBRANCH  23  25
ENDBRANCH  20  22
ENDBRANCH   4  20
TORSDOF 10
ENDMDL
MODEL 5
REMARK VINA RESULT:     -10.3      1.941      2.667
REMARK  Name = 57855696
REMARK  10 active torsions:
REMARK  status: ('A' for Active; 'I' for Inactive)
REMARK    1  A    between atoms: C_3  and  C_6
REMARK    2  A    between atoms: C_4  and  C_20
REMARK    3  A    between atoms: C_7  and  O_12
REMARK    4  A    between atoms: C_9  and  O_16
REMARK    5  A    between atoms: O_12  and  C_13
REMARK    6  A    between atoms: O_16  and  C_19
REMARK    7  A    between atoms: C_20  and  N_22
REMARK    8  A    between atoms: C_23  and  C_25
REMARK    9  A    between atoms: C_26  and  O_31
REMARK   10  A    between atoms: O_31  and  C_32
REMARK                            x       y       z     vdW  Elec       q    Type
REMARK                         _______ _______ _______ _____ _____    ______ ____
ROOT
ATOM      1  O   UNL     1      34.178 -20.627 -20.331  0.00  0.00    -0.444 OA
ATOM      2  N   UNL     1      36.327 -20.106 -19.855  0.00  0.00    -0.371 NA
ATOM      3  C   UNL     1      35.280 -19.880 -20.616  0.00  0.00    +0.277 C 
ATOM      4  C   UNL     1      35.882 -21.080 -18.997  0.00  0.00    +0.154 C 
ATOM      5  C   UNL     1      34.578 -21.398 -19.282  0.00  0.00    +0.264 C 
ENDROOT
BRANCH   3   6
ATOM      6  C   UNL     1      35.130 -18.954 -21.712  0.00  0.00    +0.069 C 
ATOM      7  C   UNL     1      35.204 -16.697 -22.570  0.00  0.00    +0.172 C 
ATOM      8  C   UNL     1      35.350 -17.592 -21.510  0.00  0.00    +0.046 C 
ATOM      9  C   UNL     1      34.839 -17.165 -23.832  0.00  0.00    +0.178 C 
ATOM     10  C   UNL     1      34.764 -19.422 -22.974  0.00  0.00    +0.009 C 
ATOM     11  C   UNL     1      34.619 -18.528 -24.034  0.00  0.00    +0.040 C 
BRANCH   7  12
ATOM     12  O   UNL     1      35.422 -15.369 -22.361  0.00  0.00    -0.476 OA
BRANCH  12  13
ATOM     13  C   UNL     1      34.341 -14.613 -21.818  0.00  0.00    +0.166 C 
ATOM     14  C   UNL     1      34.563 -14.422 -20.326  0.00  0.00    +0.047 C 
ATOM     15  C   UNL     1      34.240 -13.284 -22.552  0.00  0.00    +0.047 C 
ENDBRANCH  12  13
ENDBRANCH   7  12
BRANCH   9  16
ATOM     16  O   UNL     1      34.694 -16.301 -24.876  0.00  0.00    -0.421 OA
BRANCH  16  19
ATOM     17  F   UNL     1      33.546 -14.740 -26.005  0.00  0.00    -0.155 F 
ATOM     18  F   UNL     1      32.551 -16.617 -25.538  0.00  0.00    -0.155 F 
ATOM     19  C   UNL     1      33.419 -15.695 -25.049  0.00  0.00    +0.509 C 
ENDBRANCH  16  19
ENDBRANCH   9  16
ENDBRANCH   3   6
BRANCH   4  20
ATOM     20  C   UNL     1      36.760 -21.633 -17.956  0.00  0.00    +0.149 C 
BRANCH  20  22
ATOM     21  O   UNL     1      37.892 -22.767 -15.574  0.00  0.00    -0.270 OA
ATOM     22  N   UNL     1      36.033 -22.171 -16.824  0.00  0.00    -0.295 N 
ATOM     23  C   UNL     1      36.674 -22.697 -15.717  0.00  0.00    +0.249 C 
ATOM     24  H   UNL     1      35.048 -22.161 -16.844  0.00  0.00    +0.150 HD
BRANCH  23  25
ATOM     25  C   UNL     1      35.786 -23.233 -14.653  0.00  0.00    +0.087 C 
ATOM     26  C   UNL     1      36.299 -23.594 -13.407  0.00  0.00    +0.143 C 
ATOM     27  C   UNL     1      34.423 -23.372 -14.914  0.00  0.00    +0.008 C 
ATOM     28  C   UNL     1      35.449 -24.095 -12.422  0.00  0.00    +0.037 C 
ATOM     29  C   UNL     1      33.572 -23.873 -13.928  0.00  0.00    +0.000 C 
ATOM     30  C   UNL     1      34.086 -24.234 -12.682  0.00  0.00    +0.003 C 
BRANCH  26  31
ATOM     31  O   UNL     1      37.628 -23.466 -13.134  0.00  0.00    -0.475 OA
BRANCH  31  32
ATOM     32  C   UNL     1      38.240 -24.516 -12.388  0.00  0.00    +0.206 C 
ATOM     33  C   UNL     1      38.971 -25.437 -13.341  0.00  0.00    +0.051 C 
ENDBRANCH  31  32
ENDBRANCH  26  31
ENDBRANCH  23  25
ENDBRANCH  20  22
ENDBRANCH   4  20
TORSDOF 10
ENDMDL
MODEL 6
REMARK VINA RESULT:     -10.2      4.368     10.170
REMARK  Name = 57855696
REMARK  10 active torsions:
REMARK  status: ('A' for Active; 'I' for Inactive)
REMARK    1  A    between atoms: C_3  and  C_6
REMARK    2  A    between atoms: C_4  and  C_20
REMARK    3  A    between atoms: C_7  and  O_12
REMARK    4  A    between atoms: C_9  and  O_16
REMARK    5  A    between atoms: O_12  and  C_13
REMARK    6  A    between atoms: O_16  and  C_19
REMARK    7  A    between atoms: C_20  and  N_22
REMARK    8  A    between atoms: C_23  and  C_25
REMARK    9  A    between atoms: C_26  and  O_31
REMARK   10  A    between atoms: O_31  and  C_32
REMARK                            x       y       z     vdW  Elec       q    Type
REMARK                         _______ _______ _______ _____ _____    ______ ____
ROOT
ATOM      1  O   UNL     1      34.523 -20.872 -20.065  0.00  0.00    -0.444 OA
ATOM      2  N   UNL     1      36.581 -20.072 -19.574  0.00  0.00    -0.371 NA
ATOM      3  C   UNL     1      35.588 -20.857 -19.218  0.00  0.00    +0.277 C 
ATOM      4  C   UNL     1      36.136 -19.525 -20.751  0.00  0.00    +0.154 C 
ATOM      5  C   UNL     1      34.887 -20.008 -21.053  0.00  0.00    +0.264 C 
ENDROOT
BRANCH   3   6
ATOM      6  C   UNL     1      35.466 -21.705 -18.058  0.00  0.00    +0.069 C 
ATOM      7  C   UNL     1      34.135 -23.149 -16.652  0.00  0.00    +0.172 C 
ATOM      8  C   UNL     1      34.252 -22.330 -17.775  0.00  0.00    +0.046 C 
ATOM      9  C   UNL     1      35.231 -23.343 -15.812  0.00  0.00    +0.178 C 
ATOM     10  C   UNL     1      36.563 -21.898 -17.218  0.00  0.00    +0.009 C 
ATOM     11  C   UNL     1      36.446 -22.717 -16.095  0.00  0.00    +0.040 C 
BRANCH   7  12
ATOM     12  O   UNL     1      32.944 -23.755 -16.386  0.00  0.00    -0.476 OA
BRANCH  12  13
ATOM     13  C   UNL     1      32.037 -23.056 -15.535  0.00  0.00    +0.166 C 
ATOM     14  C   UNL     1      30.773 -22.727 -16.313  0.00  0.00    +0.047 C 
ATOM     15  C   UNL     1      31.744 -23.907 -14.308  0.00  0.00    +0.047 C 
ENDBRANCH  12  13
ENDBRANCH   7  12
BRANCH   9  16
ATOM     16  O   UNL     1      35.129 -24.141 -14.713  0.00  0.00    -0.421 OA
BRANCH  16  19
ATOM     17  F   UNL     1      36.355 -25.117 -13.109  0.00  0.00    -0.155 F 
ATOM     18  F   UNL     1      35.854 -26.280 -14.877  0.00  0.00    -0.155 F 
ATOM     19  C   UNL     1      36.202 -25.039 -14.455  0.00  0.00    +0.509 C 
ENDBRANCH  16  19
ENDBRANCH   9  16
ENDBRANCH   3   6
BRANCH   4  20
ATOM     20  C   UNL     1      36.960 -18.567 -21.502  0.00  0.00    +0.149 C 
BRANCH  20  22
ATOM     21  O   UNL     1      35.230 -16.461 -20.600  0.00  0.00    -0.270 OA
ATOM     22  N   UNL     1      36.179 -17.673 -22.333  0.00  0.00    -0.295 N 
ATOM     23  C   UNL     1      35.372 -16.685 -21.799  0.00  0.00    +0.249 C 
ATOM     24  H   UNL     1      36.226 -17.771 -23.312  0.00  0.00    +0.150 HD
BRANCH  23  25
ATOM     25  C   UNL     1      34.616 -15.868 -22.784  0.00  0.00    +0.087 C 
ATOM     26  C   UNL     1      34.102 -14.620 -22.435  0.00  0.00    +0.143 C 
ATOM     27  C   UNL     1      34.423 -16.367 -24.072  0.00  0.00    +0.008 C 
ATOM     28  C   UNL     1      33.395 -13.869 -23.374  0.00  0.00    +0.037 C 
ATOM     29  C   UNL     1      33.715 -15.617 -25.012  0.00  0.00    +0.000 C 
ATOM     30  C   UNL     1      33.202 -14.367 -24.662  0.00  0.00    +0.003 C 
BRANCH  26  31
ATOM     31  O   UNL     1      34.280 -14.116 -21.181  0.00  0.00    -0.475 OA
BRANCH  31  32
ATOM     32  C   UNL     1      33.178 -13.419 -20.601  0.00  0.00    +0.206 C 
ATOM     33  C   UNL     1      32.420 -14.364 -19.694  0.00  0.00    +0.051 C 
ENDBRANCH  31  32
ENDBRANCH  26  31
ENDBRANCH  23  25
ENDBRANCH  20  22
ENDBRANCH   4  20
TORSDOF 10
ENDMDL
MODEL 7
REMARK VINA RESULT:     -10.0      4.762     10.451
REMARK  Name = 57855696
REMARK  10 active torsions:
REMARK  status: ('A' for Active; 'I' for Inactive)
REMARK    1  A    between atoms: C_3  and  C_6
REMARK    2  A    between atoms: C_4  and  C_20
REMARK    3  A    between atoms: C_7  and  O_12
REMARK    4  A    between atoms: C_9  and  O_16
REMARK    5  A    between atoms: O_12  and  C_13
REMARK    6  A    between atoms: O_16  and  C_19
REMARK    7  A    between atoms: C_20  and  N_22
REMARK    8  A    between atoms: C_23  and  C_25
REMARK    9  A    between atoms: C_26  and  O_31
REMARK   10  A    between atoms: O_31  and  C_32
REMARK                            x       y       z     vdW  Elec       q    Type
REMARK                         _______ _______ _______ _____ _____    ______ ____
ROOT
ATOM      1  O   UNL     1      32.814 -21.700 -18.450  0.00  0.00    -0.444 OA
ATOM      2  N   UNL     1      35.044 -21.621 -18.825  0.00  0.00    -0.371 NA
ATOM      3  C   UNL     1      34.073 -21.998 -18.023  0.00  0.00    +0.277 C 
ATOM      4  C   UNL     1      34.374 -21.027 -19.865  0.00  0.00    +0.154 C 
ATOM      5  C   UNL     1      33.021 -21.074 -19.641  0.00  0.00    +0.264 C 
ENDROOT
BRANCH   3   6
ATOM      6  C   UNL     1      34.149 -22.680 -16.755  0.00  0.00    +0.069 C 
ATOM      7  C   UNL     1      33.071 -23.873 -14.952  0.00  0.00    +0.172 C 
ATOM      8  C   UNL     1      32.996 -23.213 -16.179  0.00  0.00    +0.046 C 
ATOM      9  C   UNL     1      34.298 -24.000 -14.302  0.00  0.00    +0.178 C 
ATOM     10  C   UNL     1      35.377 -22.807 -16.105  0.00  0.00    +0.009 C 
ATOM     11  C   UNL     1      35.452 -23.467 -14.879  0.00  0.00    +0.040 C 
BRANCH   7  12
ATOM     12  O   UNL     1      31.938 -24.388 -14.398  0.00  0.00    -0.476 OA
BRANCH  12  13
ATOM     13  C   UNL     1      30.703 -24.081 -15.044  0.00  0.00    +0.166 C 
ATOM     14  C   UNL     1      29.796 -25.301 -14.993  0.00  0.00    +0.047 C 
ATOM     15  C   UNL     1      30.070 -22.875 -14.368  0.00  0.00    +0.047 C 
ENDBRANCH  12  13
ENDBRANCH   7  12
BRANCH   9  16
ATOM     16  O   UNL     1      34.383 -24.643 -13.103  0.00  0.00    -0.421 OA
BRANCH  16  19
ATOM     17  F   UNL     1      35.277 -24.450 -11.056  0.00  0.00    -0.155 F 
ATOM     18  F   UNL     1      36.347 -25.622 -12.543  0.00  0.00    -0.155 F 
ATOM     19  C   UNL     1      35.597 -24.504 -12.374  0.00  0.00    +0.509 C 
ENDBRANCH  16  19
ENDBRANCH   9  16
ENDBRANCH   3   6
BRANCH   4  20
ATOM     20  C   UNL     1      35.100 -20.456 -21.008  0.00  0.00    +0.149 C 
BRANCH  20  22
ATOM     21  O   UNL     1      36.823 -18.191 -20.625  0.00  0.00    -0.270 OA
ATOM     22  N   UNL     1      34.771 -19.067 -21.255  0.00  0.00    -0.295 N 
ATOM     23  C   UNL     1      35.676 -18.043 -21.038  0.00  0.00    +0.249 C 
ATOM     24  H   UNL     1      33.872 -18.843 -21.590  0.00  0.00    +0.150 HD
BRANCH  23  25
ATOM     25  C   UNL     1      35.176 -16.671 -21.314  0.00  0.00    +0.087 C 
ATOM     26  C   UNL     1      35.020 -16.216 -22.623  0.00  0.00    +0.143 C 
ATOM     27  C   UNL     1      34.861 -15.837 -20.242  0.00  0.00    +0.008 C 
ATOM     28  C   UNL     1      34.550 -14.924 -22.860  0.00  0.00    +0.037 C 
ATOM     29  C   UNL     1      34.390 -14.545 -20.479  0.00  0.00    +0.000 C 
ATOM     30  C   UNL     1      34.234 -14.089 -21.789  0.00  0.00    +0.003 C 
BRANCH  26  31
ATOM     31  O   UNL     1      35.323 -17.016 -23.683  0.00  0.00    -0.475 OA
BRANCH  31  32
ATOM     32  C   UNL     1      34.274 -17.289 -24.610  0.00  0.00    +0.206 C 
ATOM     33  C   UNL     1      33.881 -18.746 -24.494  0.00  0.00    +0.051 C 
ENDBRANCH  31  32
ENDBRANCH  26  31
ENDBRANCH  23  25
ENDBRANCH  20  22
ENDBRANCH   4  20
TORSDOF 10
ENDMDL
MODEL 8
REMARK VINA RESULT:      -9.9      4.831     10.880
REMARK  Name = 57855696
REMARK  10 active torsions:
REMARK  status: ('A' for Active; 'I' for Inactive)
REMARK    1  A    between atoms: C_3  and  C_6
REMARK    2  A    between atoms: C_4  and  C_20
REMARK    3  A    between atoms: C_7  and  O_12
REMARK    4  A    between atoms: C_9  and  O_16
REMARK    5  A    between atoms: O_12  and  C_13
REMARK    6  A    between atoms: O_16  and  C_19
REMARK    7  A    between atoms: C_20  and  N_22
REMARK    8  A    between atoms: C_23  and  C_25
REMARK    9  A    between atoms: C_26  and  O_31
REMARK   10  A    between atoms: O_31  and  C_32
REMARK                            x       y       z     vdW  Elec       q    Type
REMARK                         _______ _______ _______ _____ _____    ______ ____
ROOT
ATOM      1  O   UNL     1      33.718 -22.187 -18.055  0.00  0.00    -0.444 OA
ATOM      2  N   UNL     1      35.890 -21.611 -18.313  0.00  0.00    -0.371 NA
ATOM      3  C   UNL     1      34.986 -22.197 -17.560  0.00  0.00    +0.277 C 
ATOM      4  C   UNL     1      35.161 -21.180 -19.392  0.00  0.00    +0.154 C 
ATOM      5  C   UNL     1      33.843 -21.529 -19.240  0.00  0.00    +0.264 C 
ENDROOT
BRANCH   3   6
ATOM      6  C   UNL     1      35.144 -22.848 -16.283  0.00  0.00    +0.069 C 
ATOM      7  C   UNL     1      36.565 -23.612 -14.485  0.00  0.00    +0.172 C 
ATOM      8  C   UNL     1      36.413 -22.982 -15.720  0.00  0.00    +0.046 C 
ATOM      9  C   UNL     1      35.448 -24.108 -13.812  0.00  0.00    +0.178 C 
ATOM     10  C   UNL     1      34.026 -23.344 -15.611  0.00  0.00    +0.009 C 
ATOM     11  C   UNL     1      34.178 -23.974 -14.376  0.00  0.00    +0.040 C 
BRANCH   7  12
ATOM     12  O   UNL     1      37.809 -23.737 -13.945  0.00  0.00    -0.476 OA
BRANCH  12  13
ATOM     13  C   UNL     1      38.426 -25.021 -14.028  0.00  0.00    +0.166 C 
ATOM     14  C   UNL     1      39.712 -24.907 -14.833  0.00  0.00    +0.047 C 
ATOM     15  C   UNL     1      38.679 -25.548 -12.624  0.00  0.00    +0.047 C 
ENDBRANCH  12  13
ENDBRANCH   7  12
BRANCH   9  16
ATOM     16  O   UNL     1      35.584 -24.725 -12.605  0.00  0.00    -0.421 OA
BRANCH  16  19
ATOM     17  F   UNL     1      35.587 -24.731 -10.363  0.00  0.00    -0.155 F 
ATOM     18  F   UNL     1      36.265 -22.939 -11.391  0.00  0.00    -0.155 F 
ATOM     19  C   UNL     1      35.352 -23.941 -11.441  0.00  0.00    +0.509 C 
ENDBRANCH  16  19
ENDBRANCH   9  16
ENDBRANCH   3   6
BRANCH   4  20
ATOM     20  C   UNL     1      35.802 -20.458 -20.501  0.00  0.00    +0.149 C 
BRANCH  20  22
ATOM     21  O   UNL     1      37.022 -18.337 -22.002  0.00  0.00    -0.270 OA
ATOM     22  N   UNL     1      35.281 -19.119 -20.686  0.00  0.00    -0.295 N 
ATOM     23  C   UNL     1      35.948 -18.163 -21.431  0.00  0.00    +0.249 C 
ATOM     24  H   UNL     1      34.422 -18.881 -20.266  0.00  0.00    +0.150 HD
BRANCH  23  25
ATOM     25  C   UNL     1      35.295 -16.830 -21.503  0.00  0.00    +0.087 C 
ATOM     26  C   UNL     1      34.980 -16.252 -22.731  0.00  0.00    +0.143 C 
ATOM     27  C   UNL     1      34.998 -16.158 -20.317  0.00  0.00    +0.008 C 
ATOM     28  C   UNL     1      34.368 -14.999 -22.776  0.00  0.00    +0.037 C 
ATOM     29  C   UNL     1      34.385 -14.905 -20.361  0.00  0.00    +0.000 C 
ATOM     30  C   UNL     1      34.070 -14.326 -21.592  0.00  0.00    +0.003 C 
BRANCH  26  31
ATOM     31  O   UNL     1      35.264 -16.893 -23.900  0.00  0.00    -0.475 OA
BRANCH  31  32
ATOM     32  C   UNL     1      34.159 -17.414 -24.637  0.00  0.00    +0.206 C 
ATOM     33  C   UNL     1      33.992 -18.881 -24.304  0.00  0.00    +0.051 C 
ENDBRANCH  31  32
ENDBRANCH  26  31
ENDBRANCH  23  25
ENDBRANCH  20  22
ENDBRANCH   4  20
TORSDOF 10
ENDMDL
MODEL 9
REMARK VINA RESULT:      -9.9      5.808     12.589
REMARK  Name = 57855696
REMARK  10 active torsions:
REMARK  status: ('A' for Active; 'I' for Inactive)
REMARK    1  A    between atoms: C_3  and  C_6
REMARK    2  A    between atoms: C_4  and  C_20
REMARK    3  A    between atoms: C_7  and  O_12
REMARK    4  A    between atoms: C_9  and  O_16
REMARK    5  A    between atoms: O_12  and  C_13
REMARK    6  A    between atoms: O_16  and  C_19
REMARK    7  A    between atoms: C_20  and  N_22
REMARK    8  A    between atoms: C_23  and  C_25
REMARK    9  A    between atoms: C_26  and  O_31
REMARK   10  A    between atoms: O_31  and  C_32
REMARK                            x       y       z     vdW  Elec       q    Type
REMARK                         _______ _______ _______ _____ _____    ______ ____
ROOT
ATOM      1  O   UNL     1      33.910 -11.282 -24.010  0.00  0.00    -0.444 OA
ATOM      2  N   UNL     1      32.327 -11.867 -22.504  0.00  0.00    -0.371 NA
ATOM      3  C   UNL     1      33.220 -12.271 -23.378  0.00  0.00    +0.277 C 
ATOM      4  C   UNL     1      32.433 -10.500 -22.562  0.00  0.00    +0.154 C 
ATOM      5  C   UNL     1      33.394 -10.141 -23.474  0.00  0.00    +0.264 C 
ENDROOT
BRANCH   3   6
ATOM      6  C   UNL     1      33.576 -13.614 -23.766  0.00  0.00    +0.069 C 
ATOM      7  C   UNL     1      34.801 -15.656 -23.358  0.00  0.00    +0.172 C 
ATOM      8  C   UNL     1      34.458 -14.357 -22.982  0.00  0.00    +0.046 C 
ATOM      9  C   UNL     1      34.262 -16.212 -24.518  0.00  0.00    +0.178 C 
ATOM     10  C   UNL     1      33.037 -14.170 -24.927  0.00  0.00    +0.009 C 
ATOM     11  C   UNL     1      33.380 -15.468 -25.303  0.00  0.00    +0.040 C 
BRANCH   7  12
ATOM     12  O   UNL     1      35.664 -16.371 -22.584  0.00  0.00    -0.476 OA
BRANCH  12  13
ATOM     13  C   UNL     1      35.114 -17.050 -21.456  0.00  0.00    +0.166 C 
ATOM     14  C   UNL     1      36.040 -18.189 -21.057  0.00  0.00    +0.047 C 
ATOM     15  C   UNL     1      34.914 -16.056 -20.321  0.00  0.00    +0.047 C 
ENDBRANCH  12  13
ENDBRANCH   7  12
BRANCH   9  16
ATOM     16  O   UNL     1      34.590 -17.479 -24.895  0.00  0.00    -0.421 OA
BRANCH  16  19
ATOM     17  F   UNL     1      32.747 -18.723 -25.187  0.00  0.00    -0.155 F 
ATOM     18  F   UNL     1      34.532 -19.689 -24.404  0.00  0.00    -0.155 F 
ATOM     19  C   UNL     1      33.809 -18.542 -24.361  0.00  0.00    +0.509 C 
ENDBRANCH  16  19
ENDBRANCH   9  16
ENDBRANCH   3   6
BRANCH   4  20
ATOM     20  C   UNL     1      31.592  -9.637 -21.721  0.00  0.00    +0.149 C 
BRANCH  20  22
ATOM     21  O   UNL     1      32.717  -7.355 -20.391  0.00  0.00    -0.270 OA
ATOM     22  N   UNL     1      31.551  -8.262 -22.178  0.00  0.00    -0.295 N 
ATOM     23  C   UNL     1      32.126  -7.229 -21.461  0.00  0.00    +0.249 C 
ATOM     24  H   UNL     1      31.098  -8.057 -23.028  0.00  0.00    +0.150 HD
BRANCH  23  25
ATOM     25  C   UNL     1      31.974  -5.873 -22.050  0.00  0.00    +0.087 C 
ATOM     26  C   UNL     1      32.551  -5.558 -23.279  0.00  0.00    +0.143 C 
ATOM     27  C   UNL     1      31.241  -4.911 -21.355  0.00  0.00    +0.008 C 
ATOM     28  C   UNL     1      32.397  -4.278 -23.815  0.00  0.00    +0.037 C 
ATOM     29  C   UNL     1      31.086  -3.631 -21.890  0.00  0.00    +0.000 C 
ATOM     30  C   UNL     1      31.664  -3.316 -23.121  0.00  0.00    +0.003 C 
BRANCH  26  31
ATOM     31  O   UNL     1      33.271  -6.483 -23.972  0.00  0.00    -0.475 OA
BRANCH  31  32
ATOM     32  C   UNL     1      34.666  -6.234 -24.130  0.00  0.00    +0.206 C 
ATOM     33  C   UNL     1      35.429  -7.025 -23.089  0.00  0.00    +0.051 C 
ENDBRANCH  31  32
ENDBRANCH  26  31
ENDBRANCH  23  25
ENDBRANCH  20  22
ENDBRANCH   4  20
TORSDOF 10
ENDMDL
