MODEL 1
REMARK VINA RESULT:     -11.9      0.000      0.000
REMARK  Name = 11697676
REMARK  7 active torsions:
REMARK  status: ('A' for Active; 'I' for Inactive)
REMARK    1  A    between atoms: N_1  and  C_18
REMARK    2  A    between atoms: N_2  and  C_8
REMARK    3  A    between atoms: C_18  and  C_19
REMARK    4  A    between atoms: C_19  and  C_20
REMARK    5  A    between atoms: C_20  and  C_21
REMARK    6  A    between atoms: C_21  and  O_22
REMARK    7  A    between atoms: O_22  and  C_28
REMARK                            x       y       z     vdW  Elec       q    Type
REMARK                         _______ _______ _______ _____ _____    ______ ____
ROOT
ATOM      1  N   UNL     1      35.750 -21.011 -19.802  0.00  0.00    +0.389 N 
ATOM      2  N   UNL     1      35.249 -18.703 -21.408  0.00  0.00    -0.312 N 
ATOM      3  C   UNL     1      34.377 -20.534 -20.008  0.00  0.00    -0.055 C 
ATOM      4  C   UNL     1      36.676 -19.872 -19.776  0.00  0.00    -0.055 C 
ATOM      5  C   UNL     1      34.252 -19.777 -21.333  0.00  0.00    +0.068 C 
ATOM      6  C   UNL     1      36.626 -19.093 -21.092  0.00  0.00    +0.068 C 
ATOM      7  H   UNL     1      36.005 -21.626 -20.576  0.00  0.00    -0.080 HD
ENDROOT
BRANCH   2   8
ATOM      8  C   UNL     1      35.013 -17.648 -22.296  0.00  0.00    +0.048 C 
ATOM      9  C   UNL     1      34.815 -16.307 -21.864  0.00  0.00    +0.013 C 
ATOM     10  C   UNL     1      34.968 -17.917 -23.681  0.00  0.00    +0.015 C 
ATOM     11  C   UNL     1      34.579 -15.277 -22.805  0.00  0.00    +0.001 C 
ATOM     12  C   UNL     1      34.851 -15.992 -20.496  0.00  0.00    +0.001 C 
ATOM     13  C   UNL     1      34.737 -16.904 -24.608  0.00  0.00    +0.001 C 
ATOM     14  C   UNL     1      34.544 -15.593 -24.174  0.00  0.00    +0.000 C 
ATOM     15  C   UNL     1      34.387 -13.962 -22.352  0.00  0.00    +0.000 C 
ATOM     16  C   UNL     1      34.657 -14.680 -20.063  0.00  0.00    +0.000 C 
ATOM     17  C   UNL     1      34.425 -13.667 -20.989  0.00  0.00    +0.000 C 
ENDBRANCH   2   8
BRANCH   1  18
ATOM     18  C   UNL     1      35.845 -21.779 -18.561  0.00  0.00    -0.077 C 
BRANCH  18  19
ATOM     19  C   UNL     1      36.816 -21.105 -17.593  0.00  0.00    -0.019 C 
BRANCH  19  20
ATOM     20  C   UNL     1      37.252 -22.066 -16.489  0.00  0.00    +0.045 C 
BRANCH  20  21
ATOM     21  C   UNL     1      36.140 -22.303 -15.477  0.00  0.00    +0.208 C 
BRANCH  21  22
ATOM     22  O   UNL     1      35.512 -23.551 -15.734  0.00  0.00    -0.452 OA
BRANCH  22  28
ATOM     23  O   UNL     1      28.702 -22.433 -16.784  0.00  0.00    -0.275 OA
ATOM     24  N   UNL     1      30.928 -22.869 -16.421  0.00  0.00    -0.263 N 
ATOM     25  N   UNL     1      33.239 -23.218 -16.063  0.00  0.00    -0.357 NA
ATOM     26  C   UNL     1      31.654 -23.988 -14.409  0.00  0.00    +0.090 C 
ATOM     27  C   UNL     1      30.222 -24.213 -14.028  0.00  0.00    +0.022 C 
ATOM     28  C   UNL     1      34.227 -23.703 -15.279  0.00  0.00    +0.278 C 
ATOM     29  C   UNL     1      31.970 -23.358 -15.613  0.00  0.00    +0.170 C 
ATOM     30  C   UNL     1      29.338 -23.102 -14.571  0.00  0.00    +0.086 C 
ATOM     31  C   UNL     1      32.703 -24.487 -13.636  0.00  0.00    -0.012 C 
ATOM     32  C   UNL     1      34.014 -24.337 -14.068  0.00  0.00    +0.068 C 
ATOM     33  C   UNL     1      29.604 -22.802 -16.032  0.00  0.00    +0.228 C 
ATOM     34  H   UNL     1      31.156 -22.552 -17.325  0.00  0.00    +0.157 HD
ENDBRANCH  22  28
ENDBRANCH  21  22
ENDBRANCH  20  21
ENDBRANCH  19  20
ENDBRANCH  18  19
ENDBRANCH   1  18
TORSDOF 7
ENDMDL
MODEL 2
REMARK VINA RESULT:     -11.8      2.979      5.447
REMARK  Name = 11697676
REMARK  7 active torsions:
REMARK  status: ('A' for Active; 'I' for Inactive)
REMARK    1  A    between atoms: N_1  and  C_18
REMARK    2  A    between atoms: N_2  and  C_8
REMARK    3  A    between atoms: C_18  and  C_19
REMARK    4  A    between atoms: C_19  and  C_20
REMARK    5  A    between atoms: C_20  and  C_21
REMARK    6  A    between atoms: C_21  and  O_22
REMARK    7  A    between atoms: O_22  and  C_28
REMARK                            x       y       z     vdW  Elec       q    Type
REMARK                         _______ _______ _______ _____ _____    ______ ____
ROOT
ATOM      1  N   UNL     1      34.650 -15.855 -23.891  0.00  0.00    +0.389 N 
ATOM      2  N   UNL     1      33.479 -13.327 -23.262  0.00  0.00    -0.312 N 
ATOM      3  C   UNL     1      33.460 -15.388 -24.613  0.00  0.00    -0.055 C 
ATOM      4  C   UNL     1      34.611 -15.378 -22.502  0.00  0.00    -0.055 C 
ATOM      5  C   UNL     1      33.392 -13.859 -24.627  0.00  0.00    +0.068 C 
ATOM      6  C   UNL     1      34.580 -13.849 -22.447  0.00  0.00    +0.068 C 
ATOM      7  H   UNL     1      35.481 -15.477 -24.346  0.00  0.00    -0.080 HD
ENDROOT
BRANCH   2   8
ATOM      8  C   UNL     1      32.995 -12.035 -23.028  0.00  0.00    +0.048 C 
ATOM      9  C   UNL     1      32.496 -11.617 -21.762  0.00  0.00    +0.013 C 
ATOM     10  C   UNL     1      32.997 -11.101 -24.087  0.00  0.00    +0.015 C 
ATOM     11  C   UNL     1      32.018 -10.298 -21.579  0.00  0.00    +0.001 C 
ATOM     12  C   UNL     1      32.475 -12.511 -20.680  0.00  0.00    +0.001 C 
ATOM     13  C   UNL     1      32.527  -9.803 -23.907  0.00  0.00    +0.001 C 
ATOM     14  C   UNL     1      32.041  -9.403 -22.662  0.00  0.00    +0.000 C 
ATOM     15  C   UNL     1      31.531  -9.912 -20.320  0.00  0.00    +0.000 C 
ATOM     16  C   UNL     1      31.988 -12.111 -19.435  0.00  0.00    +0.000 C 
ATOM     17  C   UNL     1      31.516 -10.814 -19.256  0.00  0.00    +0.000 C 
ENDBRANCH   2   8
BRANCH   1  18
ATOM     18  C   UNL     1      34.734 -17.314 -23.930  0.00  0.00    -0.077 C 
BRANCH  18  19
ATOM     19  C   UNL     1      35.393 -17.843 -22.658  0.00  0.00    -0.019 C 
BRANCH  19  20
ATOM     20  C   UNL     1      34.924 -19.261 -22.340  0.00  0.00    +0.045 C 
BRANCH  20  21
ATOM     21  C   UNL     1      34.658 -19.446 -20.852  0.00  0.00    +0.208 C 
BRANCH  21  22
ATOM     22  O   UNL     1      33.758 -20.528 -20.654  0.00  0.00    -0.452 OA
BRANCH  22  28
ATOM     23  O   UNL     1      30.674 -23.762 -15.291  0.00  0.00    -0.275 OA
ATOM     24  N   UNL     1      31.732 -22.754 -17.064  0.00  0.00    -0.263 N 
ATOM     25  N   UNL     1      32.766 -21.633 -18.872  0.00  0.00    -0.357 NA
ATOM     26  C   UNL     1      34.142 -22.685 -17.187  0.00  0.00    +0.090 C 
ATOM     27  C   UNL     1      34.220 -23.565 -15.976  0.00  0.00    +0.022 C 
ATOM     28  C   UNL     1      33.901 -21.247 -19.496  0.00  0.00    +0.278 C 
ATOM     29  C   UNL     1      32.903 -22.336 -17.723  0.00  0.00    +0.170 C 
ATOM     30  C   UNL     1      33.023 -23.338 -15.065  0.00  0.00    +0.086 C 
ATOM     31  C   UNL     1      35.289 -22.280 -17.870  0.00  0.00    -0.012 C 
ATOM     32  C   UNL     1      35.173 -21.540 -19.040  0.00  0.00    +0.068 C 
ATOM     33  C   UNL     1      31.707 -23.343 -15.815  0.00  0.00    +0.228 C 
ATOM     34  H   UNL     1      30.872 -22.619 -17.525  0.00  0.00    +0.157 HD
ENDBRANCH  22  28
ENDBRANCH  21  22
ENDBRANCH  20  21
ENDBRANCH  19  20
ENDBRANCH  18  19
ENDBRANCH   1  18
TORSDOF 7
ENDMDL
MODEL 3
REMARK VINA RESULT:     -11.6      2.026      3.656
REMARK  Name = 11697676
REMARK  7 active torsions:
REMARK  status: ('A' for Active; 'I' for Inactive)
REMARK    1  A    between atoms: N_1  and  C_18
REMARK    2  A    between atoms: N_2  and  C_8
REMARK    3  A    between atoms: C_18  and  C_19
REMARK    4  A    between atoms: C_19  and  C_20
REMARK    5  A    between atoms: C_20  and  C_21
REMARK    6  A    between atoms: C_21  and  O_22
REMARK    7  A    between atoms: O_22  and  C_28
REMARK                            x       y       z     vdW  Elec       q    Type
REMARK                         _______ _______ _______ _____ _____    ______ ____
ROOT
ATOM      1  N   UNL     1      35.637 -17.519 -22.480  0.00  0.00    +0.389 N 
ATOM      2  N   UNL     1      34.329 -14.991 -22.707  0.00  0.00    -0.312 N 
ATOM      3  C   UNL     1      34.779 -17.229 -23.636  0.00  0.00    -0.055 C 
ATOM      4  C   UNL     1      35.114 -16.843 -21.287  0.00  0.00    -0.055 C 
ATOM      5  C   UNL     1      34.725 -15.725 -23.915  0.00  0.00    +0.068 C 
ATOM      6  C   UNL     1      35.071 -15.326 -21.489  0.00  0.00    +0.068 C 
ATOM      7  H   UNL     1      36.576 -17.170 -22.672  0.00  0.00    -0.080 HD
ENDROOT
BRANCH   2   8
ATOM      8  C   UNL     1      33.797 -13.705 -22.864  0.00  0.00    +0.048 C 
ATOM      9  C   UNL     1      33.071 -13.041 -21.836  0.00  0.00    +0.013 C 
ATOM     10  C   UNL     1      33.984 -13.033 -24.092  0.00  0.00    +0.015 C 
ATOM     11  C   UNL     1      32.555 -11.741 -22.048  0.00  0.00    +0.001 C 
ATOM     12  C   UNL     1      32.860 -13.671 -20.599  0.00  0.00    +0.001 C 
ATOM     13  C   UNL     1      33.477 -11.754 -24.300  0.00  0.00    +0.001 C 
ATOM     14  C   UNL     1      32.767 -11.111 -23.286  0.00  0.00    +0.000 C 
ATOM     15  C   UNL     1      31.842 -11.109 -21.017  0.00  0.00    +0.000 C 
ATOM     16  C   UNL     1      32.150 -13.028 -19.585  0.00  0.00    +0.000 C 
ATOM     17  C   UNL     1      31.642 -11.749 -19.793  0.00  0.00    +0.000 C 
ENDBRANCH   2   8
BRANCH   1  18
ATOM     18  C   UNL     1      35.724 -18.962 -22.256  0.00  0.00    -0.077 C 
BRANCH  18  19
ATOM     19  C   UNL     1      34.570 -19.432 -21.372  0.00  0.00    -0.019 C 
BRANCH  19  20
ATOM     20  C   UNL     1      35.039 -20.477 -20.362  0.00  0.00    +0.045 C 
BRANCH  20  21
ATOM     21  C   UNL     1      33.880 -21.021 -19.536  0.00  0.00    +0.208 C 
BRANCH  21  22
ATOM     22  O   UNL     1      34.248 -22.259 -18.946  0.00  0.00    -0.452 OA
BRANCH  22  28
ATOM     23  O   UNL     1      28.325 -22.904 -15.308  0.00  0.00    -0.275 OA
ATOM     24  N   UNL     1      30.294 -22.756 -16.480  0.00  0.00    -0.263 N 
ATOM     25  N   UNL     1      32.297 -22.508 -17.715  0.00  0.00    -0.357 NA
ATOM     26  C   UNL     1      32.407 -23.216 -15.407  0.00  0.00    +0.090 C 
ATOM     27  C   UNL     1      31.675 -23.656 -14.175  0.00  0.00    +0.022 C 
ATOM     28  C   UNL     1      33.646 -22.581 -17.757  0.00  0.00    +0.278 C 
ATOM     29  C   UNL     1      31.699 -22.816 -16.540  0.00  0.00    +0.170 C 
ATOM     30  C   UNL     1      30.357 -22.912 -14.036  0.00  0.00    +0.086 C 
ATOM     31  C   UNL     1      33.798 -23.292 -15.497  0.00  0.00    -0.012 C 
ATOM     32  C   UNL     1      34.434 -22.961 -16.686  0.00  0.00    +0.068 C 
ATOM     33  C   UNL     1      29.556 -22.893 -15.321  0.00  0.00    +0.228 C 
ATOM     34  H   UNL     1      29.805 -22.606 -17.321  0.00  0.00    +0.157 HD
ENDBRANCH  22  28
ENDBRANCH  21  22
ENDBRANCH  20  21
ENDBRANCH  19  20
ENDBRANCH  18  19
ENDBRANCH   1  18
TORSDOF 7
ENDMDL
MODEL 4
REMARK VINA RESULT:     -11.6      2.966      6.005
REMARK  Name = 11697676
REMARK  7 active torsions:
REMARK  status: ('A' for Active; 'I' for Inactive)
REMARK    1  A    between atoms: N_1  and  C_18
REMARK    2  A    between atoms: N_2  and  C_8
REMARK    3  A    between atoms: C_18  and  C_19
REMARK    4  A    between atoms: C_19  and  C_20
REMARK    5  A    between atoms: C_20  and  C_21
REMARK    6  A    between atoms: C_21  and  O_22
REMARK    7  A    between atoms: O_22  and  C_28
REMARK                            x       y       z     vdW  Elec       q    Type
REMARK                         _______ _______ _______ _____ _____    ______ ____
ROOT
ATOM      1  N   UNL     1      34.641 -15.929 -23.986  0.00  0.00    +0.389 N 
ATOM      2  N   UNL     1      33.493 -13.397 -23.333  0.00  0.00    -0.312 N 
ATOM      3  C   UNL     1      33.442 -15.455 -24.689  0.00  0.00    -0.055 C 
ATOM      4  C   UNL     1      34.626 -15.456 -22.597  0.00  0.00    -0.055 C 
ATOM      5  C   UNL     1      33.381 -13.925 -24.698  0.00  0.00    +0.068 C 
ATOM      6  C   UNL     1      34.603 -13.926 -22.537  0.00  0.00    +0.068 C 
ATOM      7  H   UNL     1      35.466 -15.554 -24.454  0.00  0.00    -0.080 HD
ENDROOT
BRANCH   2   8
ATOM      8  C   UNL     1      33.018 -12.103 -23.089  0.00  0.00    +0.048 C 
ATOM      9  C   UNL     1      32.519 -11.693 -21.821  0.00  0.00    +0.013 C 
ATOM     10  C   UNL     1      33.032 -11.160 -24.139  0.00  0.00    +0.015 C 
ATOM     11  C   UNL     1      32.051 -10.372 -21.628  0.00  0.00    +0.001 C 
ATOM     12  C   UNL     1      32.486 -12.597 -20.747  0.00  0.00    +0.001 C 
ATOM     13  C   UNL     1      32.572  -9.859 -23.949  0.00  0.00    +0.001 C 
ATOM     14  C   UNL     1      32.085  -9.467 -22.702  0.00  0.00    +0.000 C 
ATOM     15  C   UNL     1      31.563  -9.993 -20.367  0.00  0.00    +0.000 C 
ATOM     16  C   UNL     1      31.998 -12.204 -19.501  0.00  0.00    +0.000 C 
ATOM     17  C   UNL     1      31.537 -10.905 -19.311  0.00  0.00    +0.000 C 
ENDBRANCH   2   8
BRANCH   1  18
ATOM     18  C   UNL     1      34.717 -17.389 -24.030  0.00  0.00    -0.077 C 
BRANCH  18  19
ATOM     19  C   UNL     1      35.363 -17.926 -22.755  0.00  0.00    -0.019 C 
BRANCH  19  20
ATOM     20  C   UNL     1      34.848 -19.324 -22.420  0.00  0.00    +0.045 C 
BRANCH  20  21
ATOM     21  C   UNL     1      34.739 -19.539 -20.916  0.00  0.00    +0.208 C 
BRANCH  21  22
ATOM     22  O   UNL     1      35.656 -20.543 -20.505  0.00  0.00    -0.452 OA
BRANCH  22  28
ATOM     23  O   UNL     1      37.800 -23.066 -14.359  0.00  0.00    -0.275 OA
ATOM     24  N   UNL     1      37.036 -22.211 -16.349  0.00  0.00    -0.263 N 
ATOM     25  N   UNL     1      36.328 -21.373 -18.445  0.00  0.00    -0.357 NA
ATOM     26  C   UNL     1      34.766 -22.604 -17.072  0.00  0.00    +0.090 C 
ATOM     27  C   UNL     1      34.469 -23.254 -15.754  0.00  0.00    +0.022 C 
ATOM     28  C   UNL     1      35.345 -21.234 -19.363  0.00  0.00    +0.278 C 
ATOM     29  C   UNL     1      36.027 -22.064 -17.320  0.00  0.00    +0.170 C 
ATOM     30  C   UNL     1      35.714 -23.914 -15.185  0.00  0.00    +0.086 C 
ATOM     31  C   UNL     1      33.775 -22.425 -18.038  0.00  0.00    -0.012 C 
ATOM     32  C   UNL     1      34.066 -21.738 -19.209  0.00  0.00    +0.068 C 
ATOM     33  C   UNL     1      36.929 -23.010 -15.228  0.00  0.00    +0.228 C 
ATOM     34  H   UNL     1      37.874 -21.710 -16.477  0.00  0.00    +0.157 HD
ENDBRANCH  22  28
ENDBRANCH  21  22
ENDBRANCH  20  21
ENDBRANCH  19  20
ENDBRANCH  18  19
ENDBRANCH   1  18
TORSDOF 7
ENDMDL
MODEL 5
REMARK VINA RESULT:     -11.4      3.438     10.659
REMARK  Name = 11697676
REMARK  7 active torsions:
REMARK  status: ('A' for Active; 'I' for Inactive)
REMARK    1  A    between atoms: N_1  and  C_18
REMARK    2  A    between atoms: N_2  and  C_8
REMARK    3  A    between atoms: C_18  and  C_19
REMARK    4  A    between atoms: C_19  and  C_20
REMARK    5  A    between atoms: C_20  and  C_21
REMARK    6  A    between atoms: C_21  and  O_22
REMARK    7  A    between atoms: O_22  and  C_28
REMARK                            x       y       z     vdW  Elec       q    Type
REMARK                         _______ _______ _______ _____ _____    ______ ____
ROOT
ATOM      1  N   UNL     1      34.208 -22.379 -17.500  0.00  0.00    +0.389 N 
ATOM      2  N   UNL     1      35.203 -23.542 -15.089  0.00  0.00    -0.312 N 
ATOM      3  C   UNL     1      33.586 -23.590 -16.948  0.00  0.00    -0.055 C 
ATOM      4  C   UNL     1      35.648 -22.383 -17.216  0.00  0.00    -0.055 C 
ATOM      5  C   UNL     1      33.781 -23.664 -15.432  0.00  0.00    +0.068 C 
ATOM      6  C   UNL     1      35.911 -22.418 -15.708  0.00  0.00    +0.068 C 
ATOM      7  H   UNL     1      33.787 -21.562 -17.057  0.00  0.00    -0.080 HD
ENDROOT
BRANCH   2   8
ATOM      8  C   UNL     1      35.623 -24.025 -13.844  0.00  0.00    +0.048 C 
ATOM      9  C   UNL     1      36.903 -24.610 -13.636  0.00  0.00    +0.013 C 
ATOM     10  C   UNL     1      34.744 -23.932 -12.743  0.00  0.00    +0.015 C 
ATOM     11  C   UNL     1      37.277 -25.083 -12.356  0.00  0.00    +0.001 C 
ATOM     12  C   UNL     1      37.810 -24.724 -14.702  0.00  0.00    +0.001 C 
ATOM     13  C   UNL     1      35.112 -24.397 -11.483  0.00  0.00    +0.001 C 
ATOM     14  C   UNL     1      36.369 -24.968 -11.290  0.00  0.00    +0.000 C 
ATOM     15  C   UNL     1      38.546 -25.656 -12.180  0.00  0.00    +0.000 C 
ATOM     16  C   UNL     1      39.068 -25.296 -14.509  0.00  0.00    +0.000 C 
ATOM     17  C   UNL     1      39.435 -25.762 -13.250  0.00  0.00    +0.000 C 
ENDBRANCH   2   8
BRANCH   1  18
ATOM     18  C   UNL     1      33.969 -22.291 -18.940  0.00  0.00    -0.077 C 
BRANCH  18  19
ATOM     19  C   UNL     1      33.076 -21.093 -19.258  0.00  0.00    -0.019 C 
BRANCH  19  20
ATOM     20  C   UNL     1      33.759 -20.138 -20.235  0.00  0.00    +0.045 C 
BRANCH  20  21
ATOM     21  C   UNL     1      35.268 -20.341 -20.258  0.00  0.00    +0.208 C 
BRANCH  21  22
ATOM     22  O   UNL     1      35.921 -19.086 -20.394  0.00  0.00    -0.452 OA
BRANCH  22  28
ATOM     23  O   UNL     1      34.146 -12.717 -22.632  0.00  0.00    -0.275 OA
ATOM     24  N   UNL     1      34.772 -14.820 -21.952  0.00  0.00    -0.263 N 
ATOM     25  N   UNL     1      35.350 -16.978 -21.176  0.00  0.00    -0.357 NA
ATOM     26  C   UNL     1      34.739 -16.676 -23.495  0.00  0.00    +0.090 C 
ATOM     27  C   UNL     1      34.411 -15.731 -24.612  0.00  0.00    +0.022 C 
ATOM     28  C   UNL     1      35.525 -18.293 -21.439  0.00  0.00    +0.278 C 
ATOM     29  C   UNL     1      34.950 -16.193 -22.204  0.00  0.00    +0.170 C 
ATOM     30  C   UNL     1      33.618 -14.540 -24.096  0.00  0.00    +0.086 C 
ATOM     31  C   UNL     1      34.945 -18.037 -23.727  0.00  0.00    -0.012 C 
ATOM     32  C   UNL     1      35.335 -18.866 -22.683  0.00  0.00    +0.068 C 
ATOM     33  C   UNL     1      34.227 -13.925 -22.853  0.00  0.00    +0.228 C 
ATOM     34  H   UNL     1      35.056 -14.473 -21.076  0.00  0.00    +0.157 HD
ENDBRANCH  22  28
ENDBRANCH  21  22
ENDBRANCH  20  21
ENDBRANCH  19  20
ENDBRANCH  18  19
ENDBRANCH   1  18
TORSDOF 7
ENDMDL
MODEL 6
REMARK VINA RESULT:     -11.4      2.357      4.329
REMARK  Name = 11697676
REMARK  7 active torsions:
REMARK  status: ('A' for Active; 'I' for Inactive)
REMARK    1  A    between atoms: N_1  and  C_18
REMARK    2  A    between atoms: N_2  and  C_8
REMARK    3  A    between atoms: C_18  and  C_19
REMARK    4  A    between atoms: C_19  and  C_20
REMARK    5  A    between atoms: C_20  and  C_21
REMARK    6  A    between atoms: C_21  and  O_22
REMARK    7  A    between atoms: O_22  and  C_28
REMARK                            x       y       z     vdW  Elec       q    Type
REMARK                         _______ _______ _______ _____ _____    ______ ____
ROOT
ATOM      1  N   UNL     1      35.935 -20.833 -19.853  0.00  0.00    +0.389 N 
ATOM      2  N   UNL     1      35.327 -18.548 -21.455  0.00  0.00    -0.312 N 
ATOM      3  C   UNL     1      34.541 -20.418 -20.054  0.00  0.00    -0.055 C 
ATOM      4  C   UNL     1      36.809 -19.654 -19.828  0.00  0.00    -0.055 C 
ATOM      5  C   UNL     1      34.379 -19.666 -21.377  0.00  0.00    +0.068 C 
ATOM      6  C   UNL     1      36.721 -18.877 -21.143  0.00  0.00    +0.068 C 
ATOM      7  H   UNL     1      36.215 -21.435 -20.628  0.00  0.00    -0.080 HD
ENDROOT
BRANCH   2   8
ATOM      8  C   UNL     1      35.041 -17.504 -22.341  0.00  0.00    +0.048 C 
ATOM      9  C   UNL     1      34.789 -16.173 -21.908  0.00  0.00    +0.013 C 
ATOM     10  C   UNL     1      35.000 -17.775 -23.726  0.00  0.00    +0.015 C 
ATOM     11  C   UNL     1      34.504 -15.154 -22.847  0.00  0.00    +0.001 C 
ATOM     12  C   UNL     1      34.819 -15.857 -20.540  0.00  0.00    +0.001 C 
ATOM     13  C   UNL     1      34.721 -16.772 -24.651  0.00  0.00    +0.001 C 
ATOM     14  C   UNL     1      34.475 -15.471 -24.216  0.00  0.00    +0.000 C 
ATOM     15  C   UNL     1      34.259 -13.848 -22.392  0.00  0.00    +0.000 C 
ATOM     16  C   UNL     1      34.573 -14.554 -20.105  0.00  0.00    +0.000 C 
ATOM     17  C   UNL     1      34.292 -13.552 -21.029  0.00  0.00    +0.000 C 
ENDBRANCH   2   8
BRANCH   1  18
ATOM     18  C   UNL     1      36.068 -21.597 -18.612  0.00  0.00    -0.077 C 
BRANCH  18  19
ATOM     19  C   UNL     1      34.780 -22.364 -18.320  0.00  0.00    -0.019 C 
BRANCH  19  20
ATOM     20  C   UNL     1      34.618 -22.623 -16.824  0.00  0.00    +0.045 C 
BRANCH  20  21
ATOM     21  C   UNL     1      33.742 -23.839 -16.554  0.00  0.00    +0.208 C 
BRANCH  21  22
ATOM     22  O   UNL     1      33.574 -24.012 -15.154  0.00  0.00    -0.452 OA
BRANCH  22  28
ATOM     23  O   UNL     1      40.252 -26.040 -14.990  0.00  0.00    -0.275 OA
ATOM     24  N   UNL     1      38.072 -25.315 -15.006  0.00  0.00    -0.263 N 
ATOM     25  N   UNL     1      35.802 -24.655 -15.069  0.00  0.00    -0.357 NA
ATOM     26  C   UNL     1      37.001 -24.580 -12.972  0.00  0.00    +0.090 C 
ATOM     27  C   UNL     1      38.308 -24.705 -12.249  0.00  0.00    +0.022 C 
ATOM     28  C   UNL     1      34.712 -24.198 -14.413  0.00  0.00    +0.278 C 
ATOM     29  C   UNL     1      36.925 -24.849 -14.338  0.00  0.00    +0.170 C 
ATOM     30  C   UNL     1      39.164 -25.799 -12.867  0.00  0.00    +0.086 C 
ATOM     31  C   UNL     1      35.857 -24.095 -12.335  0.00  0.00    -0.012 C 
ATOM     32  C   UNL     1      34.688 -23.908 -13.061  0.00  0.00    +0.068 C 
ATOM     33  C   UNL     1      39.239 -25.701 -14.376  0.00  0.00    +0.228 C 
ATOM     34  H   UNL     1      38.042 -25.369 -15.989  0.00  0.00    +0.157 HD
ENDBRANCH  22  28
ENDBRANCH  21  22
ENDBRANCH  20  21
ENDBRANCH  19  20
ENDBRANCH  18  19
ENDBRANCH   1  18
TORSDOF 7
ENDMDL
MODEL 7
REMARK VINA RESULT:     -11.4      4.995      8.698
REMARK  Name = 11697676
REMARK  7 active torsions:
REMARK  status: ('A' for Active; 'I' for Inactive)
REMARK    1  A    between atoms: N_1  and  C_18
REMARK    2  A    between atoms: N_2  and  C_8
REMARK    3  A    between atoms: C_18  and  C_19
REMARK    4  A    between atoms: C_19  and  C_20
REMARK    5  A    between atoms: C_20  and  C_21
REMARK    6  A    between atoms: C_21  and  O_22
REMARK    7  A    between atoms: O_22  and  C_28
REMARK                            x       y       z     vdW  Elec       q    Type
REMARK                         _______ _______ _______ _____ _____    ______ ____
ROOT
ATOM      1  N   UNL     1      33.381 -12.926 -23.066  0.00  0.00    +0.389 N 
ATOM      2  N   UNL     1      32.543 -10.316 -22.265  0.00  0.00    -0.312 N 
ATOM      3  C   UNL     1      33.709 -11.756 -23.890  0.00  0.00    -0.055 C 
ATOM      4  C   UNL     1      32.080 -12.730 -22.415  0.00  0.00    -0.055 C 
ATOM      5  C   UNL     1      33.779 -10.486 -23.037  0.00  0.00    +0.068 C 
ATOM      6  C   UNL     1      32.096 -11.493 -21.514  0.00  0.00    +0.068 C 
ATOM      7  H   UNL     1      34.097 -13.033 -22.346  0.00  0.00    -0.080 HD
ENDROOT
BRANCH   2   8
ATOM      8  C   UNL     1      32.233  -9.034 -21.795  0.00  0.00    +0.048 C 
ATOM      9  C   UNL     1      31.766  -7.994 -22.646  0.00  0.00    +0.013 C 
ATOM     10  C   UNL     1      32.388  -8.754 -20.420  0.00  0.00    +0.015 C 
ATOM     11  C   UNL     1      31.467  -6.715 -22.119  0.00  0.00    +0.001 C 
ATOM     12  C   UNL     1      31.596  -8.227 -24.020  0.00  0.00    +0.001 C 
ATOM     13  C   UNL     1      32.093  -7.496 -19.901  0.00  0.00    +0.001 C 
ATOM     14  C   UNL     1      31.636  -6.483 -20.743  0.00  0.00    +0.000 C 
ATOM     15  C   UNL     1      31.008  -5.707 -22.981  0.00  0.00    +0.000 C 
ATOM     16  C   UNL     1      31.139  -7.213 -24.863  0.00  0.00    +0.000 C 
ATOM     17  C   UNL     1      30.846  -5.955 -24.344  0.00  0.00    +0.000 C 
ENDBRANCH   2   8
BRANCH   1  18
ATOM     18  C   UNL     1      33.370 -14.140 -23.881  0.00  0.00    -0.077 C 
BRANCH  18  19
ATOM     19  C   UNL     1      34.457 -15.105 -23.411  0.00  0.00    -0.019 C 
BRANCH  19  20
ATOM     20  C   UNL     1      34.579 -16.301 -24.353  0.00  0.00    +0.045 C 
BRANCH  20  21
ATOM     21  C   UNL     1      34.828 -17.595 -23.590  0.00  0.00    +0.208 C 
BRANCH  21  22
ATOM     22  O   UNL     1      35.424 -17.307 -22.333  0.00  0.00    -0.452 OA
BRANCH  22  28
ATOM     23  O   UNL     1      32.745 -22.560 -18.596  0.00  0.00    -0.275 OA
ATOM     24  N   UNL     1      33.676 -20.876 -19.851  0.00  0.00    -0.263 N 
ATOM     25  N   UNL     1      34.570 -19.077 -21.100  0.00  0.00    -0.357 NA
ATOM     26  C   UNL     1      36.060 -20.496 -19.833  0.00  0.00    +0.090 C 
ATOM     27  C   UNL     1      36.242 -21.734 -19.007  0.00  0.00    +0.022 C 
ATOM     28  C   UNL     1      35.651 -18.370 -21.497  0.00  0.00    +0.278 C 
ATOM     29  C   UNL     1      34.789 -20.122 -20.267  0.00  0.00    +0.170 C 
ATOM     30  C   UNL     1      35.025 -21.981 -18.129  0.00  0.00    +0.086 C 
ATOM     31  C   UNL     1      37.151 -19.748 -20.278  0.00  0.00    -0.012 C 
ATOM     32  C   UNL     1      36.949 -18.660 -21.116  0.00  0.00    +0.068 C 
ATOM     33  C   UNL     1      33.721 -21.869 -18.891  0.00  0.00    +0.228 C 
ATOM     34  H   UNL     1      32.807 -20.684 -20.273  0.00  0.00    +0.157 HD
ENDBRANCH  22  28
ENDBRANCH  21  22
ENDBRANCH  20  21
ENDBRANCH  19  20
ENDBRANCH  18  19
ENDBRANCH   1  18
TORSDOF 7
ENDMDL
MODEL 8
REMARK VINA RESULT:     -11.3      3.031     10.101
REMARK  Name = 11697676
REMARK  7 active torsions:
REMARK  status: ('A' for Active; 'I' for Inactive)
REMARK    1  A    between atoms: N_1  and  C_18
REMARK    2  A    between atoms: N_2  and  C_8
REMARK    3  A    between atoms: C_18  and  C_19
REMARK    4  A    between atoms: C_19  and  C_20
REMARK    5  A    between atoms: C_20  and  C_21
REMARK    6  A    between atoms: C_21  and  O_22
REMARK    7  A    between atoms: O_22  and  C_28
REMARK                            x       y       z     vdW  Elec       q    Type
REMARK                         _______ _______ _______ _____ _____    ______ ____
ROOT
ATOM      1  N   UNL     1      35.723 -21.876 -18.877  0.00  0.00    +0.389 N 
ATOM      2  N   UNL     1      34.353 -22.832 -16.560  0.00  0.00    -0.312 N 
ATOM      3  C   UNL     1      36.162 -21.472 -17.536  0.00  0.00    -0.055 C 
ATOM      4  C   UNL     1      34.265 -22.050 -18.894  0.00  0.00    -0.055 C 
ATOM      5  C   UNL     1      35.788 -22.529 -16.494  0.00  0.00    +0.068 C 
ATOM      6  C   UNL     1      33.828 -23.126 -17.897  0.00  0.00    +0.068 C 
ATOM      7  H   UNL     1      36.164 -22.765 -19.114  0.00  0.00    -0.080 HD
ENDROOT
BRANCH   2   8
ATOM      8  C   UNL     1      33.750 -23.408 -15.436  0.00  0.00    +0.048 C 
ATOM      9  C   UNL     1      32.340 -23.436 -15.247  0.00  0.00    +0.013 C 
ATOM     10  C   UNL     1      34.569 -23.987 -14.442  0.00  0.00    +0.015 C 
ATOM     11  C   UNL     1      31.783 -24.030 -14.091  0.00  0.00    +0.001 C 
ATOM     12  C   UNL     1      31.487 -22.871 -16.209  0.00  0.00    +0.001 C 
ATOM     13  C   UNL     1      34.020 -24.573 -13.305  0.00  0.00    +0.001 C 
ATOM     14  C   UNL     1      32.637 -24.595 -13.130  0.00  0.00    +0.000 C 
ATOM     15  C   UNL     1      30.388 -24.044 -13.930  0.00  0.00    +0.000 C 
ATOM     16  C   UNL     1      30.103 -22.894 -16.034  0.00  0.00    +0.000 C 
ATOM     17  C   UNL     1      29.554 -23.478 -14.896  0.00  0.00    +0.000 C 
ENDBRANCH   2   8
BRANCH   1  18
ATOM     18  C   UNL     1      36.133 -20.885 -19.871  0.00  0.00    -0.077 C 
BRANCH  18  19
ATOM     19  C   UNL     1      34.919 -20.108 -20.378  0.00  0.00    -0.019 C 
BRANCH  19  20
ATOM     20  C   UNL     1      35.226 -19.403 -21.698  0.00  0.00    +0.045 C 
BRANCH  20  21
ATOM     21  C   UNL     1      36.130 -18.195 -21.494  0.00  0.00    +0.208 C 
BRANCH  21  22
ATOM     22  O   UNL     1      35.501 -17.264 -20.625  0.00  0.00    -0.452 OA
BRANCH  22  28
ATOM     23  O   UNL     1      31.666 -11.484 -19.841  0.00  0.00    -0.275 OA
ATOM     24  N   UNL     1      32.975 -13.348 -20.137  0.00  0.00    -0.263 N 
ATOM     25  N   UNL     1      34.251 -15.323 -20.395  0.00  0.00    -0.357 NA
ATOM     26  C   UNL     1      33.810 -13.935 -22.325  0.00  0.00    +0.090 C 
ATOM     27  C   UNL     1      33.261 -12.651 -22.869  0.00  0.00    +0.022 C 
ATOM     28  C   UNL     1      34.941 -16.156 -21.206  0.00  0.00    +0.278 C 
ATOM     29  C   UNL     1      33.688 -14.232 -20.967  0.00  0.00    +0.170 C 
ATOM     30  C   UNL     1      32.026 -12.220 -22.094  0.00  0.00    +0.086 C 
ATOM     31  C   UNL     1      34.542 -14.814 -23.124  0.00  0.00    -0.012 C 
ATOM     32  C   UNL     1      35.111 -15.950 -22.563  0.00  0.00    +0.068 C 
ATOM     33  C   UNL     1      32.224 -12.282 -20.594  0.00  0.00    +0.228 C 
ATOM     34  H   UNL     1      33.014 -13.498 -19.164  0.00  0.00    +0.157 HD
ENDBRANCH  22  28
ENDBRANCH  21  22
ENDBRANCH  20  21
ENDBRANCH  19  20
ENDBRANCH  18  19
ENDBRANCH   1  18
TORSDOF 7
ENDMDL
MODEL 9
REMARK VINA RESULT:     -11.3      5.204      8.595
REMARK  Name = 11697676
REMARK  7 active torsions:
REMARK  status: ('A' for Active; 'I' for Inactive)
REMARK    1  A    between atoms: N_1  and  C_18
REMARK    2  A    between atoms: N_2  and  C_8
REMARK    3  A    between atoms: C_18  and  C_19
REMARK    4  A    between atoms: C_19  and  C_20
REMARK    5  A    between atoms: C_20  and  C_21
REMARK    6  A    between atoms: C_21  and  O_22
REMARK    7  A    between atoms: O_22  and  C_28
REMARK                            x       y       z     vdW  Elec       q    Type
REMARK                         _______ _______ _______ _____ _____    ______ ____
ROOT
ATOM      1  N   UNL     1      32.447 -12.698 -22.443  0.00  0.00    +0.389 N 
ATOM      2  N   UNL     1      32.074  -9.880 -22.723  0.00  0.00    -0.312 N 
ATOM      3  C   UNL     1      31.851 -11.916 -21.352  0.00  0.00    -0.055 C 
ATOM      4  C   UNL     1      33.439 -11.884 -23.157  0.00  0.00    -0.055 C 
ATOM      5  C   UNL     1      31.154 -10.665 -21.892  0.00  0.00    +0.068 C 
ATOM      6  C   UNL     1      32.794 -10.632 -23.756  0.00  0.00    +0.068 C 
ATOM      7  H   UNL     1      31.711 -12.968 -23.095  0.00  0.00    -0.080 HD
ENDROOT
BRANCH   2   8
ATOM      8  C   UNL     1      31.785  -8.526 -22.926  0.00  0.00    +0.048 C 
ATOM      9  C   UNL     1      32.140  -7.514 -21.990  0.00  0.00    +0.013 C 
ATOM     10  C   UNL     1      31.112  -8.139 -24.105  0.00  0.00    +0.015 C 
ATOM     11  C   UNL     1      31.823  -6.159 -22.244  0.00  0.00    +0.001 C 
ATOM     12  C   UNL     1      32.810  -7.852 -20.803  0.00  0.00    +0.001 C 
ATOM     13  C   UNL     1      30.801  -6.805 -24.355  0.00  0.00    +0.001 C 
ATOM     14  C   UNL     1      31.154  -5.821 -23.432  0.00  0.00    +0.000 C 
ATOM     15  C   UNL     1      32.186  -5.181 -21.304  0.00  0.00    +0.000 C 
ATOM     16  C   UNL     1      33.163  -6.868 -19.880  0.00  0.00    +0.000 C 
ATOM     17  C   UNL     1      32.851  -5.534 -20.129  0.00  0.00    +0.000 C 
ENDBRANCH   2   8
BRANCH   1  18
ATOM     18  C   UNL     1      33.064 -13.918 -21.922  0.00  0.00    -0.077 C 
BRANCH  18  19
ATOM     19  C   UNL     1      34.503 -14.039 -22.418  0.00  0.00    -0.019 C 
BRANCH  19  20
ATOM     20  C   UNL     1      34.784 -15.438 -22.963  0.00  0.00    +0.045 C 
BRANCH  20  21
ATOM     21  C   UNL     1      35.291 -16.374 -21.874  0.00  0.00    +0.208 C 
BRANCH  21  22
ATOM     22  O   UNL     1      35.223 -17.720 -22.326  0.00  0.00    -0.452 OA
BRANCH  22  28
ATOM     23  O   UNL     1      32.828 -22.892 -18.295  0.00  0.00    -0.275 OA
ATOM     24  N   UNL     1      33.670 -21.232 -19.642  0.00  0.00    -0.263 N 
ATOM     25  N   UNL     1      34.465 -19.460 -20.992  0.00  0.00    -0.357 NA
ATOM     26  C   UNL     1      36.013 -20.655 -19.571  0.00  0.00    +0.090 C 
ATOM     27  C   UNL     1      36.260 -21.809 -18.648  0.00  0.00    +0.022 C 
ATOM     28  C   UNL     1      35.501 -18.696 -21.405  0.00  0.00    +0.278 C 
ATOM     29  C   UNL     1      34.734 -20.420 -20.076  0.00  0.00    +0.170 C 
ATOM     30  C   UNL     1      35.033 -22.092 -17.796  0.00  0.00    +0.086 C 
ATOM     31  C   UNL     1      37.057 -19.853 -20.034  0.00  0.00    -0.012 C 
ATOM     32  C   UNL     1      36.801 -18.848 -20.959  0.00  0.00    +0.068 C 
ATOM     33  C   UNL     1      33.756 -22.145 -18.609  0.00  0.00    +0.228 C 
ATOM     34  H   UNL     1      32.806 -21.145 -20.106  0.00  0.00    +0.157 HD
ENDBRANCH  22  28
ENDBRANCH  21  22
ENDBRANCH  20  21
ENDBRANCH  19  20
ENDBRANCH  18  19
ENDBRANCH   1  18
TORSDOF 7
ENDMDL
