MODEL 1
REMARK VINA RESULT:     -11.2      0.000      0.000
REMARK  Name = 6433122
REMARK  5 active torsions:
REMARK  status: ('A' for Active; 'I' for Inactive)
REMARK    1  A    between atoms: N_2  and  C_22
REMARK    2  A    between atoms: C_8  and  C_11
REMARK    3  A    between atoms: C_16  and  C_21
REMARK    4  A    between atoms: C_22  and  C_23
REMARK    5  A    between atoms: C_23  and  C_25
REMARK                            x       y       z     vdW  Elec       q    Type
REMARK                         _______ _______ _______ _____ _____    ______ ____
ROOT
ATOM      1  O   UNL     1      37.307 -18.548 -20.826  0.00  0.00    -0.270 OA
ATOM      2  N   UNL     1      33.688 -21.622 -19.271  0.00  0.00    +0.389 N 
ATOM      3  N   UNL     1      35.368 -19.854 -20.773  0.00  0.00    -0.280 N 
ATOM      4  C   UNL     1      35.012 -21.237 -18.761  0.00  0.00    -0.055 C 
ATOM      5  C   UNL     1      33.100 -20.524 -20.053  0.00  0.00    -0.055 C 
ATOM      6  C   UNL     1      35.950 -20.880 -19.912  0.00  0.00    +0.071 C 
ATOM      7  C   UNL     1      34.001 -20.139 -21.227  0.00  0.00    +0.071 C 
ATOM      8  C   UNL     1      36.138 -18.753 -21.155  0.00  0.00    +0.250 C 
ATOM      9  H   UNL     1      33.801 -22.429 -19.884  0.00  0.00    -0.080 HD
ENDROOT
BRANCH   8  11
ATOM     10  N   UNL     1      35.057 -16.033 -20.241  0.00  0.00    -0.311 N 
ATOM     11  C   UNL     1      35.523 -17.745 -22.028  0.00  0.00    +0.067 C 
ATOM     12  C   UNL     1      35.057 -16.529 -21.526  0.00  0.00    +0.053 C 
ATOM     13  C   UNL     1      34.471 -15.558 -22.341  0.00  0.00    +0.024 C 
ATOM     14  C   UNL     1      35.392 -17.984 -23.395  0.00  0.00    +0.006 C 
ATOM     15  C   UNL     1      34.345 -15.817 -23.720  0.00  0.00    +0.002 C 
ATOM     16  C   UNL     1      34.121 -14.464 -21.501  0.00  0.00    +0.084 C 
ATOM     17  C   UNL     1      34.810 -17.034 -24.232  0.00  0.00    +0.000 C 
ATOM     18  C   UNL     1      34.494 -14.786 -20.216  0.00  0.00    +0.072 C 
ATOM     19  H   UNL     1      35.413 -16.506 -19.455  0.00  0.00    +0.152 HD
BRANCH  16  21
ATOM     20  N   UNL     1      32.983 -12.237 -22.187  0.00  0.00    -0.191 NA
ATOM     21  C   UNL     1      33.496 -13.241 -21.878  0.00  0.00    +0.102 C 
ENDBRANCH  16  21
ENDBRANCH   8  11
BRANCH   2  22
ATOM     22  C   UNL     1      32.802 -22.000 -18.171  0.00  0.00    -0.072 C 
BRANCH  22  23
ATOM     23  C   UNL     1      33.463 -23.045 -17.270  0.00  0.00    +0.004 C 
BRANCH  23  25
ATOM     24  F   UNL     1      30.713 -23.610 -12.402  0.00  0.00    -0.204 F 
ATOM     25  C   UNL     1      32.725 -23.197 -15.965  0.00  0.00    -0.024 C 
ATOM     26  C   UNL     1      31.355 -22.990 -15.929  0.00  0.00    -0.002 C 
ATOM     27  C   UNL     1      33.430 -23.541 -14.821  0.00  0.00    -0.002 C 
ATOM     28  C   UNL     1      30.672 -23.130 -14.721  0.00  0.00    +0.029 C 
ATOM     29  C   UNL     1      32.747 -23.682 -13.613  0.00  0.00    +0.029 C 
ATOM     30  C   UNL     1      31.368 -23.476 -13.562  0.00  0.00    +0.140 C 
ENDBRANCH  23  25
ENDBRANCH  22  23
ENDBRANCH   2  22
TORSDOF 5
ENDMDL
MODEL 2
REMARK VINA RESULT:     -10.9      4.051      9.153
REMARK  Name = 6433122
REMARK  5 active torsions:
REMARK  status: ('A' for Active; 'I' for Inactive)
REMARK    1  A    between atoms: N_2  and  C_22
REMARK    2  A    between atoms: C_8  and  C_11
REMARK    3  A    between atoms: C_16  and  C_21
REMARK    4  A    between atoms: C_22  and  C_23
REMARK    5  A    between atoms: C_23  and  C_25
REMARK                            x       y       z     vdW  Elec       q    Type
REMARK                         _______ _______ _______ _____ _____    ______ ____
ROOT
ATOM      1  O   UNL     1      34.237 -19.012 -24.090  0.00  0.00    -0.270 OA
ATOM      2  N   UNL     1      34.054 -14.094 -23.229  0.00  0.00    +0.389 N 
ATOM      3  N   UNL     1      34.781 -16.862 -23.350  0.00  0.00    -0.280 N 
ATOM      4  C   UNL     1      33.311 -15.024 -24.092  0.00  0.00    -0.055 C 
ATOM      5  C   UNL     1      34.541 -14.788 -22.028  0.00  0.00    -0.055 C 
ATOM      6  C   UNL     1      34.197 -16.195 -24.511  0.00  0.00    +0.071 C 
ATOM      7  C   UNL     1      35.446 -15.964 -22.398  0.00  0.00    +0.071 C 
ATOM      8  C   UNL     1      34.738 -18.255 -23.259  0.00  0.00    +0.250 C 
ATOM      9  H   UNL     1      34.860 -13.746 -23.749  0.00  0.00    -0.080 HD
ENDROOT
BRANCH   8  11
ATOM     10  N   UNL     1      33.272 -20.081 -21.280  0.00  0.00    -0.311 N 
ATOM     11  C   UNL     1      35.342 -18.893 -22.082  0.00  0.00    +0.067 C 
ATOM     12  C   UNL     1      34.598 -19.712 -21.232  0.00  0.00    +0.053 C 
ATOM     13  C   UNL     1      35.156 -20.328 -20.109  0.00  0.00    +0.024 C 
ATOM     14  C   UNL     1      36.689 -18.691 -21.786  0.00  0.00    +0.006 C 
ATOM     15  C   UNL     1      36.518 -20.112 -19.823  0.00  0.00    +0.002 C 
ATOM     16  C   UNL     1      34.118 -21.078 -19.486  0.00  0.00    +0.084 C 
ATOM     17  C   UNL     1      37.272 -19.292 -20.672  0.00  0.00    +0.000 C 
ATOM     18  C   UNL     1      32.973 -20.906 -20.229  0.00  0.00    +0.072 C 
ATOM     19  H   UNL     1      32.632 -19.794 -21.970  0.00  0.00    +0.152 HD
BRANCH  16  21
ATOM     20  N   UNL     1      34.276 -22.527 -17.342  0.00  0.00    -0.191 NA
ATOM     21  C   UNL     1      34.205 -21.874 -18.308  0.00  0.00    +0.102 C 
ENDBRANCH  16  21
ENDBRANCH   8  11
BRANCH   2  22
ATOM     22  C   UNL     1      33.216 -12.954 -22.859  0.00  0.00    -0.072 C 
BRANCH  22  23
ATOM     23  C   UNL     1      32.416 -13.251 -21.590  0.00  0.00    +0.004 C 
BRANCH  23  25
ATOM     24  F   UNL     1      31.295  -8.557 -18.712  0.00  0.00    -0.204 F 
ATOM     25  C   UNL     1      32.116 -11.992 -20.818  0.00  0.00    -0.024 C 
ATOM     26  C   UNL     1      32.178 -12.011 -19.433  0.00  0.00    -0.002 C 
ATOM     27  C   UNL     1      31.782 -10.835 -21.506  0.00  0.00    -0.002 C 
ATOM     28  C   UNL     1      31.900 -10.846 -18.719  0.00  0.00    +0.029 C 
ATOM     29  C   UNL     1      31.504  -9.670 -20.792  0.00  0.00    +0.029 C 
ATOM     30  C   UNL     1      31.563  -9.674 -19.398  0.00  0.00    +0.140 C 
ENDBRANCH  23  25
ENDBRANCH  22  23
ENDBRANCH   2  22
TORSDOF 5
ENDMDL
MODEL 3
REMARK VINA RESULT:     -10.7      4.272      9.733
REMARK  Name = 6433122
REMARK  5 active torsions:
REMARK  status: ('A' for Active; 'I' for Inactive)
REMARK    1  A    between atoms: N_2  and  C_22
REMARK    2  A    between atoms: C_8  and  C_11
REMARK    3  A    between atoms: C_16  and  C_21
REMARK    4  A    between atoms: C_22  and  C_23
REMARK    5  A    between atoms: C_23  and  C_25
REMARK                            x       y       z     vdW  Elec       q    Type
REMARK                         _______ _______ _______ _____ _____    ______ ____
ROOT
ATOM      1  O   UNL     1      35.280 -17.926 -23.552  0.00  0.00    -0.270 OA
ATOM      2  N   UNL     1      33.588 -13.966 -21.020  0.00  0.00    +0.389 N 
ATOM      3  N   UNL     1      34.997 -16.300 -21.896  0.00  0.00    -0.280 N 
ATOM      4  C   UNL     1      33.415 -14.472 -22.389  0.00  0.00    -0.055 C 
ATOM      5  C   UNL     1      33.834 -15.077 -20.090  0.00  0.00    -0.055 C 
ATOM      6  C   UNL     1      34.656 -15.239 -22.840  0.00  0.00    +0.071 C 
ATOM      7  C   UNL     1      35.078 -15.870 -20.495  0.00  0.00    +0.071 C 
ATOM      8  C   UNL     1      35.285 -17.582 -22.370  0.00  0.00    +0.250 C 
ATOM      9  H   UNL     1      34.398 -13.347 -21.004  0.00  0.00    -0.080 HD
ENDROOT
BRANCH   8  11
ATOM     10  N   UNL     1      33.303 -19.517 -21.056  0.00  0.00    -0.311 N 
ATOM     11  C   UNL     1      35.632 -18.622 -21.393  0.00  0.00    +0.067 C 
ATOM     12  C   UNL     1      34.663 -19.462 -20.844  0.00  0.00    +0.053 C 
ATOM     13  C   UNL     1      34.974 -20.457 -19.914  0.00  0.00    +0.024 C 
ATOM     14  C   UNL     1      36.955 -18.795 -20.989  0.00  0.00    +0.006 C 
ATOM     15  C   UNL     1      36.315 -20.617 -19.516  0.00  0.00    +0.002 C 
ATOM     16  C   UNL     1      33.754 -21.110 -19.578  0.00  0.00    +0.084 C 
ATOM     17  C   UNL     1      37.294 -19.779 -20.063  0.00  0.00    +0.000 C 
ATOM     18  C   UNL     1      32.745 -20.510 -20.296  0.00  0.00    +0.072 C 
ATOM     19  H   UNL     1      32.804 -18.929 -21.668  0.00  0.00    +0.152 HD
BRANCH  16  21
ATOM     20  N   UNL     1      33.412 -23.076 -17.923  0.00  0.00    -0.191 NA
ATOM     21  C   UNL     1      33.566 -22.190 -18.669  0.00  0.00    +0.102 C 
ENDBRANCH  16  21
ENDBRANCH   8  11
BRANCH   2  22
ATOM     22  C   UNL     1      32.414 -13.199 -20.603  0.00  0.00    -0.072 C 
BRANCH  22  23
ATOM     23  C   UNL     1      31.933 -12.280 -21.727  0.00  0.00    +0.004 C 
BRANCH  23  25
ATOM     24  F   UNL     1      31.781  -6.909 -20.082  0.00  0.00    -0.204 F 
ATOM     25  C   UNL     1      31.893 -10.839 -21.286  0.00  0.00    -0.024 C 
ATOM     26  C   UNL     1      31.719 -10.544 -19.942  0.00  0.00    -0.002 C 
ATOM     27  C   UNL     1      32.029  -9.834 -22.231  0.00  0.00    -0.002 C 
ATOM     28  C   UNL     1      31.682  -9.210 -19.534  0.00  0.00    +0.029 C 
ATOM     29  C   UNL     1      31.992  -8.501 -21.823  0.00  0.00    +0.029 C 
ATOM     30  C   UNL     1      31.818  -8.188 -20.474  0.00  0.00    +0.140 C 
ENDBRANCH  23  25
ENDBRANCH  22  23
ENDBRANCH   2  22
TORSDOF 5
ENDMDL
MODEL 4
REMARK VINA RESULT:     -10.4      4.227     10.098
REMARK  Name = 6433122
REMARK  5 active torsions:
REMARK  status: ('A' for Active; 'I' for Inactive)
REMARK    1  A    between atoms: N_2  and  C_22
REMARK    2  A    between atoms: C_8  and  C_11
REMARK    3  A    between atoms: C_16  and  C_21
REMARK    4  A    between atoms: C_22  and  C_23
REMARK    5  A    between atoms: C_23  and  C_25
REMARK                            x       y       z     vdW  Elec       q    Type
REMARK                         _______ _______ _______ _____ _____    ______ ____
ROOT
ATOM      1  O   UNL     1      33.199 -22.746 -17.121  0.00  0.00    -0.270 OA
ATOM      2  N   UNL     1      35.703 -20.133 -20.566  0.00  0.00    +0.389 N 
ATOM      3  N   UNL     1      34.913 -21.952 -18.499  0.00  0.00    -0.280 N 
ATOM      4  C   UNL     1      34.284 -20.296 -20.217  0.00  0.00    -0.055 C 
ATOM      5  C   UNL     1      36.548 -20.319 -19.377  0.00  0.00    -0.055 C 
ATOM      6  C   UNL     1      34.030 -21.683 -19.631  0.00  0.00    +0.071 C 
ATOM      7  C   UNL     1      36.336 -21.703 -18.760  0.00  0.00    +0.071 C 
ATOM      8  C   UNL     1      34.383 -22.476 -17.317  0.00  0.00    +0.250 C 
ATOM      9  H   UNL     1      35.950 -20.846 -21.252  0.00  0.00    -0.080 HD
ENDROOT
BRANCH   8  11
ATOM     10  N   UNL     1      33.625 -23.830 -14.674  0.00  0.00    -0.311 N 
ATOM     11  C   UNL     1      35.302 -22.741 -16.203  0.00  0.00    +0.067 C 
ATOM     12  C   UNL     1      34.871 -23.366 -15.032  0.00  0.00    +0.053 C 
ATOM     13  C   UNL     1      35.730 -23.628 -13.963  0.00  0.00    +0.024 C 
ATOM     14  C   UNL     1      36.644 -22.372 -16.293  0.00  0.00    +0.006 C 
ATOM     15  C   UNL     1      37.082 -23.246 -14.070  0.00  0.00    +0.002 C 
ATOM     16  C   UNL     1      34.957 -24.266 -12.952  0.00  0.00    +0.084 C 
ATOM     17  C   UNL     1      37.524 -22.620 -15.242  0.00  0.00    +0.000 C 
ATOM     18  C   UNL     1      33.667 -24.376 -13.419  0.00  0.00    +0.072 C 
ATOM     19  H   UNL     1      32.821 -23.779 -15.239  0.00  0.00    +0.152 HD
BRANCH  16  21
ATOM     20  N   UNL     1      35.756 -25.096 -10.630  0.00  0.00    -0.191 NA
ATOM     21  C   UNL     1      35.396 -24.722 -11.676  0.00  0.00    +0.102 C 
ENDBRANCH  16  21
ENDBRANCH   8  11
BRANCH   2  22
ATOM     22  C   UNL     1      35.939 -18.819 -21.163  0.00  0.00    -0.072 C 
BRANCH  22  23
ATOM     23  C   UNL     1      35.453 -18.781 -22.613  0.00  0.00    +0.004 C 
BRANCH  23  25
ATOM     24  F   UNL     1      33.856 -13.608 -24.119  0.00  0.00    -0.204 F 
ATOM     25  C   UNL     1      35.024 -17.394 -23.017  0.00  0.00    -0.024 C 
ATOM     26  C   UNL     1      34.522 -17.180 -24.291  0.00  0.00    -0.002 C 
ATOM     27  C   UNL     1      35.139 -16.354 -22.106  0.00  0.00    -0.002 C 
ATOM     28  C   UNL     1      34.126 -15.896 -24.665  0.00  0.00    +0.029 C 
ATOM     29  C   UNL     1      34.742 -15.070 -22.480  0.00  0.00    +0.029 C 
ATOM     30  C   UNL     1      34.235 -14.840 -23.759  0.00  0.00    +0.140 C 
ENDBRANCH  23  25
ENDBRANCH  22  23
ENDBRANCH   2  22
TORSDOF 5
ENDMDL
MODEL 5
REMARK VINA RESULT:     -10.3      1.418      2.391
REMARK  Name = 6433122
REMARK  5 active torsions:
REMARK  status: ('A' for Active; 'I' for Inactive)
REMARK    1  A    between atoms: N_2  and  C_22
REMARK    2  A    between atoms: C_8  and  C_11
REMARK    3  A    between atoms: C_16  and  C_21
REMARK    4  A    between atoms: C_22  and  C_23
REMARK    5  A    between atoms: C_23  and  C_25
REMARK                            x       y       z     vdW  Elec       q    Type
REMARK                         _______ _______ _______ _____ _____    ______ ____
ROOT
ATOM      1  O   UNL     1      37.410 -18.692 -20.676  0.00  0.00    -0.270 OA
ATOM      2  N   UNL     1      33.816 -21.851 -19.238  0.00  0.00    +0.389 N 
ATOM      3  N   UNL     1      35.379 -19.844 -20.556  0.00  0.00    -0.280 N 
ATOM      4  C   UNL     1      35.246 -21.700 -18.933  0.00  0.00    -0.055 C 
ATOM      5  C   UNL     1      33.222 -20.548 -19.574  0.00  0.00    -0.055 C 
ATOM      6  C   UNL     1      35.990 -21.100 -20.125  0.00  0.00    +0.071 C 
ATOM      7  C   UNL     1      33.929 -19.912 -20.772  0.00  0.00    +0.071 C 
ATOM      8  C   UNL     1      36.185 -18.729 -20.795  0.00  0.00    +0.250 C 
ATOM      9  H   UNL     1      33.722 -22.466 -20.047  0.00  0.00    -0.080 HD
ENDROOT
BRANCH   8  11
ATOM     10  N   UNL     1      35.189 -18.155 -23.637  0.00  0.00    -0.311 N 
ATOM     11  C   UNL     1      35.538 -17.487 -21.235  0.00  0.00    +0.067 C 
ATOM     12  C   UNL     1      35.113 -17.310 -22.552  0.00  0.00    +0.053 C 
ATOM     13  C   UNL     1      34.494 -16.136 -22.988  0.00  0.00    +0.024 C 
ATOM     14  C   UNL     1      35.329 -16.444 -20.333  0.00  0.00    +0.006 C 
ATOM     15  C   UNL     1      34.293 -15.092 -22.064  0.00  0.00    +0.002 C 
ATOM     16  C   UNL     1      34.201 -16.308 -24.370  0.00  0.00    +0.084 C 
ATOM     17  C   UNL     1      34.715 -15.261 -20.740  0.00  0.00    +0.000 C 
ATOM     18  C   UNL     1      34.640 -17.558 -24.740  0.00  0.00    +0.072 C 
ATOM     19  H   UNL     1      35.579 -19.058 -23.621  0.00  0.00    +0.152 HD
BRANCH  16  21
ATOM     20  N   UNL     1      33.055 -14.620 -25.970  0.00  0.00    -0.191 NA
ATOM     21  C   UNL     1      33.572 -15.380 -25.249  0.00  0.00    +0.102 C 
ENDBRANCH  16  21
ENDBRANCH   8  11
BRANCH   2  22
ATOM     22  C   UNL     1      33.112 -22.461 -18.111  0.00  0.00    -0.072 C 
BRANCH  22  23
ATOM     23  C   UNL     1      34.080 -22.793 -16.975  0.00  0.00    +0.004 C 
BRANCH  23  25
ATOM     24  F   UNL     1      31.433 -25.213 -12.649  0.00  0.00    -0.204 F 
ATOM     25  C   UNL     1      33.370 -23.442 -15.814  0.00  0.00    -0.024 C 
ATOM     26  C   UNL     1      34.113 -23.950 -14.760  0.00  0.00    -0.002 C 
ATOM     27  C   UNL     1      31.986 -23.520 -15.821  0.00  0.00    -0.002 C 
ATOM     28  C   UNL     1      33.456 -24.550 -13.686  0.00  0.00    +0.029 C 
ATOM     29  C   UNL     1      31.329 -24.120 -14.747  0.00  0.00    +0.029 C 
ATOM     30  C   UNL     1      32.063 -24.636 -13.679  0.00  0.00    +0.140 C 
ENDBRANCH  23  25
ENDBRANCH  22  23
ENDBRANCH   2  22
TORSDOF 5
ENDMDL
MODEL 6
REMARK VINA RESULT:     -10.3      4.166      9.080
REMARK  Name = 6433122
REMARK  5 active torsions:
REMARK  status: ('A' for Active; 'I' for Inactive)
REMARK    1  A    between atoms: N_2  and  C_22
REMARK    2  A    between atoms: C_8  and  C_11
REMARK    3  A    between atoms: C_16  and  C_21
REMARK    4  A    between atoms: C_22  and  C_23
REMARK    5  A    between atoms: C_23  and  C_25
REMARK                            x       y       z     vdW  Elec       q    Type
REMARK                         _______ _______ _______ _____ _____    ______ ____
ROOT
ATOM      1  O   UNL     1      34.672 -19.553 -23.538  0.00  0.00    -0.270 OA
ATOM      2  N   UNL     1      34.812 -14.745 -22.186  0.00  0.00    +0.389 N 
ATOM      3  N   UNL     1      35.007 -17.601 -22.295  0.00  0.00    -0.280 N 
ATOM      4  C   UNL     1      34.591 -15.460 -23.451  0.00  0.00    -0.055 C 
ATOM      5  C   UNL     1      34.366 -15.564 -21.049  0.00  0.00    -0.055 C 
ATOM      6  C   UNL     1      35.349 -16.787 -23.459  0.00  0.00    +0.071 C 
ATOM      7  C   UNL     1      35.107 -16.902 -21.009  0.00  0.00    +0.071 C 
ATOM      8  C   UNL     1      34.693 -18.951 -22.464  0.00  0.00    +0.250 C 
ATOM      9  H   UNL     1      35.811 -14.570 -22.084  0.00  0.00    -0.080 HD
ENDROOT
BRANCH   8  11
ATOM     10  N   UNL     1      36.719 -20.038 -20.436  0.00  0.00    -0.311 N 
ATOM     11  C   UNL     1      34.362 -19.741 -21.271  0.00  0.00    +0.067 C 
ATOM     12  C   UNL     1      35.351 -20.196 -20.398  0.00  0.00    +0.053 C 
ATOM     13  C   UNL     1      35.056 -20.947 -19.258  0.00  0.00    +0.024 C 
ATOM     14  C   UNL     1      33.036 -20.056 -20.980  0.00  0.00    +0.006 C 
ATOM     15  C   UNL     1      33.710 -21.257 -18.980  0.00  0.00    +0.002 C 
ATOM     16  C   UNL     1      36.293 -21.232 -18.615  0.00  0.00    +0.084 C 
ATOM     17  C   UNL     1      32.712 -20.804 -19.850  0.00  0.00    +0.000 C 
ATOM     18  C   UNL     1      37.297 -20.660 -19.362  0.00  0.00    +0.072 C 
ATOM     19  H   UNL     1      37.210 -19.547 -21.134  0.00  0.00    +0.152 HD
BRANCH  16  21
ATOM     20  N   UNL     1      36.672 -22.579 -16.432  0.00  0.00    -0.191 NA
ATOM     21  C   UNL     1      36.501 -21.972 -17.415  0.00  0.00    +0.102 C 
ENDBRANCH  16  21
ENDBRANCH   8  11
BRANCH   2  22
ATOM     22  C   UNL     1      34.118 -13.458 -22.195  0.00  0.00    -0.072 C 
BRANCH  22  23
ATOM     23  C   UNL     1      32.731 -13.580 -21.560  0.00  0.00    +0.004 C 
BRANCH  23  25
ATOM     24  F   UNL     1      31.163  -8.778 -19.098  0.00  0.00    -0.204 F 
ATOM     25  C   UNL     1      32.310 -12.292 -20.900  0.00  0.00    -0.024 C 
ATOM     26  C   UNL     1      31.940 -11.212 -21.687  0.00  0.00    -0.002 C 
ATOM     27  C   UNL     1      32.300 -12.208 -19.516  0.00  0.00    -0.002 C 
ATOM     28  C   UNL     1      31.551 -10.020 -21.076  0.00  0.00    +0.029 C 
ATOM     29  C   UNL     1      31.910 -11.017 -18.904  0.00  0.00    +0.029 C 
ATOM     30  C   UNL     1      31.535  -9.922 -19.684  0.00  0.00    +0.140 C 
ENDBRANCH  23  25
ENDBRANCH  22  23
ENDBRANCH   2  22
TORSDOF 5
ENDMDL
MODEL 7
REMARK VINA RESULT:     -10.1      3.908      7.154
REMARK  Name = 6433122
REMARK  5 active torsions:
REMARK  status: ('A' for Active; 'I' for Inactive)
REMARK    1  A    between atoms: N_2  and  C_22
REMARK    2  A    between atoms: C_8  and  C_11
REMARK    3  A    between atoms: C_16  and  C_21
REMARK    4  A    between atoms: C_22  and  C_23
REMARK    5  A    between atoms: C_23  and  C_25
REMARK                            x       y       z     vdW  Elec       q    Type
REMARK                         _______ _______ _______ _____ _____    ______ ____
ROOT
ATOM      1  O   UNL     1      33.210 -11.884 -24.326  0.00  0.00    -0.270 OA
ATOM      2  N   UNL     1      34.456 -15.963 -21.723  0.00  0.00    +0.389 N 
ATOM      3  N   UNL     1      33.213 -13.581 -22.717  0.00  0.00    -0.280 N 
ATOM      4  C   UNL     1      34.852 -15.401 -23.022  0.00  0.00    -0.055 C 
ATOM      5  C   UNL     1      34.062 -14.889 -20.799  0.00  0.00    -0.055 C 
ATOM      6  C   UNL     1      33.704 -14.604 -23.637  0.00  0.00    +0.071 C 
ATOM      7  C   UNL     1      32.903 -14.069 -21.368  0.00  0.00    +0.071 C 
ATOM      8  C   UNL     1      33.010 -12.278 -23.177  0.00  0.00    +0.250 C 
ATOM      9  H   UNL     1      33.653 -16.575 -21.868  0.00  0.00    -0.080 HD
ENDROOT
BRANCH   8  11
ATOM     10  N   UNL     1      33.605  -9.272 -23.283  0.00  0.00    -0.311 N 
ATOM     11  C   UNL     1      32.509 -11.277 -22.226  0.00  0.00    +0.067 C 
ATOM     12  C   UNL     1      32.830  -9.925 -22.350  0.00  0.00    +0.053 C 
ATOM     13  C   UNL     1      32.362  -8.959 -21.457  0.00  0.00    +0.024 C 
ATOM     14  C   UNL     1      31.690 -11.662 -21.165  0.00  0.00    +0.006 C 
ATOM     15  C   UNL     1      31.536  -9.365 -20.390  0.00  0.00    +0.002 C 
ATOM     16  C   UNL     1      32.882  -7.706 -21.887  0.00  0.00    +0.084 C 
ATOM     17  C   UNL     1      31.209 -10.720 -20.258  0.00  0.00    +0.000 C 
ATOM     18  C   UNL     1      33.642  -7.931 -23.012  0.00  0.00    +0.072 C 
ATOM     19  H   UNL     1      34.064  -9.707 -24.038  0.00  0.00    +0.152 HD
BRANCH  16  21
ATOM     20  N   UNL     1      32.514  -5.379 -20.803  0.00  0.00    -0.191 NA
ATOM     21  C   UNL     1      32.680  -6.428 -21.291  0.00  0.00    +0.102 C 
ENDBRANCH  16  21
ENDBRANCH   8  11
BRANCH   2  22
ATOM     22  C   UNL     1      35.543 -16.757 -21.153  0.00  0.00    -0.072 C 
BRANCH  22  23
ATOM     23  C   UNL     1      35.677 -18.100 -21.874  0.00  0.00    +0.004 C 
BRANCH  23  25
ATOM     24  F   UNL     1      35.045 -22.414 -18.329  0.00  0.00    -0.204 F 
ATOM     25  C   UNL     1      35.507 -19.257 -20.923  0.00  0.00    -0.024 C 
ATOM     26  C   UNL     1      34.245 -19.794 -20.723  0.00  0.00    -0.002 C 
ATOM     27  C   UNL     1      36.617 -19.766 -20.265  0.00  0.00    -0.002 C 
ATOM     28  C   UNL     1      34.088 -20.866 -19.843  0.00  0.00    +0.029 C 
ATOM     29  C   UNL     1      36.461 -20.837 -19.386  0.00  0.00    +0.029 C 
ATOM     30  C   UNL     1      35.196 -21.387 -19.174  0.00  0.00    +0.140 C 
ENDBRANCH  23  25
ENDBRANCH  22  23
ENDBRANCH   2  22
TORSDOF 5
ENDMDL
MODEL 8
REMARK VINA RESULT:     -10.1      6.382     10.612
REMARK  Name = 6433122
REMARK  5 active torsions:
REMARK  status: ('A' for Active; 'I' for Inactive)
REMARK    1  A    between atoms: N_2  and  C_22
REMARK    2  A    between atoms: C_8  and  C_11
REMARK    3  A    between atoms: C_16  and  C_21
REMARK    4  A    between atoms: C_22  and  C_23
REMARK    5  A    between atoms: C_23  and  C_25
REMARK                            x       y       z     vdW  Elec       q    Type
REMARK                         _______ _______ _______ _____ _____    ______ ____
ROOT
ATOM      1  O   UNL     1      35.255  -8.155 -23.637  0.00  0.00    -0.270 OA
ATOM      2  N   UNL     1      32.839 -12.439 -22.758  0.00  0.00    +0.389 N 
ATOM      3  N   UNL     1      33.551  -9.709 -23.254  0.00  0.00    -0.280 N 
ATOM      4  C   UNL     1      34.215 -12.083 -23.136  0.00  0.00    -0.055 C 
ATOM      5  C   UNL     1      32.227 -11.358 -21.973  0.00  0.00    -0.055 C 
ATOM      6  C   UNL     1      34.232 -10.795 -23.955  0.00  0.00    +0.071 C 
ATOM      7  C   UNL     1      32.210 -10.046 -22.760  0.00  0.00    +0.071 C 
ATOM      8  C   UNL     1      34.158  -8.455 -23.166  0.00  0.00    +0.250 C 
ATOM      9  H   UNL     1      32.294 -12.568 -23.610  0.00  0.00    -0.080 HD
ENDROOT
BRANCH   8  11
ATOM     10  N   UNL     1      32.651  -6.144 -24.504  0.00  0.00    -0.311 N 
ATOM     11  C   UNL     1      33.441  -7.385 -22.460  0.00  0.00    +0.067 C 
ATOM     12  C   UNL     1      32.779  -6.369 -23.151  0.00  0.00    +0.053 C 
ATOM     13  C   UNL     1      32.091  -5.344 -22.497  0.00  0.00    +0.024 C 
ATOM     14  C   UNL     1      33.403  -7.362 -21.067  0.00  0.00    +0.006 C 
ATOM     15  C   UNL     1      32.064  -5.336 -21.089  0.00  0.00    +0.002 C 
ATOM     16  C   UNL     1      31.546  -4.499 -23.505  0.00  0.00    +0.084 C 
ATOM     17  C   UNL     1      32.725  -6.352 -20.388  0.00  0.00    +0.000 C 
ATOM     18  C   UNL     1      31.908  -5.016 -24.727  0.00  0.00    +0.072 C 
ATOM     19  H   UNL     1      33.037  -6.713 -25.208  0.00  0.00    +0.152 HD
BRANCH  16  21
ATOM     20  N   UNL     1      30.124  -2.356 -23.178  0.00  0.00    -0.191 NA
ATOM     21  C   UNL     1      30.764  -3.322 -23.325  0.00  0.00    +0.102 C 
ENDBRANCH  16  21
ENDBRANCH   8  11
BRANCH   2  22
ATOM     22  C   UNL     1      32.821 -13.693 -22.006  0.00  0.00    -0.072 C 
BRANCH  22  23
ATOM     23  C   UNL     1      34.215 -14.035 -21.477  0.00  0.00    +0.004 C 
BRANCH  23  25
ATOM     24  F   UNL     1      35.768 -19.228 -22.962  0.00  0.00    -0.204 F 
ATOM     25  C   UNL     1      34.632 -15.428 -21.876  0.00  0.00    -0.024 C 
ATOM     26  C   UNL     1      34.617 -15.786 -23.215  0.00  0.00    -0.002 C 
ATOM     27  C   UNL     1      35.023 -16.328 -20.895  0.00  0.00    -0.002 C 
ATOM     28  C   UNL     1      35.003 -17.075 -23.583  0.00  0.00    +0.029 C 
ATOM     29  C   UNL     1      35.409 -17.616 -21.264  0.00  0.00    +0.029 C 
ATOM     30  C   UNL     1      35.399 -17.991 -22.608  0.00  0.00    +0.140 C 
ENDBRANCH  23  25
ENDBRANCH  22  23
ENDBRANCH   2  22
TORSDOF 5
ENDMDL
MODEL 9
REMARK VINA RESULT:     -10.0      4.473      9.871
REMARK  Name = 6433122
REMARK  5 active torsions:
REMARK  status: ('A' for Active; 'I' for Inactive)
REMARK    1  A    between atoms: N_2  and  C_22
REMARK    2  A    between atoms: C_8  and  C_11
REMARK    3  A    between atoms: C_16  and  C_21
REMARK    4  A    between atoms: C_22  and  C_23
REMARK    5  A    between atoms: C_23  and  C_25
REMARK                            x       y       z     vdW  Elec       q    Type
REMARK                         _______ _______ _______ _____ _____    ______ ____
ROOT
ATOM      1  O   UNL     1      34.658 -19.431 -23.443  0.00  0.00    -0.270 OA
ATOM      2  N   UNL     1      34.888 -14.712 -21.819  0.00  0.00    +0.389 N 
ATOM      3  N   UNL     1      35.040 -17.559 -22.096  0.00  0.00    -0.280 N 
ATOM      4  C   UNL     1      34.639 -15.349 -23.119  0.00  0.00    -0.055 C 
ATOM      5  C   UNL     1      34.447 -15.589 -20.724  0.00  0.00    -0.055 C 
ATOM      6  C   UNL     1      35.376 -16.683 -23.216  0.00  0.00    +0.071 C 
ATOM      7  C   UNL     1      35.169 -16.937 -20.772  0.00  0.00    +0.071 C 
ATOM      8  C   UNL     1      34.703 -18.893 -22.337  0.00  0.00    +0.250 C 
ATOM      9  H   UNL     1      35.892 -14.557 -21.723  0.00  0.00    -0.080 HD
ENDROOT
BRANCH   8  11
ATOM     10  N   UNL     1      36.718 -19.934 -20.275  0.00  0.00    -0.311 N 
ATOM     11  C   UNL     1      34.379 -19.746 -21.187  0.00  0.00    +0.067 C 
ATOM     12  C   UNL     1      35.362 -20.174 -20.294  0.00  0.00    +0.053 C 
ATOM     13  C   UNL     1      35.072 -20.985 -19.194  0.00  0.00    +0.024 C 
ATOM     14  C   UNL     1      33.064 -20.149 -20.957  0.00  0.00    +0.006 C 
ATOM     15  C   UNL     1      33.739 -21.384 -18.978  0.00  0.00    +0.002 C 
ATOM     16  C   UNL     1      36.301 -21.220 -18.514  0.00  0.00    +0.084 C 
ATOM     17  C   UNL     1      32.746 -20.957 -19.868  0.00  0.00    +0.000 C 
ATOM     18  C   UNL     1      37.294 -20.562 -19.203  0.00  0.00    +0.072 C 
ATOM     19  H   UNL     1      37.203 -19.389 -20.935  0.00  0.00    +0.152 HD
BRANCH  16  21
ATOM     20  N   UNL     1      36.683 -22.624 -16.368  0.00  0.00    -0.191 NA
ATOM     21  C   UNL     1      36.510 -21.992 -17.335  0.00  0.00    +0.102 C 
ENDBRANCH  16  21
ENDBRANCH   8  11
BRANCH   2  22
ATOM     22  C   UNL     1      34.213 -13.417 -21.742  0.00  0.00    -0.072 C 
BRANCH  22  23
ATOM     23  C   UNL     1      33.802 -12.931 -23.133  0.00  0.00    +0.004 C 
BRANCH  23  25
ATOM     24  F   UNL     1      30.628  -8.302 -22.846  0.00  0.00    -0.204 F 
ATOM     25  C   UNL     1      32.951 -11.689 -23.056  0.00  0.00    -0.024 C 
ATOM     26  C   UNL     1      33.248 -10.609 -23.873  0.00  0.00    -0.002 C 
ATOM     27  C   UNL     1      31.885 -11.649 -22.170  0.00  0.00    -0.002 C 
ATOM     28  C   UNL     1      32.460  -9.460 -23.801  0.00  0.00    +0.029 C 
ATOM     29  C   UNL     1      31.097 -10.501 -22.100  0.00  0.00    +0.029 C 
ATOM     30  C   UNL     1      31.384  -9.405 -22.915  0.00  0.00    +0.140 C 
ENDBRANCH  23  25
ENDBRANCH  22  23
ENDBRANCH   2  22
TORSDOF 5
ENDMDL
