MODEL 1
REMARK VINA RESULT:     -12.9      0.000      0.000
REMARK  Name = 23656870
REMARK  4 active torsions:
REMARK  status: ('A' for Active; 'I' for Inactive)
REMARK    1  A    between atoms: N_2  and  C_25
REMARK    2  A    between atoms: N_3  and  C_14
REMARK    3  A    between atoms: C_10  and  C_32
REMARK    4  A    between atoms: C_16  and  N_21
REMARK                            x       y       z     vdW  Elec       q    Type
REMARK                         _______ _______ _______ _____ _____    ______ ____
ROOT
ATOM      1  N   UNL     1      31.947 -23.413 -14.724  0.00  0.00    -0.123 N 
ATOM      2  N   UNL     1      34.199 -23.932 -14.248  0.00  0.00    -0.274 N 
ATOM      3  N   UNL     1      32.826 -22.259 -18.454  0.00  0.00    -0.238 N 
ATOM      4  N   UNL     1      33.518 -23.095 -16.357  0.00  0.00    -0.295 NA
ATOM      5  N   UNL     1      31.228 -22.581 -16.804  0.00  0.00    -0.314 NA
ATOM      6  N   UNL     1      31.537 -23.774 -13.494  0.00  0.00    -0.170 NA
ATOM      7  C   UNL     1      33.267 -23.477 -15.139  0.00  0.00    +0.279 C 
ATOM      8  C   UNL     1      30.945 -22.974 -15.541  0.00  0.00    +0.219 C 
ATOM      9  C   UNL     1      32.486 -22.648 -17.180  0.00  0.00    +0.207 C 
ATOM     10  C   UNL     1      29.795 -23.055 -14.790  0.00  0.00    +0.203 C 
ATOM     11  C   UNL     1      30.220 -23.552 -13.541  0.00  0.00    +0.116 C 
ATOM     12  H   UNL     1      33.859 -24.186 -13.359  0.00  0.00    +0.156 HD
ATOM     13  H   UNL     1      32.134 -22.385 -19.143  0.00  0.00    +0.166 HD
ENDROOT
BRANCH   3  14
ATOM     14  C   UNL     1      34.029 -21.709 -18.892  0.00  0.00    +0.060 C 
ATOM     15  C   UNL     1      34.040 -20.824 -19.970  0.00  0.00    +0.030 C 
ATOM     16  C   UNL     1      35.244 -20.272 -20.407  0.00  0.00    +0.052 C 
ATOM     17  C   UNL     1      35.222 -22.042 -18.251  0.00  0.00    +0.015 C 
ATOM     18  C   UNL     1      36.437 -20.605 -19.767  0.00  0.00    +0.015 C 
ATOM     19  C   UNL     1      36.427 -21.490 -18.688  0.00  0.00    +0.003 C 
BRANCH  16  21
ATOM     20  O   UNL     1      35.377 -17.265 -20.470  0.00  0.00    -0.275 OA
ATOM     21  N   UNL     1      35.256 -19.388 -21.486  0.00  0.00    -0.284 N 
ATOM     22  C   UNL     1      35.318 -17.988 -21.459  0.00  0.00    +0.227 C 
ATOM     23  C   UNL     1      35.309 -17.400 -22.848  0.00  0.00    +0.095 C 
ATOM     24  H   UNL     1      35.216 -19.799 -22.381  0.00  0.00    +0.155 HD
ENDBRANCH  16  21
ENDBRANCH   3  14
BRANCH   2  25
ATOM     25  C   UNL     1      35.576 -24.084 -14.438  0.00  0.00    +0.051 C 
ATOM     26  C   UNL     1      36.358 -22.983 -14.784  0.00  0.00    +0.015 C 
ATOM     27  C   UNL     1      36.168 -25.338 -14.280  0.00  0.00    +0.015 C 
ATOM     28  C   UNL     1      37.732 -23.134 -14.974  0.00  0.00    +0.001 C 
ATOM     29  C   UNL     1      37.541 -25.489 -14.469  0.00  0.00    +0.001 C 
ATOM     30  C   UNL     1      38.324 -24.388 -14.816  0.00  0.00    +0.000 C 
ENDBRANCH   2  25
BRANCH  10  32
ATOM     31  N   UNL     1      27.409 -22.420 -15.543  0.00  0.00    -0.195 NA
ATOM     32  C   UNL     1      28.482 -22.706 -15.204  0.00  0.00    +0.087 C 
ENDBRANCH  10  32
TORSDOF 4
ENDMDL
MODEL 2
REMARK VINA RESULT:     -12.3      2.223      5.677
REMARK  Name = 23656870
REMARK  4 active torsions:
REMARK  status: ('A' for Active; 'I' for Inactive)
REMARK    1  A    between atoms: N_2  and  C_25
REMARK    2  A    between atoms: N_3  and  C_14
REMARK    3  A    between atoms: C_10  and  C_32
REMARK    4  A    between atoms: C_16  and  N_21
REMARK                            x       y       z     vdW  Elec       q    Type
REMARK                         _______ _______ _______ _____ _____    ______ ____
ROOT
ATOM      1  N   UNL     1      36.372 -24.960 -13.606  0.00  0.00    -0.123 N 
ATOM      2  N   UNL     1      34.026 -24.768 -13.423  0.00  0.00    -0.274 N 
ATOM      3  N   UNL     1      36.525 -22.299 -16.593  0.00  0.00    -0.238 N 
ATOM      4  N   UNL     1      35.272 -23.528 -15.012  0.00  0.00    -0.295 NA
ATOM      5  N   UNL     1      37.646 -23.748 -15.169  0.00  0.00    -0.314 NA
ATOM      6  N   UNL     1      36.439 -25.865 -12.612  0.00  0.00    -0.170 NA
ATOM      7  C   UNL     1      35.187 -24.389 -14.041  0.00  0.00    +0.279 C 
ATOM      8  C   UNL     1      37.579 -24.645 -14.159  0.00  0.00    +0.219 C 
ATOM      9  C   UNL     1      36.511 -23.216 -15.568  0.00  0.00    +0.207 C 
ATOM     10  C   UNL     1      38.505 -25.399 -13.475  0.00  0.00    +0.203 C 
ATOM     11  C   UNL     1      37.747 -26.129 -12.538  0.00  0.00    +0.116 C 
ATOM     12  H   UNL     1      34.119 -25.431 -12.702  0.00  0.00    +0.156 HD
ATOM     13  H   UNL     1      37.340 -21.753 -16.672  0.00  0.00    +0.166 HD
ENDROOT
BRANCH   3  14
ATOM     14  C   UNL     1      35.527 -22.046 -17.532  0.00  0.00    +0.060 C 
ATOM     15  C   UNL     1      35.810 -21.275 -18.660  0.00  0.00    +0.030 C 
ATOM     16  C   UNL     1      34.811 -21.023 -19.600  0.00  0.00    +0.052 C 
ATOM     17  C   UNL     1      34.246 -22.566 -17.346  0.00  0.00    +0.015 C 
ATOM     18  C   UNL     1      33.531 -21.542 -19.414  0.00  0.00    +0.015 C 
ATOM     19  C   UNL     1      33.247 -22.315 -18.287  0.00  0.00    +0.003 C 
BRANCH  16  21
ATOM     20  O   UNL     1      36.848 -18.845 -20.017  0.00  0.00    -0.275 OA
ATOM     21  N   UNL     1      35.093 -20.250 -20.727  0.00  0.00    -0.284 N 
ATOM     22  C   UNL     1      36.057 -19.242 -20.866  0.00  0.00    +0.227 C 
ATOM     23  C   UNL     1      36.045 -18.644 -22.251  0.00  0.00    +0.095 C 
ATOM     24  H   UNL     1      34.546 -20.435 -21.525  0.00  0.00    +0.155 HD
ENDBRANCH  16  21
ENDBRANCH   3  14
BRANCH   2  25
ATOM     25  C   UNL     1      32.724 -24.332 -13.686  0.00  0.00    +0.051 C 
ATOM     26  C   UNL     1      32.503 -23.039 -14.157  0.00  0.00    +0.015 C 
ATOM     27  C   UNL     1      31.645 -25.191 -13.476  0.00  0.00    +0.015 C 
ATOM     28  C   UNL     1      31.204 -22.603 -14.420  0.00  0.00    +0.001 C 
ATOM     29  C   UNL     1      30.346 -24.756 -13.739  0.00  0.00    +0.001 C 
ATOM     30  C   UNL     1      30.125 -23.462 -14.210  0.00  0.00    +0.000 C 
ENDBRANCH   2  25
BRANCH  10  32
ATOM     31  N   UNL     1      41.057 -25.437 -13.862  0.00  0.00    -0.195 NA
ATOM     32  C   UNL     1      39.909 -25.420 -13.688  0.00  0.00    +0.087 C 
ENDBRANCH  10  32
TORSDOF 4
ENDMDL
MODEL 3
REMARK VINA RESULT:     -10.2      2.634      6.288
REMARK  Name = 23656870
REMARK  4 active torsions:
REMARK  status: ('A' for Active; 'I' for Inactive)
REMARK    1  A    between atoms: N_2  and  C_25
REMARK    2  A    between atoms: N_3  and  C_14
REMARK    3  A    between atoms: C_10  and  C_32
REMARK    4  A    between atoms: C_16  and  N_21
REMARK                            x       y       z     vdW  Elec       q    Type
REMARK                         _______ _______ _______ _____ _____    ______ ____
ROOT
ATOM      1  N   UNL     1      31.337 -23.285 -16.406  0.00  0.00    -0.123 N 
ATOM      2  N   UNL     1      32.462 -22.186 -18.166  0.00  0.00    -0.274 N 
ATOM      3  N   UNL     1      34.616 -23.325 -14.111  0.00  0.00    -0.238 N 
ATOM      4  N   UNL     1      33.547 -22.753 -16.137  0.00  0.00    -0.295 NA
ATOM      5  N   UNL     1      32.376 -23.865 -14.376  0.00  0.00    -0.314 NA
ATOM      6  N   UNL     1      30.178 -23.327 -17.088  0.00  0.00    -0.170 NA
ATOM      7  C   UNL     1      32.500 -22.724 -16.908  0.00  0.00    +0.279 C 
ATOM      8  C   UNL     1      31.276 -23.844 -15.162  0.00  0.00    +0.219 C 
ATOM      9  C   UNL     1      33.470 -23.328 -14.870  0.00  0.00    +0.207 C 
ATOM     10  C   UNL     1      29.979 -24.285 -15.021  0.00  0.00    +0.203 C 
ATOM     11  C   UNL     1      29.352 -23.940 -16.235  0.00  0.00    +0.116 C 
ATOM     12  H   UNL     1      31.596 -22.237 -18.631  0.00  0.00    +0.156 HD
ATOM     13  H   UNL     1      34.488 -23.289 -13.136  0.00  0.00    +0.166 HD
ENDROOT
BRANCH   3  14
ATOM     14  C   UNL     1      35.938 -23.366 -14.551  0.00  0.00    +0.060 C 
ATOM     15  C   UNL     1      36.768 -24.421 -14.170  0.00  0.00    +0.030 C 
ATOM     16  C   UNL     1      38.089 -24.463 -14.612  0.00  0.00    +0.052 C 
ATOM     17  C   UNL     1      36.430 -22.353 -15.373  0.00  0.00    +0.015 C 
ATOM     18  C   UNL     1      38.583 -23.450 -15.434  0.00  0.00    +0.015 C 
ATOM     19  C   UNL     1      37.753 -22.395 -15.815  0.00  0.00    +0.003 C 
BRANCH  16  21
ATOM     20  O   UNL     1      41.085 -24.588 -14.331  0.00  0.00    -0.275 OA
ATOM     21  N   UNL     1      38.920 -25.516 -14.229  0.00  0.00    -0.284 N 
ATOM     22  C   UNL     1      40.317 -25.520 -14.116  0.00  0.00    +0.227 C 
ATOM     23  C   UNL     1      40.839 -26.863 -13.672  0.00  0.00    +0.095 C 
ATOM     24  H   UNL     1      38.469 -26.365 -14.011  0.00  0.00    +0.155 HD
ENDBRANCH  16  21
ENDBRANCH   3  14
BRANCH   2  25
ATOM     25  C   UNL     1      33.498 -21.570 -18.875  0.00  0.00    +0.051 C 
ATOM     26  C   UNL     1      34.815 -21.993 -18.694  0.00  0.00    +0.015 C 
ATOM     27  C   UNL     1      33.215 -20.533 -19.764  0.00  0.00    +0.015 C 
ATOM     28  C   UNL     1      35.849 -21.380 -19.401  0.00  0.00    +0.001 C 
ATOM     29  C   UNL     1      34.249 -19.920 -20.472  0.00  0.00    +0.001 C 
ATOM     30  C   UNL     1      35.566 -20.343 -20.291  0.00  0.00    +0.000 C 
ENDBRANCH   2  25
BRANCH  10  32
ATOM     31  N   UNL     1      28.968 -25.477 -12.967  0.00  0.00    -0.195 NA
ATOM     32  C   UNL     1      29.422 -24.940 -13.891  0.00  0.00    +0.087 C 
ENDBRANCH  10  32
TORSDOF 4
ENDMDL
