MODEL 1
REMARK VINA RESULT:     -11.5      0.000      0.000
REMARK  Name = 16045418
REMARK  6 active torsions:
REMARK  status: ('A' for Active; 'I' for Inactive)
REMARK    1  A    between atoms: C_2  and  O_8
REMARK    2  A    between atoms: C_4  and  O_23
REMARK    3  A    between atoms: O_8  and  C_9
REMARK    4  A    between atoms: C_9  and  C_14
REMARK    5  A    between atoms: O_23  and  C_25
REMARK    6  A    between atoms: C_28  and  C_32
REMARK                            x       y       z     vdW  Elec       q    Type
REMARK                         _______ _______ _______ _____ _____    ______ ____
ROOT
ATOM      1 CL   UNL     1      31.868 -10.141 -17.878  0.00  0.00    -0.079 Cl
ATOM      2  C   UNL     1      31.969 -11.918 -22.021  0.00  0.00    +0.142 C 
ATOM      3  C   UNL     1      31.697 -10.561 -21.866  0.00  0.00    +0.075 C 
ATOM      4  C   UNL     1      31.665 -10.003 -20.587  0.00  0.00    +0.159 C 
ATOM      5  C   UNL     1      32.207 -12.721 -20.909  0.00  0.00    +0.038 C 
ATOM      6  C   UNL     1      31.903 -10.804 -19.470  0.00  0.00    +0.092 C 
ATOM      7  C   UNL     1      32.174 -12.163 -19.632  0.00  0.00    +0.018 C 
ENDROOT
BRANCH   2   8
ATOM      8  O   UNL     1      32.000 -12.465 -23.274  0.00  0.00    -0.469 OA
BRANCH   8   9
ATOM      9  C   UNL     1      33.290 -12.626 -23.867  0.00  0.00    +0.249 C 
BRANCH   9  14
ATOM     10  N   UNL     1      32.993 -14.481 -25.491  0.00  0.00    -0.227 N 
ATOM     11  N   UNL     1      33.250 -15.783 -25.738  0.00  0.00    -0.115 NA
ATOM     12  N   UNL     1      34.436 -17.417 -24.394  0.00  0.00    -0.335 NA
ATOM     13  N   UNL     1      35.650 -18.703 -22.796  0.00  0.00    -0.332 N 
ATOM     14  C   UNL     1      33.479 -14.021 -24.298  0.00  0.00    +0.097 C 
ATOM     15  C   UNL     1      34.095 -15.102 -23.732  0.00  0.00    +0.090 C 
ATOM     16  C   UNL     1      33.932 -16.178 -24.657  0.00  0.00    +0.105 C 
ATOM     17  C   UNL     1      34.741 -15.124 -22.505  0.00  0.00    +0.016 C 
ATOM     18  C   UNL     1      35.252 -16.402 -22.255  0.00  0.00    +0.049 C 
ATOM     19  C   UNL     1      35.080 -17.457 -23.185  0.00  0.00    +0.189 C 
ATOM     20  H   UNL     1      32.495 -13.909 -26.120  0.00  0.00    +0.175 HD
ATOM     21  H   UNL     1      35.573 -19.486 -23.389  0.00  0.00    +0.145 HD
ATOM     22  H   UNL     1      36.122 -18.782 -21.935  0.00  0.00    +0.145 HD
ENDBRANCH   9  14
ENDBRANCH   8   9
ENDBRANCH   2   8
BRANCH   4  23
ATOM     23  O   UNL     1      31.398  -8.673 -20.460  0.00  0.00    -0.452 OA
BRANCH  23  25
ATOM     24 CL   UNL     1      35.604  -7.119 -22.866  0.00  0.00    -0.082 Cl
ATOM     25  C   UNL     1      31.975  -7.812 -21.377  0.00  0.00    +0.147 C 
ATOM     26  C   UNL     1      31.178  -6.886 -22.027  0.00  0.00    +0.048 C 
ATOM     27  C   UNL     1      33.334  -7.897 -21.622  0.00  0.00    +0.049 C 
ATOM     28  C   UNL     1      31.759  -6.018 -22.951  0.00  0.00    +0.072 C 
ATOM     29  C   UNL     1      33.915  -7.029 -22.545  0.00  0.00    +0.061 C 
ATOM     30  C   UNL     1      33.128  -6.090 -23.211  0.00  0.00    +0.022 C 
BRANCH  28  32
ATOM     31  N   UNL     1      30.294  -4.271 -24.187  0.00  0.00    -0.191 NA
ATOM     32  C   UNL     1      30.952  -5.056 -23.633  0.00  0.00    +0.101 C 
ENDBRANCH  28  32
ENDBRANCH  23  25
ENDBRANCH   4  23
TORSDOF 6
ENDMDL
MODEL 2
REMARK VINA RESULT:     -11.4      2.917      4.645
REMARK  Name = 16045418
REMARK  6 active torsions:
REMARK  status: ('A' for Active; 'I' for Inactive)
REMARK    1  A    between atoms: C_2  and  O_8
REMARK    2  A    between atoms: C_4  and  O_23
REMARK    3  A    between atoms: O_8  and  C_9
REMARK    4  A    between atoms: C_9  and  C_14
REMARK    5  A    between atoms: O_23  and  C_25
REMARK    6  A    between atoms: C_28  and  C_32
REMARK                            x       y       z     vdW  Elec       q    Type
REMARK                         _______ _______ _______ _____ _____    ______ ____
ROOT
ATOM      1 CL   UNL     1      31.981 -12.554 -19.911  0.00  0.00    -0.079 Cl
ATOM      2  C   UNL     1      34.681 -15.339 -22.209  0.00  0.00    +0.142 C 
ATOM      3  C   UNL     1      33.877 -14.439 -22.904  0.00  0.00    +0.075 C 
ATOM      4  C   UNL     1      33.039 -13.573 -22.200  0.00  0.00    +0.159 C 
ATOM      5  C   UNL     1      34.653 -15.381 -20.819  0.00  0.00    +0.038 C 
ATOM      6  C   UNL     1      33.008 -13.612 -20.806  0.00  0.00    +0.092 C 
ATOM      7  C   UNL     1      33.815 -14.516 -20.116  0.00  0.00    +0.018 C 
ENDROOT
BRANCH   2   8
ATOM      8  O   UNL     1      35.502 -16.188 -22.899  0.00  0.00    -0.469 OA
BRANCH   8   9
ATOM      9  C   UNL     1      35.098 -17.557 -22.960  0.00  0.00    +0.249 C 
BRANCH   9  14
ATOM     10  N   UNL     1      37.147 -18.185 -21.707  0.00  0.00    -0.227 N 
ATOM     11  N   UNL     1      37.647 -18.977 -20.735  0.00  0.00    -0.115 NA
ATOM     12  N   UNL     1      36.535 -20.624 -19.345  0.00  0.00    -0.335 NA
ATOM     13  N   UNL     1      35.091 -22.133 -18.195  0.00  0.00    -0.332 N 
ATOM     14  C   UNL     1      35.807 -18.340 -21.936  0.00  0.00    +0.097 C 
ATOM     15  C   UNL     1      35.411 -19.302 -21.048  0.00  0.00    +0.090 C 
ATOM     16  C   UNL     1      36.583 -19.673 -20.320  0.00  0.00    +0.105 C 
ATOM     17  C   UNL     1      34.125 -19.800 -20.906  0.00  0.00    +0.016 C 
ATOM     18  C   UNL     1      34.097 -20.772 -19.900  0.00  0.00    +0.049 C 
ATOM     19  C   UNL     1      35.269 -21.127 -19.188  0.00  0.00    +0.189 C 
ATOM     20  H   UNL     1      37.703 -17.546 -22.210  0.00  0.00    +0.175 HD
ATOM     21  H   UNL     1      35.858 -22.434 -17.657  0.00  0.00    +0.145 HD
ATOM     22  H   UNL     1      34.201 -22.526 -18.046  0.00  0.00    +0.145 HD
ENDBRANCH   9  14
ENDBRANCH   8   9
ENDBRANCH   2   8
BRANCH   4  23
ATOM     23  O   UNL     1      32.262 -12.700 -22.901  0.00  0.00    -0.452 OA
BRANCH  23  25
ATOM     24 CL   UNL     1      36.077  -9.601 -24.222  0.00  0.00    -0.082 Cl
ATOM     25  C   UNL     1      32.725 -11.403 -23.045  0.00  0.00    +0.147 C 
ATOM     26  C   UNL     1      31.887 -10.348 -22.725  0.00  0.00    +0.048 C 
ATOM     27  C   UNL     1      34.012 -11.192 -23.506  0.00  0.00    +0.049 C 
ATOM     28  C   UNL     1      32.354  -9.042 -22.869  0.00  0.00    +0.072 C 
ATOM     29  C   UNL     1      34.479  -9.886 -23.650  0.00  0.00    +0.061 C 
ATOM     30  C   UNL     1      33.649  -8.810 -23.332  0.00  0.00    +0.022 C 
BRANCH  28  32
ATOM     31  N   UNL     1      30.811  -7.042 -22.279  0.00  0.00    -0.191 NA
ATOM     32  C   UNL     1      31.503  -7.941 -22.544  0.00  0.00    +0.101 C 
ENDBRANCH  28  32
ENDBRANCH  23  25
ENDBRANCH   4  23
TORSDOF 6
ENDMDL
MODEL 3
REMARK VINA RESULT:     -11.0     10.327     14.378
REMARK  Name = 16045418
REMARK  6 active torsions:
REMARK  status: ('A' for Active; 'I' for Inactive)
REMARK    1  A    between atoms: C_2  and  O_8
REMARK    2  A    between atoms: C_4  and  O_23
REMARK    3  A    between atoms: O_8  and  C_9
REMARK    4  A    between atoms: C_9  and  C_14
REMARK    5  A    between atoms: O_23  and  C_25
REMARK    6  A    between atoms: C_28  and  C_32
REMARK                            x       y       z     vdW  Elec       q    Type
REMARK                         _______ _______ _______ _____ _____    ______ ____
ROOT
ATOM      1 CL   UNL     1      30.869 -24.687 -12.400  0.00  0.00    -0.079 Cl
ATOM      2  C   UNL     1      31.785 -22.921 -16.446  0.00  0.00    +0.142 C 
ATOM      3  C   UNL     1      32.825 -23.149 -15.549  0.00  0.00    +0.075 C 
ATOM      4  C   UNL     1      32.550 -23.695 -14.295  0.00  0.00    +0.159 C 
ATOM      5  C   UNL     1      30.474 -23.234 -16.101  0.00  0.00    +0.038 C 
ATOM      6  C   UNL     1      31.238 -24.011 -13.944  0.00  0.00    +0.092 C 
ATOM      7  C   UNL     1      30.200 -23.780 -14.846  0.00  0.00    +0.018 C 
ENDROOT
BRANCH   2   8
ATOM      8  O   UNL     1      32.055 -22.385 -17.675  0.00  0.00    -0.469 OA
BRANCH   8   9
ATOM      9  C   UNL     1      33.405 -22.483 -18.131  0.00  0.00    +0.249 C 
BRANCH   9  14
ATOM     10  N   UNL     1      32.670 -20.901 -19.899  0.00  0.00    -0.227 N 
ATOM     11  N   UNL     1      33.080 -19.971 -20.787  0.00  0.00    -0.115 NA
ATOM     12  N   UNL     1      35.310 -19.137 -21.249  0.00  0.00    -0.335 NA
ATOM     13  N   UNL     1      37.626 -18.590 -21.400  0.00  0.00    -0.332 N 
ATOM     14  C   UNL     1      33.672 -21.453 -19.148  0.00  0.00    +0.097 C 
ATOM     15  C   UNL     1      34.813 -20.835 -19.581  0.00  0.00    +0.090 C 
ATOM     16  C   UNL     1      34.404 -19.921 -20.600  0.00  0.00    +0.105 C 
ATOM     17  C   UNL     1      36.096 -21.068 -19.111  0.00  0.00    +0.016 C 
ATOM     18  C   UNL     1      37.010 -20.254 -19.788  0.00  0.00    +0.049 C 
ATOM     19  C   UNL     1      36.586 -19.353 -20.795  0.00  0.00    +0.189 C 
ATOM     20  H   UNL     1      31.725 -21.161 -19.799  0.00  0.00    +0.175 HD
ATOM     21  H   UNL     1      37.411 -17.941 -22.109  0.00  0.00    +0.145 HD
ATOM     22  H   UNL     1      38.558 -18.711 -21.109  0.00  0.00    +0.145 HD
ENDBRANCH   9  14
ENDBRANCH   8   9
ENDBRANCH   2   8
BRANCH   4  23
ATOM     23  O   UNL     1      33.584 -23.911 -13.433  0.00  0.00    -0.452 OA
BRANCH  23  25
ATOM     24 CL   UNL     1      37.319 -21.452 -15.862  0.00  0.00    -0.082 Cl
ATOM     25  C   UNL     1      34.863 -23.947 -13.962  0.00  0.00    +0.147 C 
ATOM     26  C   UNL     1      35.599 -25.116 -13.870  0.00  0.00    +0.048 C 
ATOM     27  C   UNL     1      35.375 -22.814 -14.569  0.00  0.00    +0.049 C 
ATOM     28  C   UNL     1      36.886 -25.152 -14.404  0.00  0.00    +0.072 C 
ATOM     29  C   UNL     1      36.663 -22.850 -15.103  0.00  0.00    +0.061 C 
ATOM     30  C   UNL     1      37.419 -24.020 -15.019  0.00  0.00    +0.022 C 
BRANCH  28  32
ATOM     31  N   UNL     1      38.293 -27.326 -14.248  0.00  0.00    -0.191 NA
ATOM     32  C   UNL     1      37.661 -26.350 -14.317  0.00  0.00    +0.101 C 
ENDBRANCH  28  32
ENDBRANCH  23  25
ENDBRANCH   4  23
TORSDOF 6
ENDMDL
MODEL 4
REMARK VINA RESULT:     -10.9     10.061     14.564
REMARK  Name = 16045418
REMARK  6 active torsions:
REMARK  status: ('A' for Active; 'I' for Inactive)
REMARK    1  A    between atoms: C_2  and  O_8
REMARK    2  A    between atoms: C_4  and  O_23
REMARK    3  A    between atoms: O_8  and  C_9
REMARK    4  A    between atoms: C_9  and  C_14
REMARK    5  A    between atoms: O_23  and  C_25
REMARK    6  A    between atoms: C_28  and  C_32
REMARK                            x       y       z     vdW  Elec       q    Type
REMARK                         _______ _______ _______ _____ _____    ______ ____
ROOT
ATOM      1 CL   UNL     1      30.597 -24.610 -12.918  0.00  0.00    -0.079 Cl
ATOM      2  C   UNL     1      32.006 -22.692 -16.747  0.00  0.00    +0.142 C 
ATOM      3  C   UNL     1      32.854 -23.562 -16.066  0.00  0.00    +0.075 C 
ATOM      4  C   UNL     1      32.426 -24.160 -14.880  0.00  0.00    +0.159 C 
ATOM      5  C   UNL     1      30.735 -22.416 -16.253  0.00  0.00    +0.038 C 
ATOM      6  C   UNL     1      31.153 -23.886 -14.381  0.00  0.00    +0.092 C 
ATOM      7  C   UNL     1      30.308 -23.014 -15.067  0.00  0.00    +0.018 C 
ENDROOT
BRANCH   2   8
ATOM      8  O   UNL     1      32.426 -22.106 -17.909  0.00  0.00    -0.469 OA
BRANCH   8   9
ATOM      9  C   UNL     1      33.432 -22.803 -18.648  0.00  0.00    +0.249 C 
BRANCH   9  14
ATOM     10  N   UNL     1      35.729 -22.088 -18.033  0.00  0.00    -0.227 N 
ATOM     11  N   UNL     1      36.730 -21.229 -18.317  0.00  0.00    -0.115 NA
ATOM     12  N   UNL     1      36.855 -19.487 -20.001  0.00  0.00    -0.335 NA
ATOM     13  N   UNL     1      36.583 -17.899 -21.758  0.00  0.00    -0.332 N 
ATOM     14  C   UNL     1      34.618 -21.949 -18.819  0.00  0.00    +0.097 C 
ATOM     15  C   UNL     1      34.922 -20.926 -19.675  0.00  0.00    +0.090 C 
ATOM     16  C   UNL     1      36.243 -20.505 -19.331  0.00  0.00    +0.105 C 
ATOM     17  C   UNL     1      34.096 -20.419 -20.666  0.00  0.00    +0.016 C 
ATOM     18  C   UNL     1      34.742 -19.378 -21.341  0.00  0.00    +0.049 C 
ATOM     19  C   UNL     1      36.052 -18.973 -20.987  0.00  0.00    +0.189 C 
ATOM     20  H   UNL     1      35.793 -22.761 -17.316  0.00  0.00    +0.175 HD
ATOM     21  H   UNL     1      37.488 -17.561 -21.573  0.00  0.00    +0.145 HD
ATOM     22  H   UNL     1      36.044 -17.496 -22.477  0.00  0.00    +0.145 HD
ENDBRANCH   9  14
ENDBRANCH   8   9
ENDBRANCH   2   8
BRANCH   4  23
ATOM     23  O   UNL     1      33.272 -25.008 -14.231  0.00  0.00    -0.452 OA
BRANCH  23  25
ATOM     24 CL   UNL     1      37.700 -22.694 -15.200  0.00  0.00    -0.082 Cl
ATOM     25  C   UNL     1      34.454 -24.482 -13.739  0.00  0.00    +0.147 C 
ATOM     26  C   UNL     1      34.698 -24.529 -12.377  0.00  0.00    +0.048 C 
ATOM     27  C   UNL     1      35.364 -23.924 -14.619  0.00  0.00    +0.049 C 
ATOM     28  C   UNL     1      35.889 -24.000 -11.881  0.00  0.00    +0.072 C 
ATOM     29  C   UNL     1      36.555 -23.395 -14.123  0.00  0.00    +0.061 C 
ATOM     30  C   UNL     1      36.818 -23.433 -12.753  0.00  0.00    +0.022 C 
BRANCH  28  32
ATOM     31  N   UNL     1      36.378 -24.070  -9.335  0.00  0.00    -0.191 NA
ATOM     32  C   UNL     1      36.158 -24.039 -10.478  0.00  0.00    +0.101 C 
ENDBRANCH  28  32
ENDBRANCH  23  25
ENDBRANCH   4  23
TORSDOF 6
ENDMDL
MODEL 5
REMARK VINA RESULT:     -10.8     10.994     14.903
REMARK  Name = 16045418
REMARK  6 active torsions:
REMARK  status: ('A' for Active; 'I' for Inactive)
REMARK    1  A    between atoms: C_2  and  O_8
REMARK    2  A    between atoms: C_4  and  O_23
REMARK    3  A    between atoms: O_8  and  C_9
REMARK    4  A    between atoms: C_9  and  C_14
REMARK    5  A    between atoms: O_23  and  C_25
REMARK    6  A    between atoms: C_28  and  C_32
REMARK                            x       y       z     vdW  Elec       q    Type
REMARK                         _______ _______ _______ _____ _____    ______ ____
ROOT
ATOM      1 CL   UNL     1      29.190 -22.415 -16.304  0.00  0.00    -0.079 Cl
ATOM      2  C   UNL     1      32.579 -23.977 -13.774  0.00  0.00    +0.142 C 
ATOM      3  C   UNL     1      32.784 -23.764 -15.135  0.00  0.00    +0.075 C 
ATOM      4  C   UNL     1      31.741 -23.280 -15.925  0.00  0.00    +0.159 C 
ATOM      5  C   UNL     1      31.340 -23.711 -13.198  0.00  0.00    +0.038 C 
ATOM      6  C   UNL     1      30.498 -23.012 -15.352  0.00  0.00    +0.092 C 
ATOM      7  C   UNL     1      30.298 -23.228 -13.988  0.00  0.00    +0.018 C 
ENDROOT
BRANCH   2   8
ATOM      8  O   UNL     1      33.601 -24.452 -13.000  0.00  0.00    -0.469 OA
BRANCH   8   9
ATOM      9  C   UNL     1      34.899 -23.910 -13.255  0.00  0.00    +0.249 C 
BRANCH   9  14
ATOM     10  N   UNL     1      35.328 -25.926 -14.641  0.00  0.00    -0.227 N 
ATOM     11  N   UNL     1      36.267 -26.808 -15.044  0.00  0.00    -0.115 NA
ATOM     12  N   UNL     1      38.627 -26.928 -14.496  0.00  0.00    -0.335 NA
ATOM     13  N   UNL     1      40.870 -26.701 -13.720  0.00  0.00    -0.332 N 
ATOM     14  C   UNL     1      35.786 -24.954 -13.793  0.00  0.00    +0.097 C 
ATOM     15  C   UNL     1      37.117 -25.227 -13.638  0.00  0.00    +0.090 C 
ATOM     16  C   UNL     1      37.378 -26.386 -14.430  0.00  0.00    +0.105 C 
ATOM     17  C   UNL     1      38.011 -24.507 -12.860  0.00  0.00    +0.016 C 
ATOM     18  C   UNL     1      39.285 -25.078 -12.942  0.00  0.00    +0.049 C 
ATOM     19  C   UNL     1      39.526 -26.228 -13.733  0.00  0.00    +0.189 C 
ATOM     20  H   UNL     1      34.389 -25.979 -14.933  0.00  0.00    +0.175 HD
ATOM     21  H   UNL     1      41.117 -27.496 -14.245  0.00  0.00    +0.145 HD
ATOM     22  H   UNL     1      41.551 -26.232 -13.186  0.00  0.00    +0.145 HD
ENDBRANCH   9  14
ENDBRANCH   8   9
ENDBRANCH   2   8
BRANCH   4  23
ATOM     23  O   UNL     1      31.965 -23.078 -17.254  0.00  0.00    -0.452 OA
BRANCH  23  25
ATOM     24 CL   UNL     1      36.925 -22.584 -16.232  0.00  0.00    -0.082 Cl
ATOM     25  C   UNL     1      33.194 -22.562 -17.626  0.00  0.00    +0.147 C 
ATOM     26  C   UNL     1      33.287 -21.810 -18.784  0.00  0.00    +0.048 C 
ATOM     27  C   UNL     1      34.299 -22.809 -16.831  0.00  0.00    +0.049 C 
ATOM     28  C   UNL     1      34.525 -21.288 -19.158  0.00  0.00    +0.072 C 
ATOM     29  C   UNL     1      35.537 -22.288 -17.206  0.00  0.00    +0.061 C 
ATOM     30  C   UNL     1      35.651 -21.528 -18.370  0.00  0.00    +0.022 C 
BRANCH  28  32
ATOM     31  N   UNL     1      34.737 -19.875 -21.323  0.00  0.00    -0.191 NA
ATOM     32  C   UNL     1      34.641 -20.510 -20.351  0.00  0.00    +0.101 C 
ENDBRANCH  28  32
ENDBRANCH  23  25
ENDBRANCH   4  23
TORSDOF 6
ENDMDL
MODEL 6
REMARK VINA RESULT:     -10.7      6.943     10.403
REMARK  Name = 16045418
REMARK  6 active torsions:
REMARK  status: ('A' for Active; 'I' for Inactive)
REMARK    1  A    between atoms: C_2  and  O_8
REMARK    2  A    between atoms: C_4  and  O_23
REMARK    3  A    between atoms: O_8  and  C_9
REMARK    4  A    between atoms: C_9  and  C_14
REMARK    5  A    between atoms: O_23  and  C_25
REMARK    6  A    between atoms: C_28  and  C_32
REMARK                            x       y       z     vdW  Elec       q    Type
REMARK                         _______ _______ _______ _____ _____    ______ ____
ROOT
ATOM      1 CL   UNL     1      38.300 -18.649 -21.614  0.00  0.00    -0.079 Cl
ATOM      2  C   UNL     1      34.651 -20.626 -19.853  0.00  0.00    +0.142 C 
ATOM      3  C   UNL     1      34.550 -19.976 -21.080  0.00  0.00    +0.075 C 
ATOM      4  C   UNL     1      35.675 -19.362 -21.632  0.00  0.00    +0.159 C 
ATOM      5  C   UNL     1      35.865 -20.667 -19.174  0.00  0.00    +0.038 C 
ATOM      6  C   UNL     1      36.894 -19.400 -20.955  0.00  0.00    +0.092 C 
ATOM      7  C   UNL     1      36.988 -20.052 -19.726  0.00  0.00    +0.018 C 
ENDROOT
BRANCH   2   8
ATOM      8  O   UNL     1      33.548 -21.227 -19.311  0.00  0.00    -0.469 OA
BRANCH   8   9
ATOM      9  C   UNL     1      33.702 -22.585 -18.895  0.00  0.00    +0.249 C 
BRANCH   9  14
ATOM     10  N   UNL     1      31.804 -22.672 -17.297  0.00  0.00    -0.227 N 
ATOM     11  N   UNL     1      31.454 -22.865 -16.007  0.00  0.00    -0.115 NA
ATOM     12  N   UNL     1      32.840 -23.351 -14.076  0.00  0.00    -0.335 NA
ATOM     13  N   UNL     1      34.526 -23.812 -12.455  0.00  0.00    -0.332 N 
ATOM     14  C   UNL     1      33.146 -22.767 -17.544  0.00  0.00    +0.097 C 
ATOM     15  C   UNL     1      33.706 -23.042 -16.327  0.00  0.00    +0.090 C 
ATOM     16  C   UNL     1      32.623 -23.094 -15.398  0.00  0.00    +0.105 C 
ATOM     17  C   UNL     1      35.057 -23.226 -16.074  0.00  0.00    +0.016 C 
ATOM     18  C   UNL     1      35.258 -23.488 -14.715  0.00  0.00    +0.049 C 
ATOM     19  C   UNL     1      34.171 -23.537 -13.807  0.00  0.00    +0.189 C 
ATOM     20  H   UNL     1      31.144 -22.479 -18.003  0.00  0.00    +0.175 HD
ATOM     21  H   UNL     1      33.827 -23.862 -11.764  0.00  0.00    +0.145 HD
ATOM     22  H   UNL     1      35.470 -23.952 -12.212  0.00  0.00    +0.145 HD
ENDBRANCH   9  14
ENDBRANCH   8   9
ENDBRANCH   2   8
BRANCH   4  23
ATOM     23  O   UNL     1      35.554 -18.733 -22.835  0.00  0.00    -0.452 OA
BRANCH  23  25
ATOM     24 CL   UNL     1      34.805 -14.426 -20.230  0.00  0.00    -0.082 Cl
ATOM     25  C   UNL     1      35.092 -17.428 -22.833  0.00  0.00    +0.147 C 
ATOM     26  C   UNL     1      34.556 -16.899 -23.994  0.00  0.00    +0.048 C 
ATOM     27  C   UNL     1      35.175 -16.684 -21.669  0.00  0.00    +0.049 C 
ATOM     28  C   UNL     1      34.089 -15.585 -23.991  0.00  0.00    +0.072 C 
ATOM     29  C   UNL     1      34.709 -15.370 -21.666  0.00  0.00    +0.061 C 
ATOM     30  C   UNL     1      34.166 -14.820 -22.828  0.00  0.00    +0.022 C 
BRANCH  28  32
ATOM     31  N   UNL     1      33.079 -14.564 -26.151  0.00  0.00    -0.191 NA
ATOM     32  C   UNL     1      33.534 -15.023 -25.182  0.00  0.00    +0.101 C 
ENDBRANCH  28  32
ENDBRANCH  23  25
ENDBRANCH   4  23
TORSDOF 6
ENDMDL
MODEL 7
REMARK VINA RESULT:     -10.7     12.245     15.185
REMARK  Name = 16045418
REMARK  6 active torsions:
REMARK  status: ('A' for Active; 'I' for Inactive)
REMARK    1  A    between atoms: C_2  and  O_8
REMARK    2  A    between atoms: C_4  and  O_23
REMARK    3  A    between atoms: O_8  and  C_9
REMARK    4  A    between atoms: C_9  and  C_14
REMARK    5  A    between atoms: O_23  and  C_25
REMARK    6  A    between atoms: C_28  and  C_32
REMARK                            x       y       z     vdW  Elec       q    Type
REMARK                         _______ _______ _______ _____ _____    ______ ____
ROOT
ATOM      1 CL   UNL     1      29.217 -22.419 -16.262  0.00  0.00    -0.079 Cl
ATOM      2  C   UNL     1      32.603 -24.018 -13.750  0.00  0.00    +0.142 C 
ATOM      3  C   UNL     1      32.793 -23.835 -15.117  0.00  0.00    +0.075 C 
ATOM      4  C   UNL     1      31.751 -23.340 -15.902  0.00  0.00    +0.159 C 
ATOM      5  C   UNL     1      31.380 -23.712 -13.162  0.00  0.00    +0.038 C 
ATOM      6  C   UNL     1      30.523 -23.031 -15.316  0.00  0.00    +0.092 C 
ATOM      7  C   UNL     1      30.338 -23.217 -13.947  0.00  0.00    +0.018 C 
ENDROOT
BRANCH   2   8
ATOM      8  O   UNL     1      33.624 -24.504 -12.981  0.00  0.00    -0.469 OA
BRANCH   8   9
ATOM      9  C   UNL     1      34.921 -23.956 -13.225  0.00  0.00    +0.249 C 
BRANCH   9  14
ATOM     10  N   UNL     1      35.364 -25.965 -14.616  0.00  0.00    -0.227 N 
ATOM     11  N   UNL     1      36.308 -26.840 -15.023  0.00  0.00    -0.115 NA
ATOM     12  N   UNL     1      38.668 -26.947 -14.475  0.00  0.00    -0.335 NA
ATOM     13  N   UNL     1      40.910 -26.707 -13.699  0.00  0.00    -0.332 N 
ATOM     14  C   UNL     1      35.815 -24.993 -13.766  0.00  0.00    +0.097 C 
ATOM     15  C   UNL     1      37.148 -25.257 -13.612  0.00  0.00    +0.090 C 
ATOM     16  C   UNL     1      37.416 -26.412 -14.407  0.00  0.00    +0.105 C 
ATOM     17  C   UNL     1      38.038 -24.534 -12.832  0.00  0.00    +0.016 C 
ATOM     18  C   UNL     1      39.315 -25.097 -12.916  0.00  0.00    +0.049 C 
ATOM     19  C   UNL     1      39.563 -26.243 -13.711  0.00  0.00    +0.189 C 
ATOM     20  H   UNL     1      34.425 -26.023 -14.909  0.00  0.00    +0.175 HD
ATOM     21  H   UNL     1      41.162 -27.499 -14.227  0.00  0.00    +0.145 HD
ATOM     22  H   UNL     1      41.589 -26.236 -13.164  0.00  0.00    +0.145 HD
ENDBRANCH   9  14
ENDBRANCH   8   9
ENDBRANCH   2   8
BRANCH   4  23
ATOM     23  O   UNL     1      31.961 -23.168 -17.237  0.00  0.00    -0.452 OA
BRANCH  23  25
ATOM     24 CL   UNL     1      34.521 -20.409 -20.662  0.00  0.00    -0.082 Cl
ATOM     25  C   UNL     1      33.165 -22.609 -17.631  0.00  0.00    +0.147 C 
ATOM     26  C   UNL     1      34.285 -22.791 -16.838  0.00  0.00    +0.048 C 
ATOM     27  C   UNL     1      33.219 -21.882 -18.807  0.00  0.00    +0.049 C 
ATOM     28  C   UNL     1      35.497 -22.229 -17.235  0.00  0.00    +0.072 C 
ATOM     29  C   UNL     1      34.432 -21.319 -19.203  0.00  0.00    +0.061 C 
ATOM     30  C   UNL     1      35.571 -21.492 -18.417  0.00  0.00    +0.022 C 
BRANCH  28  32
ATOM     31  N   UNL     1      37.616 -22.549 -15.773  0.00  0.00    -0.191 NA
ATOM     32  C   UNL     1      36.664 -22.406 -16.429  0.00  0.00    +0.101 C 
ENDBRANCH  28  32
ENDBRANCH  23  25
ENDBRANCH   4  23
TORSDOF 6
ENDMDL
MODEL 8
REMARK VINA RESULT:     -10.5      1.600      2.208
REMARK  Name = 16045418
REMARK  6 active torsions:
REMARK  status: ('A' for Active; 'I' for Inactive)
REMARK    1  A    between atoms: C_2  and  O_8
REMARK    2  A    between atoms: C_4  and  O_23
REMARK    3  A    between atoms: O_8  and  C_9
REMARK    4  A    between atoms: C_9  and  C_14
REMARK    5  A    between atoms: O_23  and  C_25
REMARK    6  A    between atoms: C_28  and  C_32
REMARK                            x       y       z     vdW  Elec       q    Type
REMARK                         _______ _______ _______ _____ _____    ______ ____
ROOT
ATOM      1 CL   UNL     1      30.393 -10.887 -20.311  0.00  0.00    -0.079 Cl
ATOM      2  C   UNL     1      33.779 -13.318 -22.028  0.00  0.00    +0.142 C 
ATOM      3  C   UNL     1      33.215 -12.299 -22.791  0.00  0.00    +0.075 C 
ATOM      4  C   UNL     1      32.167 -11.541 -22.267  0.00  0.00    +0.159 C 
ATOM      5  C   UNL     1      33.305 -13.586 -20.748  0.00  0.00    +0.038 C 
ATOM      6  C   UNL     1      31.688 -11.806 -20.984  0.00  0.00    +0.092 C 
ATOM      7  C   UNL     1      32.256 -12.829 -20.225  0.00  0.00    +0.018 C 
ENDROOT
BRANCH   2   8
ATOM      8  O   UNL     1      34.806 -14.061 -22.542  0.00  0.00    -0.469 OA
BRANCH   8   9
ATOM      9  C   UNL     1      34.614 -14.592 -23.855  0.00  0.00    +0.249 C 
BRANCH   9  14
ATOM     10  N   UNL     1      34.105 -16.806 -24.857  0.00  0.00    -0.227 N 
ATOM     11  N   UNL     1      34.120 -18.140 -24.652  0.00  0.00    -0.115 NA
ATOM     12  N   UNL     1      34.828 -19.407 -22.708  0.00  0.00    -0.335 NA
ATOM     13  N   UNL     1      35.609 -20.271 -20.628  0.00  0.00    -0.332 N 
ATOM     14  C   UNL     1      34.561 -16.062 -23.803  0.00  0.00    +0.097 C 
ATOM     15  C   UNL     1      34.895 -16.981 -22.847  0.00  0.00    +0.090 C 
ATOM     16  C   UNL     1      34.607 -18.261 -23.411  0.00  0.00    +0.105 C 
ATOM     17  C   UNL     1      35.408 -16.699 -21.590  0.00  0.00    +0.016 C 
ATOM     18  C   UNL     1      35.628 -17.888 -20.886  0.00  0.00    +0.049 C 
ATOM     19  C   UNL     1      35.336 -19.149 -21.462  0.00  0.00    +0.189 C 
ATOM     20  H   UNL     1      33.791 -16.402 -25.699  0.00  0.00    +0.175 HD
ATOM     21  H   UNL     1      35.433 -21.182 -20.957  0.00  0.00    +0.145 HD
ATOM     22  H   UNL     1      35.974 -20.136 -19.724  0.00  0.00    +0.145 HD
ENDBRANCH   9  14
ENDBRANCH   8   9
ENDBRANCH   2   8
BRANCH   4  23
ATOM     23  O   UNL     1      31.630 -10.548 -23.031  0.00  0.00    -0.452 OA
BRANCH  23  25
ATOM     24 CL   UNL     1      35.584  -7.345 -22.957  0.00  0.00    -0.082 Cl
ATOM     25  C   UNL     1      32.093  -9.260 -22.825  0.00  0.00    +0.147 C 
ATOM     26  C   UNL     1      31.195  -8.268 -22.471  0.00  0.00    +0.048 C 
ATOM     27  C   UNL     1      33.443  -8.995 -22.978  0.00  0.00    +0.049 C 
ATOM     28  C   UNL     1      31.662  -6.971 -22.263  0.00  0.00    +0.072 C 
ATOM     29  C   UNL     1      33.909  -7.697 -22.771  0.00  0.00    +0.061 C 
ATOM     30  C   UNL     1      33.019  -6.685 -22.414  0.00  0.00    +0.022 C 
BRANCH  28  32
ATOM     31  N   UNL     1      30.006  -5.088 -21.600  0.00  0.00    -0.191 NA
ATOM     32  C   UNL     1      30.749  -5.934 -21.898  0.00  0.00    +0.101 C 
ENDBRANCH  28  32
ENDBRANCH  23  25
ENDBRANCH   4  23
TORSDOF 6
ENDMDL
MODEL 9
REMARK VINA RESULT:     -10.5      1.871      2.305
REMARK  Name = 16045418
REMARK  6 active torsions:
REMARK  status: ('A' for Active; 'I' for Inactive)
REMARK    1  A    between atoms: C_2  and  O_8
REMARK    2  A    between atoms: C_4  and  O_23
REMARK    3  A    between atoms: O_8  and  C_9
REMARK    4  A    between atoms: C_9  and  C_14
REMARK    5  A    between atoms: O_23  and  C_25
REMARK    6  A    between atoms: C_28  and  C_32
REMARK                            x       y       z     vdW  Elec       q    Type
REMARK                         _______ _______ _______ _____ _____    ______ ____
ROOT
ATOM      1 CL   UNL     1      31.663 -10.432 -18.083  0.00  0.00    -0.079 Cl
ATOM      2  C   UNL     1      32.070 -12.772 -21.915  0.00  0.00    +0.142 C 
ATOM      3  C   UNL     1      31.596 -11.464 -21.961  0.00  0.00    +0.075 C 
ATOM      4  C   UNL     1      31.468 -10.732 -20.779  0.00  0.00    +0.159 C 
ATOM      5  C   UNL     1      32.416 -13.355 -20.700  0.00  0.00    +0.038 C 
ATOM      6  C   UNL     1      31.813 -11.312 -19.559  0.00  0.00    +0.092 C 
ATOM      7  C   UNL     1      32.287 -12.623 -19.519  0.00  0.00    +0.018 C 
ENDROOT
BRANCH   2   8
ATOM      8  O   UNL     1      32.196 -13.489 -23.074  0.00  0.00    -0.469 OA
BRANCH   8   9
ATOM      9  C   UNL     1      33.486 -13.487 -23.687  0.00  0.00    +0.249 C 
BRANCH   9  14
ATOM     10  N   UNL     1      34.014 -15.547 -24.970  0.00  0.00    -0.227 N 
ATOM     11  N   UNL     1      34.518 -16.797 -24.892  0.00  0.00    -0.115 NA
ATOM     12  N   UNL     1      35.401 -18.002 -22.981  0.00  0.00    -0.335 NA
ATOM     13  N   UNL     1      36.176 -18.831 -20.884  0.00  0.00    -0.332 N 
ATOM     14  C   UNL     1      34.002 -14.862 -23.785  0.00  0.00    +0.097 C 
ATOM     15  C   UNL     1      34.538 -15.731 -22.875  0.00  0.00    +0.090 C 
ATOM     16  C   UNL     1      34.846 -16.922 -23.601  0.00  0.00    +0.105 C 
ATOM     17  C   UNL     1      34.731 -15.481 -21.525  0.00  0.00    +0.016 C 
ATOM     18  C   UNL     1      35.301 -16.599 -20.908  0.00  0.00    +0.049 C 
ATOM     19  C   UNL     1      35.601 -17.772 -21.644  0.00  0.00    +0.189 C 
ATOM     20  H   UNL     1      33.681 -15.160 -25.812  0.00  0.00    +0.175 HD
ATOM     21  H   UNL     1      36.412 -19.680 -21.324  0.00  0.00    +0.145 HD
ATOM     22  H   UNL     1      36.337 -18.715 -19.920  0.00  0.00    +0.145 HD
ENDBRANCH   9  14
ENDBRANCH   8   9
ENDBRANCH   2   8
BRANCH   4  23
ATOM     23  O   UNL     1      31.003  -9.453 -20.848  0.00  0.00    -0.452 OA
BRANCH  23  25
ATOM     24 CL   UNL     1      32.007  -4.517 -21.573  0.00  0.00    -0.082 Cl
ATOM     25  C   UNL     1      31.843  -8.493 -21.385  0.00  0.00    +0.147 C 
ATOM     26  C   UNL     1      32.975  -8.895 -22.072  0.00  0.00    +0.048 C 
ATOM     27  C   UNL     1      31.531  -7.155 -21.223  0.00  0.00    +0.049 C 
ATOM     28  C   UNL     1      33.821  -7.927 -22.614  0.00  0.00    +0.072 C 
ATOM     29  C   UNL     1      32.376  -6.187 -21.764  0.00  0.00    +0.061 C 
ATOM     30  C   UNL     1      33.522  -6.574 -22.459  0.00  0.00    +0.022 C 
BRANCH  28  32
ATOM     31  N   UNL     1      35.953  -8.647 -23.904  0.00  0.00    -0.191 NA
ATOM     32  C   UNL     1      34.995  -8.324 -23.325  0.00  0.00    +0.101 C 
ENDBRANCH  28  32
ENDBRANCH  23  25
ENDBRANCH   4  23
TORSDOF 6
ENDMDL
