MODEL 1
REMARK VINA RESULT:     -12.7      0.000      0.000
REMARK  Name = 76958312
REMARK  3 active torsions:
REMARK  status: ('A' for Active; 'I' for Inactive)
REMARK    1  A    between atoms: C_16  and  C_21
REMARK    2  A    between atoms: C_26  and  N_28
REMARK    3  A    between atoms: N_29  and  C_34
REMARK                            x       y       z     vdW  Elec       q    Type
REMARK                         _______ _______ _______ _____ _____    ______ ____
ROOT
ATOM      1  O   UNL     1      31.774 -22.860 -12.516  0.00  0.00    -0.350 OA
ATOM      2  O   UNL     1      39.705 -25.021 -13.134  0.00  0.00    -0.350 OA
ATOM      3  N   UNL     1      32.706 -24.334 -14.746  0.00  0.00    -0.231 N 
ATOM      4  N   UNL     1      35.004 -24.398 -14.594  0.00  0.00    -0.246 NA
ATOM      5  N   UNL     1      33.900 -23.161 -16.329  0.00  0.00    -0.260 NA
ATOM      6  N   UNL     1      37.337 -24.405 -14.517  0.00  0.00    -0.228 N 
ATOM      7  N   UNL     1      36.297 -23.191 -16.217  0.00  0.00    -0.260 NA
ATOM      8  C   UNL     1      32.568 -24.992 -13.446  0.00  0.00    +0.114 C 
ATOM      9  C   UNL     1      31.510 -23.499 -14.874  0.00  0.00    +0.114 C 
ATOM     10  C   UNL     1      31.103 -25.459 -13.488  0.00  0.00    +0.025 C 
ATOM     11  C   UNL     1      30.404 -24.473 -14.431  0.00  0.00    +0.025 C 
ATOM     12  C   UNL     1      31.673 -22.353 -13.857  0.00  0.00    +0.163 C 
ATOM     13  C   UNL     1      32.765 -23.894 -12.384  0.00  0.00    +0.163 C 
ATOM     14  C   UNL     1      33.917 -23.950 -15.243  0.00  0.00    +0.224 C 
ATOM     15  C   UNL     1      36.159 -23.978 -15.137  0.00  0.00    +0.224 C 
ATOM     16  C   UNL     1      35.125 -22.821 -16.760  0.00  0.00    +0.163 C 
ATOM     17  C   UNL     1      38.638 -23.988 -15.053  0.00  0.00    +0.135 C 
ATOM     18  C   UNL     1      37.308 -24.657 -13.070  0.00  0.00    +0.135 C 
ATOM     19  C   UNL     1      38.467 -25.568 -12.683  0.00  0.00    +0.164 C 
ATOM     20  C   UNL     1      39.726 -24.935 -14.559  0.00  0.00    +0.164 C 
ENDROOT
BRANCH  16  21
ATOM     21  C   UNL     1      35.192 -21.975 -17.922  0.00  0.00    +0.087 C 
ATOM     22  C   UNL     1      36.404 -21.393 -18.293  0.00  0.00    +0.013 C 
ATOM     23  C   UNL     1      34.043 -21.737 -18.677  0.00  0.00    +0.013 C 
ATOM     24  C   UNL     1      36.467 -20.573 -19.420  0.00  0.00    +0.015 C 
ATOM     25  C   UNL     1      34.107 -20.916 -19.804  0.00  0.00    +0.015 C 
ATOM     26  C   UNL     1      35.320 -20.334 -20.175  0.00  0.00    +0.052 C 
BRANCH  26  28
ATOM     27  O   UNL     1      34.151 -17.629 -20.658  0.00  0.00    -0.252 OA
ATOM     28  N   UNL     1      35.383 -19.514 -21.301  0.00  0.00    -0.268 N 
ATOM     29  N   UNL     1      35.123 -17.760 -22.781  0.00  0.00    -0.268 N 
ATOM     30  C   UNL     1      34.815 -18.232 -21.495  0.00  0.00    +0.308 C 
ATOM     31  H   UNL     1      35.891 -19.876 -22.064  0.00  0.00    +0.156 HD
ATOM     32  H   UNL     1      35.666 -18.359 -23.342  0.00  0.00    +0.156 HD
BRANCH  29  34
ATOM     33  N   UNL     1      34.008 -14.096 -24.530  0.00  0.00    -0.242 NA
ATOM     34  C   UNL     1      34.748 -16.528 -23.370  0.00  0.00    +0.055 C 
ATOM     35  C   UNL     1      34.929 -15.339 -22.672  0.00  0.00    +0.035 C 
ATOM     36  C   UNL     1      34.197 -16.503 -24.646  0.00  0.00    +0.035 C 
ATOM     37  C   UNL     1      34.546 -14.160 -23.291  0.00  0.00    +0.100 C 
ATOM     38  C   UNL     1      33.847 -15.272 -25.176  0.00  0.00    +0.100 C 
ENDBRANCH  29  34
ENDBRANCH  26  28
ENDBRANCH  16  21
TORSDOF 3
ENDMDL
MODEL 2
REMARK VINA RESULT:     -11.9      1.166      4.579
REMARK  Name = 76958312
REMARK  3 active torsions:
REMARK  status: ('A' for Active; 'I' for Inactive)
REMARK    1  A    between atoms: C_16  and  C_21
REMARK    2  A    between atoms: C_26  and  N_28
REMARK    3  A    between atoms: N_29  and  C_34
REMARK                            x       y       z     vdW  Elec       q    Type
REMARK                         _______ _______ _______ _____ _____    ______ ____
ROOT
ATOM      1  O   UNL     1      37.828 -27.207 -14.093  0.00  0.00    -0.350 OA
ATOM      2  O   UNL     1      29.937 -24.974 -13.256  0.00  0.00    -0.350 OA
ATOM      3  N   UNL     1      37.125 -24.499 -13.670  0.00  0.00    -0.231 N 
ATOM      4  N   UNL     1      34.829 -24.370 -13.822  0.00  0.00    -0.246 NA
ATOM      5  N   UNL     1      36.251 -23.367 -15.476  0.00  0.00    -0.260 NA
ATOM      6  N   UNL     1      32.514 -24.191 -14.060  0.00  0.00    -0.228 N 
ATOM      7  N   UNL     1      33.866 -23.204 -15.686  0.00  0.00    -0.260 NA
ATOM      8  C   UNL     1      37.031 -25.455 -12.566  0.00  0.00    +0.114 C 
ATOM      9  C   UNL     1      38.381 -24.827 -14.346  0.00  0.00    +0.114 C 
ATOM     10  C   UNL     1      38.453 -25.394 -11.980  0.00  0.00    +0.025 C 
ATOM     11  C   UNL     1      39.344 -24.978 -13.157  0.00  0.00    +0.025 C 
ATOM     12  C   UNL     1      38.153 -26.181 -15.045  0.00  0.00    +0.163 C 
ATOM     13  C   UNL     1      36.761 -26.829 -13.207  0.00  0.00    +0.163 C 
ATOM     14  C   UNL     1      36.026 -24.061 -14.349  0.00  0.00    +0.224 C 
ATOM     15  C   UNL     1      33.795 -23.910 -14.545  0.00  0.00    +0.224 C 
ATOM     16  C   UNL     1      35.125 -22.972 -16.091  0.00  0.00    +0.163 C 
ATOM     17  C   UNL     1      31.334 -23.721 -14.793  0.00  0.00    +0.135 C 
ATOM     18  C   UNL     1      32.320 -25.427 -13.288  0.00  0.00    +0.135 C 
ATOM     19  C   UNL     1      31.059 -25.311 -12.440  0.00  0.00    +0.164 C 
ATOM     20  C   UNL     1      30.125 -23.697 -13.865  0.00  0.00    +0.164 C 
ENDROOT
BRANCH  16  21
ATOM     21  C   UNL     1      35.282 -22.221 -17.309  0.00  0.00    +0.087 C 
ATOM     22  C   UNL     1      36.489 -21.576 -17.581  0.00  0.00    +0.013 C 
ATOM     23  C   UNL     1      34.226 -22.138 -18.217  0.00  0.00    +0.013 C 
ATOM     24  C   UNL     1      36.640 -20.849 -18.761  0.00  0.00    +0.015 C 
ATOM     25  C   UNL     1      34.379 -21.410 -19.398  0.00  0.00    +0.015 C 
ATOM     26  C   UNL     1      35.585 -20.766 -19.669  0.00  0.00    +0.052 C 
BRANCH  26  28
ATOM     27  O   UNL     1      34.100 -18.373 -20.663  0.00  0.00    -0.252 OA
ATOM     28  N   UNL     1      35.737 -20.038 -20.850  0.00  0.00    -0.268 N 
ATOM     29  N   UNL     1      35.490 -18.484 -22.541  0.00  0.00    -0.268 N 
ATOM     30  C   UNL     1      35.012 -18.904 -21.290  0.00  0.00    +0.308 C 
ATOM     31  H   UNL     1      36.442 -20.356 -21.460  0.00  0.00    +0.156 HD
ATOM     32  H   UNL     1      36.229 -19.013 -22.921  0.00  0.00    +0.156 HD
BRANCH  29  34
ATOM     33  N   UNL     1      34.152 -15.241 -24.869  0.00  0.00    -0.242 NA
ATOM     34  C   UNL     1      35.040 -17.394 -23.324  0.00  0.00    +0.055 C 
ATOM     35  C   UNL     1      35.342 -16.091 -22.944  0.00  0.00    +0.035 C 
ATOM     36  C   UNL     1      34.295 -17.622 -24.475  0.00  0.00    +0.035 C 
ATOM     37  C   UNL     1      34.878 -15.059 -23.742  0.00  0.00    +0.100 C 
ATOM     38  C   UNL     1      33.879 -16.520 -25.206  0.00  0.00    +0.100 C 
ENDBRANCH  29  34
ENDBRANCH  26  28
ENDBRANCH  16  21
TORSDOF 3
ENDMDL
MODEL 3
REMARK VINA RESULT:     -10.3      1.510      2.081
REMARK  Name = 76958312
REMARK  3 active torsions:
REMARK  status: ('A' for Active; 'I' for Inactive)
REMARK    1  A    between atoms: C_16  and  C_21
REMARK    2  A    between atoms: C_26  and  N_28
REMARK    3  A    between atoms: N_29  and  C_34
REMARK                            x       y       z     vdW  Elec       q    Type
REMARK                         _______ _______ _______ _____ _____    ______ ____
ROOT
ATOM      1  O   UNL     1      29.406 -23.106 -13.274  0.00  0.00    -0.350 OA
ATOM      2  O   UNL     1      37.302 -24.373 -11.276  0.00  0.00    -0.350 OA
ATOM      3  N   UNL     1      31.091 -24.657 -14.937  0.00  0.00    -0.231 N 
ATOM      4  N   UNL     1      33.232 -24.438 -14.113  0.00  0.00    -0.246 NA
ATOM      5  N   UNL     1      32.607 -23.502 -16.232  0.00  0.00    -0.260 NA
ATOM      6  N   UNL     1      35.423 -24.166 -13.356  0.00  0.00    -0.228 N 
ATOM      7  N   UNL     1      34.850 -23.242 -15.420  0.00  0.00    -0.260 NA
ATOM      8  C   UNL     1      30.621 -25.206 -13.664  0.00  0.00    +0.114 C 
ATOM      9  C   UNL     1      29.925 -23.983 -15.510  0.00  0.00    +0.114 C 
ATOM     10  C   UNL     1      29.282 -25.843 -14.076  0.00  0.00    +0.025 C 
ATOM     11  C   UNL     1      28.823 -25.035 -15.296  0.00  0.00    +0.025 C 
ATOM     12  C   UNL     1      29.674 -22.739 -14.638  0.00  0.00    +0.163 C 
ATOM     13  C   UNL     1      30.393 -24.001 -12.733  0.00  0.00    +0.163 C 
ATOM     14  C   UNL     1      32.359 -24.181 -15.101  0.00  0.00    +0.224 C 
ATOM     15  C   UNL     1      34.457 -23.938 -14.341  0.00  0.00    +0.224 C 
ATOM     16  C   UNL     1      33.872 -23.062 -16.323  0.00  0.00    +0.163 C 
ATOM     17  C   UNL     1      36.785 -23.651 -13.534  0.00  0.00    +0.135 C 
ATOM     18  C   UNL     1      34.977 -24.287 -11.961  0.00  0.00    +0.135 C 
ATOM     19  C   UNL     1      36.036 -25.018 -11.144  0.00  0.00    +0.164 C 
ATOM     20  C   UNL     1      37.747 -24.415 -12.631  0.00  0.00    +0.164 C 
ENDROOT
BRANCH  16  21
ATOM     21  C   UNL     1      34.217 -22.323 -17.509  0.00  0.00    +0.087 C 
ATOM     22  C   UNL     1      33.234 -22.015 -18.450  0.00  0.00    +0.013 C 
ATOM     23  C   UNL     1      35.534 -21.915 -17.717  0.00  0.00    +0.013 C 
ATOM     24  C   UNL     1      33.569 -21.299 -19.599  0.00  0.00    +0.015 C 
ATOM     25  C   UNL     1      35.869 -21.199 -18.867  0.00  0.00    +0.015 C 
ATOM     26  C   UNL     1      34.886 -20.891 -19.808  0.00  0.00    +0.052 C 
BRANCH  26  28
ATOM     27  O   UNL     1      33.610 -18.475 -21.014  0.00  0.00    -0.252 OA
ATOM     28  N   UNL     1      35.221 -20.175 -20.957  0.00  0.00    -0.268 N 
ATOM     29  N   UNL     1      35.253 -18.627 -22.671  0.00  0.00    -0.268 N 
ATOM     30  C   UNL     1      34.591 -19.029 -21.500  0.00  0.00    +0.308 C 
ATOM     31  H   UNL     1      36.001 -20.511 -21.457  0.00  0.00    +0.156 HD
ATOM     32  H   UNL     1      36.028 -19.173 -22.938  0.00  0.00    +0.156 HD
BRANCH  29  34
ATOM     33  N   UNL     1      34.333 -15.376 -25.183  0.00  0.00    -0.242 NA
ATOM     34  C   UNL     1      34.944 -17.534 -23.515  0.00  0.00    +0.055 C 
ATOM     35  C   UNL     1      34.066 -17.702 -24.581  0.00  0.00    +0.035 C 
ATOM     36  C   UNL     1      35.517 -16.289 -23.283  0.00  0.00    +0.035 C 
ATOM     37  C   UNL     1      33.796 -16.602 -25.378  0.00  0.00    +0.100 C 
ATOM     38  C   UNL     1      35.181 -15.251 -24.138  0.00  0.00    +0.100 C 
ENDBRANCH  29  34
ENDBRANCH  26  28
ENDBRANCH  16  21
TORSDOF 3
ENDMDL
