MODEL 1
REMARK VINA RESULT:     -11.1      0.000      0.000
REMARK  Name = 24180717
REMARK  5 active torsions:
REMARK  status: ('A' for Active; 'I' for Inactive)
REMARK    1  A    between atoms: C_14  and  C_18
REMARK    2  A    between atoms: C_15  and  C_30
REMARK    3  A    between atoms: C_21  and  C_22
REMARK    4  A    between atoms: C_23  and  C_24
REMARK    5  A    between atoms: C_30  and  N_31
REMARK                            x       y       z     vdW  Elec       q    Type
REMARK                         _______ _______ _______ _____ _____    ______ ____
ROOT
ATOM      1  O   UNL     1      37.633 -19.235 -20.428  0.00  0.00    -0.475 OA
ATOM      2  O   UNL     1      32.806 -17.224 -25.269  0.00  0.00    -0.267 OA
ATOM      3  N   UNL     1      34.584 -17.108 -23.789  0.00  0.00    -0.274 N 
ATOM      4  C   UNL     1      35.603 -18.927 -21.746  0.00  0.00    +0.065 C 
ATOM      5  C   UNL     1      35.001 -17.550 -21.390  0.00  0.00    +0.029 C 
ATOM      6  C   UNL     1      35.028 -19.424 -23.083  0.00  0.00    +0.029 C 
ATOM      7  C   UNL     1      37.152 -18.901 -21.752  0.00  0.00    +0.209 C 
ATOM      8  C   UNL     1      35.424 -19.883 -20.610  0.00  0.00    +0.014 C 
ATOM      9  C   UNL     1      35.105 -16.541 -22.537  0.00  0.00    +0.094 C 
ATOM     10  C   UNL     1      35.190 -18.380 -24.186  0.00  0.00    +0.094 C 
ATOM     11  C   UNL     1      36.613 -19.984 -19.898  0.00  0.00    +0.135 C 
ATOM     12  C   UNL     1      34.299 -20.575 -20.192  0.00  0.00    -0.008 C 
ATOM     13  C   UNL     1      36.726 -20.753 -18.756  0.00  0.00    +0.036 C 
ATOM     14  C   UNL     1      33.569 -16.541 -24.584  0.00  0.00    +0.284 C 
ATOM     15  C   UNL     1      34.393 -21.371 -19.046  0.00  0.00    -0.044 C 
ATOM     16  C   UNL     1      35.598 -21.457 -18.333  0.00  0.00    -0.003 C 
ENDROOT
BRANCH  14  18
ATOM     17  O   UNL     1      33.110 -14.488 -23.400  0.00  0.00    -0.441 OA
ATOM     18  C   UNL     1      33.440 -15.088 -24.573  0.00  0.00    +0.199 C 
ATOM     19  C   UNL     1      33.594 -14.151 -25.567  0.00  0.00    +0.046 C 
ATOM     20  C   UNL     1      33.342 -12.895 -24.967  0.00  0.00    +0.049 C 
ATOM     21  C   UNL     1      33.052 -13.153 -23.649  0.00  0.00    +0.187 C 
BRANCH  21  22
ATOM     22  C   UNL     1      32.723 -12.306 -22.567  0.00  0.00    -0.023 C 
ATOM     23  C   UNL     1      32.443 -11.585 -21.648  0.00  0.00    -0.057 C 
BRANCH  23  24
ATOM     24  C   UNL     1      32.110 -10.725 -20.554  0.00  0.00    +0.042 C 
ATOM     25  C   UNL     1      31.932 -11.259 -19.278  0.00  0.00    +0.008 C 
ATOM     26  C   UNL     1      31.966  -9.353 -20.762  0.00  0.00    +0.008 C 
ATOM     27  C   UNL     1      31.607 -10.422 -18.210  0.00  0.00    +0.001 C 
ATOM     28  C   UNL     1      31.642  -8.516 -19.695  0.00  0.00    +0.001 C 
ATOM     29  C   UNL     1      31.463  -9.050 -18.419  0.00  0.00    +0.000 C 
ENDBRANCH  23  24
ENDBRANCH  21  22
ENDBRANCH  14  18
BRANCH  15  30
ATOM     30  C   UNL     1      33.198 -22.128 -18.573  0.00  0.00    -0.059 C 
BRANCH  30  31
ATOM     31  N   UNL     1      33.562 -23.375 -17.896  0.00  0.00    +0.383 N 
ATOM     32  H   UNL     1      33.121 -23.403 -16.976  0.00  0.00    -0.089 HD
ATOM     33  H   UNL     1      34.574 -23.420 -17.789  0.00  0.00    -0.089 HD
ATOM     34  H   UNL     1      33.242 -24.169 -18.451  0.00  0.00    -0.089 HD
ENDBRANCH  30  31
ENDBRANCH  15  30
TORSDOF 5
ENDMDL
MODEL 2
REMARK VINA RESULT:     -10.0      5.215      7.791
REMARK  Name = 24180717
REMARK  5 active torsions:
REMARK  status: ('A' for Active; 'I' for Inactive)
REMARK    1  A    between atoms: C_14  and  C_18
REMARK    2  A    between atoms: C_15  and  C_30
REMARK    3  A    between atoms: C_21  and  C_22
REMARK    4  A    between atoms: C_23  and  C_24
REMARK    5  A    between atoms: C_30  and  N_31
REMARK                            x       y       z     vdW  Elec       q    Type
REMARK                         _______ _______ _______ _____ _____    ______ ____
ROOT
ATOM      1  O   UNL     1      33.437 -14.984 -25.527  0.00  0.00    -0.475 OA
ATOM      2  O   UNL     1      32.246  -9.513 -21.121  0.00  0.00    -0.267 OA
ATOM      3  N   UNL     1      32.762 -10.677 -23.055  0.00  0.00    -0.274 N 
ATOM      4  C   UNL     1      33.322 -13.490 -23.603  0.00  0.00    +0.065 C 
ATOM      5  C   UNL     1      34.394 -12.392 -23.780  0.00  0.00    +0.029 C 
ATOM      6  C   UNL     1      32.273 -13.041 -22.571  0.00  0.00    +0.029 C 
ATOM      7  C   UNL     1      32.676 -13.896 -24.951  0.00  0.00    +0.209 C 
ATOM      8  C   UNL     1      33.968 -14.802 -23.288  0.00  0.00    +0.014 C 
ATOM      9  C   UNL     1      33.791 -11.010 -24.051  0.00  0.00    +0.094 C 
ATOM     10  C   UNL     1      31.695 -11.671 -22.919  0.00  0.00    +0.094 C 
ATOM     11  C   UNL     1      34.015 -15.581 -24.436  0.00  0.00    +0.135 C 
ATOM     12  C   UNL     1      34.521 -15.266 -22.105  0.00  0.00    -0.008 C 
ATOM     13  C   UNL     1      34.616 -16.826 -24.458  0.00  0.00    +0.036 C 
ATOM     14  C   UNL     1      32.750  -9.526 -22.245  0.00  0.00    +0.284 C 
ATOM     15  C   UNL     1      35.121 -16.528 -22.100  0.00  0.00    -0.044 C 
ATOM     16  C   UNL     1      35.169 -17.301 -23.270  0.00  0.00    -0.003 C 
ENDROOT
BRANCH  14  18
ATOM     17  O   UNL     1      32.664  -7.595 -23.692  0.00  0.00    -0.441 OA
ATOM     18  C   UNL     1      33.368  -8.319 -22.784  0.00  0.00    +0.199 C 
ATOM     19  C   UNL     1      34.589  -7.735 -22.543  0.00  0.00    +0.046 C 
ATOM     20  C   UNL     1      34.639  -6.577 -23.356  0.00  0.00    +0.049 C 
ATOM     21  C   UNL     1      33.445  -6.536 -24.035  0.00  0.00    +0.187 C 
BRANCH  21  22
ATOM     22  C   UNL     1      32.922  -5.624 -24.979  0.00  0.00    -0.023 C 
ATOM     23  C   UNL     1      32.478  -4.848 -25.781  0.00  0.00    -0.057 C 
BRANCH  23  24
ATOM     24  C   UNL     1      31.947  -3.924 -26.736  0.00  0.00    +0.042 C 
ATOM     25  C   UNL     1      32.236  -4.081 -28.091  0.00  0.00    +0.008 C 
ATOM     26  C   UNL     1      31.139  -2.869 -26.312  0.00  0.00    +0.008 C 
ATOM     27  C   UNL     1      31.718  -3.181 -29.023  0.00  0.00    +0.001 C 
ATOM     28  C   UNL     1      30.622  -1.969 -27.242  0.00  0.00    +0.001 C 
ATOM     29  C   UNL     1      30.911  -2.125 -28.598  0.00  0.00    +0.000 C 
ENDBRANCH  23  24
ENDBRANCH  21  22
ENDBRANCH  14  18
BRANCH  15  30
ATOM     30  C   UNL     1      35.723 -17.054 -20.840  0.00  0.00    -0.059 C 
BRANCH  30  31
ATOM     31  N   UNL     1      35.734 -18.518 -20.798  0.00  0.00    +0.383 N 
ATOM     32  H   UNL     1      34.781 -18.868 -20.900  0.00  0.00    -0.089 HD
ATOM     33  H   UNL     1      36.117 -18.829 -19.906  0.00  0.00    -0.089 HD
ATOM     34  H   UNL     1      36.312 -18.875 -21.559  0.00  0.00    -0.089 HD
ENDBRANCH  30  31
ENDBRANCH  15  30
TORSDOF 5
ENDMDL
MODEL 3
REMARK VINA RESULT:      -9.6      4.770      7.736
REMARK  Name = 24180717
REMARK  5 active torsions:
REMARK  status: ('A' for Active; 'I' for Inactive)
REMARK    1  A    between atoms: C_14  and  C_18
REMARK    2  A    between atoms: C_15  and  C_30
REMARK    3  A    between atoms: C_21  and  C_22
REMARK    4  A    between atoms: C_23  and  C_24
REMARK    5  A    between atoms: C_30  and  N_31
REMARK                            x       y       z     vdW  Elec       q    Type
REMARK                         _______ _______ _______ _____ _____    ______ ____
ROOT
ATOM      1  O   UNL     1      33.561 -14.569 -25.367  0.00  0.00    -0.475 OA
ATOM      2  O   UNL     1      31.572  -9.881 -20.383  0.00  0.00    -0.267 OA
ATOM      3  N   UNL     1      32.344 -10.717 -22.400  0.00  0.00    -0.274 N 
ATOM      4  C   UNL     1      33.163 -13.380 -23.275  0.00  0.00    +0.065 C 
ATOM      5  C   UNL     1      34.159 -12.202 -23.192  0.00  0.00    +0.029 C 
ATOM      6  C   UNL     1      31.997 -13.152 -22.299  0.00  0.00    +0.029 C 
ATOM      7  C   UNL     1      32.672 -13.625 -24.723  0.00  0.00    +0.209 C 
ATOM      8  C   UNL     1      33.877 -14.680 -23.083  0.00  0.00    +0.014 C 
ATOM      9  C   UNL     1      33.479 -10.836 -23.327  0.00  0.00    +0.094 C 
ATOM     10  C   UNL     1      31.348 -11.786 -22.508  0.00  0.00    +0.094 C 
ATOM     11  C   UNL     1      34.086 -15.280 -24.318  0.00  0.00    +0.135 C 
ATOM     12  C   UNL     1      34.358 -15.274 -21.927  0.00  0.00    -0.008 C 
ATOM     13  C   UNL     1      34.779 -16.468 -24.453  0.00  0.00    +0.036 C 
ATOM     14  C   UNL     1      32.172  -9.699 -21.443  0.00  0.00    +0.284 C 
ATOM     15  C   UNL     1      35.051 -16.483 -22.038  0.00  0.00    -0.044 C 
ATOM     16  C   UNL     1      35.261 -17.075 -23.293  0.00  0.00    -0.003 C 
ENDROOT
BRANCH  14  18
ATOM     17  O   UNL     1      33.207  -8.174 -23.005  0.00  0.00    -0.441 OA
ATOM     18  C   UNL     1      32.741  -8.390 -21.747  0.00  0.00    +0.199 C 
ATOM     19  C   UNL     1      32.911  -7.267 -20.971  0.00  0.00    +0.046 C 
ATOM     20  C   UNL     1      33.519  -6.300 -21.806  0.00  0.00    +0.049 C 
ATOM     21  C   UNL     1      33.678  -6.900 -23.032  0.00  0.00    +0.187 C 
BRANCH  21  22
ATOM     22  C   UNL     1      34.221  -6.436 -24.251  0.00  0.00    -0.023 C 
ATOM     23  C   UNL     1      34.683  -6.041 -25.288  0.00  0.00    -0.057 C 
BRANCH  23  24
ATOM     24  C   UNL     1      35.234  -5.571 -26.521  0.00  0.00    +0.042 C 
ATOM     25  C   UNL     1      34.636  -5.923 -27.731  0.00  0.00    +0.008 C 
ATOM     26  C   UNL     1      36.368  -4.758 -26.514  0.00  0.00    +0.008 C 
ATOM     27  C   UNL     1      35.172  -5.464 -28.934  0.00  0.00    +0.001 C 
ATOM     28  C   UNL     1      36.905  -4.299 -27.717  0.00  0.00    +0.001 C 
ATOM     29  C   UNL     1      36.307  -4.652 -28.927  0.00  0.00    +0.000 C 
ENDBRANCH  23  24
ENDBRANCH  21  22
ENDBRANCH  14  18
BRANCH  15  30
ATOM     30  C   UNL     1      35.579 -17.147 -20.811  0.00  0.00    -0.059 C 
BRANCH  30  31
ATOM     31  N   UNL     1      35.832 -18.575 -21.016  0.00  0.00    +0.383 N 
ATOM     32  H   UNL     1      34.956 -19.091 -20.936  0.00  0.00    -0.089 HD
ATOM     33  H   UNL     1      36.489 -18.908 -20.311  0.00  0.00    -0.089 HD
ATOM     34  H   UNL     1      36.228 -18.719 -21.945  0.00  0.00    -0.089 HD
ENDBRANCH  30  31
ENDBRANCH  15  30
TORSDOF 5
ENDMDL
MODEL 4
REMARK VINA RESULT:      -9.4      5.942     12.830
REMARK  Name = 24180717
REMARK  5 active torsions:
REMARK  status: ('A' for Active; 'I' for Inactive)
REMARK    1  A    between atoms: C_14  and  C_18
REMARK    2  A    between atoms: C_15  and  C_30
REMARK    3  A    between atoms: C_21  and  C_22
REMARK    4  A    between atoms: C_23  and  C_24
REMARK    5  A    between atoms: C_30  and  N_31
REMARK                            x       y       z     vdW  Elec       q    Type
REMARK                         _______ _______ _______ _____ _____    ______ ____
ROOT
ATOM      1  O   UNL     1      33.224  -5.570 -26.545  0.00  0.00    -0.475 OA
ATOM      2  O   UNL     1      32.292  -7.760 -19.829  0.00  0.00    -0.267 OA
ATOM      3  N   UNL     1      32.631  -7.844 -22.118  0.00  0.00    -0.274 N 
ATOM      4  C   UNL     1      32.499  -5.833 -24.231  0.00  0.00    +0.065 C 
ATOM      5  C   UNL     1      31.512  -7.020 -24.166  0.00  0.00    +0.029 C 
ATOM      6  C   UNL     1      33.041  -5.522 -22.826  0.00  0.00    +0.029 C 
ATOM      7  C   UNL     1      33.636  -6.078 -25.253  0.00  0.00    +0.209 C 
ATOM      8  C   UNL     1      31.863  -4.664 -24.915  0.00  0.00    +0.014 C 
ATOM      9  C   UNL     1      32.087  -8.232 -23.427  0.00  0.00    +0.094 C 
ATOM     10  C   UNL     1      33.623  -6.767 -22.161  0.00  0.00    +0.094 C 
ATOM     11  C   UNL     1      32.308  -4.599 -26.229  0.00  0.00    +0.135 C 
ATOM     12  C   UNL     1      30.928  -3.755 -24.448  0.00  0.00    -0.008 C 
ATOM     13  C   UNL     1      31.840  -3.652 -27.120  0.00  0.00    +0.036 C 
ATOM     14  C   UNL     1      32.261  -8.402 -20.880  0.00  0.00    +0.284 C 
ATOM     15  C   UNL     1      30.450  -2.779 -25.327  0.00  0.00    -0.044 C 
ATOM     16  C   UNL     1      30.903  -2.730 -26.655  0.00  0.00    -0.003 C 
ENDROOT
BRANCH  14  18
ATOM     17  O   UNL     1      32.731 -10.746 -21.215  0.00  0.00    -0.441 OA
ATOM     18  C   UNL     1      31.824  -9.794 -20.874  0.00  0.00    +0.199 C 
ATOM     19  C   UNL     1      30.610 -10.367 -20.577  0.00  0.00    +0.046 C 
ATOM     20  C   UNL     1      30.782 -11.762 -20.745  0.00  0.00    +0.049 C 
ATOM     21  C   UNL     1      32.088 -11.942 -21.133  0.00  0.00    +0.187 C 
BRANCH  21  22
ATOM     22  C   UNL     1      32.834 -13.100 -21.445  0.00  0.00    -0.023 C 
ATOM     23  C   UNL     1      33.468 -14.086 -21.710  0.00  0.00    -0.057 C 
BRANCH  23  24
ATOM     24  C   UNL     1      34.222 -15.259 -22.027  0.00  0.00    +0.042 C 
ATOM     25  C   UNL     1      34.379 -15.649 -23.357  0.00  0.00    +0.008 C 
ATOM     26  C   UNL     1      34.802 -16.014 -21.006  0.00  0.00    +0.008 C 
ATOM     27  C   UNL     1      35.115 -16.793 -23.667  0.00  0.00    +0.001 C 
ATOM     28  C   UNL     1      35.537 -17.157 -21.315  0.00  0.00    +0.001 C 
ATOM     29  C   UNL     1      35.694 -17.547 -22.646  0.00  0.00    +0.000 C 
ENDBRANCH  23  24
ENDBRANCH  21  22
ENDBRANCH  14  18
BRANCH  15  30
ATOM     30  C   UNL     1      29.444  -1.786 -24.852  0.00  0.00    -0.059 C 
BRANCH  30  31
ATOM     31  N   UNL     1      29.299  -1.793 -23.395  0.00  0.00    +0.383 N 
ATOM     32  H   UNL     1      29.972  -1.144 -22.984  0.00  0.00    -0.089 HD
ATOM     33  H   UNL     1      29.474  -2.733 -23.041  0.00  0.00    -0.089 HD
ATOM     34  H   UNL     1      28.353  -1.505 -23.146  0.00  0.00    -0.089 HD
ENDBRANCH  30  31
ENDBRANCH  15  30
TORSDOF 5
ENDMDL
MODEL 5
REMARK VINA RESULT:      -9.0      2.933      3.774
REMARK  Name = 24180717
REMARK  5 active torsions:
REMARK  status: ('A' for Active; 'I' for Inactive)
REMARK    1  A    between atoms: C_14  and  C_18
REMARK    2  A    between atoms: C_15  and  C_30
REMARK    3  A    between atoms: C_21  and  C_22
REMARK    4  A    between atoms: C_23  and  C_24
REMARK    5  A    between atoms: C_30  and  N_31
REMARK                            x       y       z     vdW  Elec       q    Type
REMARK                         _______ _______ _______ _____ _____    ______ ____
ROOT
ATOM      1  O   UNL     1      37.473 -18.557 -20.423  0.00  0.00    -0.475 OA
ATOM      2  O   UNL     1      32.650 -14.900 -24.182  0.00  0.00    -0.267 OA
ATOM      3  N   UNL     1      34.411 -15.340 -22.743  0.00  0.00    -0.274 N 
ATOM      4  C   UNL     1      35.450 -17.794 -21.552  0.00  0.00    +0.065 C 
ATOM      5  C   UNL     1      34.815 -16.674 -20.698  0.00  0.00    +0.029 C 
ATOM      6  C   UNL     1      34.898 -17.740 -22.986  0.00  0.00    +0.029 C 
ATOM      7  C   UNL     1      36.998 -17.742 -21.521  0.00  0.00    +0.209 C 
ATOM      8  C   UNL     1      35.281 -19.120 -20.880  0.00  0.00    +0.014 C 
ATOM      9  C   UNL     1      34.907 -15.296 -21.361  0.00  0.00    +0.094 C 
ATOM     10  C   UNL     1      35.048 -16.348 -23.593  0.00  0.00    +0.094 C 
ATOM     11  C   UNL     1      36.465 -19.470 -20.244  0.00  0.00    +0.135 C 
ATOM     12  C   UNL     1      34.168 -19.938 -20.783  0.00  0.00    -0.008 C 
ATOM     13  C   UNL     1      36.584 -20.621 -19.488  0.00  0.00    +0.036 C 
ATOM     14  C   UNL     1      33.391 -14.525 -23.273  0.00  0.00    +0.284 C 
ATOM     15  C   UNL     1      34.268 -21.115 -20.036  0.00  0.00    -0.044 C 
ATOM     16  C   UNL     1      35.468 -21.452 -19.391  0.00  0.00    -0.003 C 
ENDROOT
BRANCH  14  18
ATOM     17  O   UNL     1      33.483 -12.123 -23.496  0.00  0.00    -0.441 OA
ATOM     18  C   UNL     1      33.230 -13.193 -22.699  0.00  0.00    +0.199 C 
ATOM     19  C   UNL     1      32.852 -12.781 -21.443  0.00  0.00    +0.046 C 
ATOM     20  C   UNL     1      32.874 -11.366 -21.469  0.00  0.00    +0.049 C 
ATOM     21  C   UNL     1      33.264 -11.015 -22.740  0.00  0.00    +0.187 C 
BRANCH  21  22
ATOM     22  C   UNL     1      33.464  -9.759 -23.357  0.00  0.00    -0.023 C 
ATOM     23  C   UNL     1      33.633  -8.691 -23.881  0.00  0.00    -0.057 C 
BRANCH  23  24
ATOM     24  C   UNL     1      33.833  -7.420 -24.505  0.00  0.00    +0.042 C 
ATOM     25  C   UNL     1      32.784  -6.806 -25.188  0.00  0.00    +0.008 C 
ATOM     26  C   UNL     1      35.077  -6.793 -24.429  0.00  0.00    +0.008 C 
ATOM     27  C   UNL     1      32.977  -5.566 -25.797  0.00  0.00    +0.001 C 
ATOM     28  C   UNL     1      35.272  -5.554 -25.038  0.00  0.00    +0.001 C 
ATOM     29  C   UNL     1      34.222  -4.940 -25.721  0.00  0.00    +0.000 C 
ENDBRANCH  23  24
ENDBRANCH  21  22
ENDBRANCH  14  18
BRANCH  15  30
ATOM     30  C   UNL     1      33.085 -22.016 -19.915  0.00  0.00    -0.059 C 
BRANCH  30  31
ATOM     31  N   UNL     1      32.673 -22.209 -18.523  0.00  0.00    +0.383 N 
ATOM     32  H   UNL     1      33.441 -22.626 -17.995  0.00  0.00    -0.089 HD
ATOM     33  H   UNL     1      31.864 -22.829 -18.491  0.00  0.00    -0.089 HD
ATOM     34  H   UNL     1      32.428 -21.308 -18.113  0.00  0.00    -0.089 HD
ENDBRANCH  30  31
ENDBRANCH  15  30
TORSDOF 5
ENDMDL
MODEL 6
REMARK VINA RESULT:      -8.5      6.939     13.353
REMARK  Name = 24180717
REMARK  5 active torsions:
REMARK  status: ('A' for Active; 'I' for Inactive)
REMARK    1  A    between atoms: C_14  and  C_18
REMARK    2  A    between atoms: C_15  and  C_30
REMARK    3  A    between atoms: C_21  and  C_22
REMARK    4  A    between atoms: C_23  and  C_24
REMARK    5  A    between atoms: C_30  and  N_31
REMARK                            x       y       z     vdW  Elec       q    Type
REMARK                         _______ _______ _______ _____ _____    ______ ____
ROOT
ATOM      1  O   UNL     1      34.060  -5.950 -28.641  0.00  0.00    -0.475 OA
ATOM      2  O   UNL     1      32.998  -6.058 -21.595  0.00  0.00    -0.267 OA
ATOM      3  N   UNL     1      33.367  -6.815 -23.753  0.00  0.00    -0.274 N 
ATOM      4  C   UNL     1      33.299  -5.512 -26.365  0.00  0.00    +0.065 C 
ATOM      5  C   UNL     1      32.290  -6.615 -25.973  0.00  0.00    +0.029 C 
ATOM      6  C   UNL     1      33.827  -4.809 -25.103  0.00  0.00    +0.029 C 
ATOM      7  C   UNL     1      34.446  -6.061 -27.250  0.00  0.00    +0.209 C 
ATOM      8  C   UNL     1      32.693  -4.588 -27.373  0.00  0.00    +0.014 C 
ATOM      9  C   UNL     1      32.834  -7.564 -24.900  0.00  0.00    +0.094 C 
ATOM     10  C   UNL     1      34.378  -5.811 -24.091  0.00  0.00    +0.094 C 
ATOM     11  C   UNL     1      33.157  -4.918 -28.640  0.00  0.00    +0.135 C 
ATOM     12  C   UNL     1      31.768  -3.570 -27.211  0.00  0.00    -0.008 C 
ATOM     13  C   UNL     1      32.718  -4.268 -29.778  0.00  0.00    +0.036 C 
ATOM     14  C   UNL     1      32.970  -6.980 -22.412  0.00  0.00    +0.284 C 
ATOM     15  C   UNL     1      31.319  -2.889 -28.346  0.00  0.00    -0.044 C 
ATOM     16  C   UNL     1      31.791  -3.238 -29.621  0.00  0.00    -0.003 C 
ENDROOT
BRANCH  14  18
ATOM     17  O   UNL     1      33.083  -9.385 -22.594  0.00  0.00    -0.441 OA
ATOM     18  C   UNL     1      32.509  -8.303 -22.006  0.00  0.00    +0.199 C 
ATOM     19  C   UNL     1      31.556  -8.697 -21.097  0.00  0.00    +0.046 C 
ATOM     20  C   UNL     1      31.544 -10.112 -21.127  0.00  0.00    +0.049 C 
ATOM     21  C   UNL     1      32.490 -10.482 -22.053  0.00  0.00    +0.187 C 
BRANCH  21  22
ATOM     22  C   UNL     1      32.925 -11.746 -22.511  0.00  0.00    -0.023 C 
ATOM     23  C   UNL     1      33.296 -12.821 -22.899  0.00  0.00    -0.057 C 
BRANCH  23  24
ATOM     24  C   UNL     1      33.738 -14.100 -23.361  0.00  0.00    +0.042 C 
ATOM     25  C   UNL     1      34.544 -14.895 -22.547  0.00  0.00    +0.008 C 
ATOM     26  C   UNL     1      33.362 -14.554 -24.626  0.00  0.00    +0.008 C 
ATOM     27  C   UNL     1      34.976 -16.143 -22.997  0.00  0.00    +0.001 C 
ATOM     28  C   UNL     1      33.793 -15.801 -25.076  0.00  0.00    +0.001 C 
ATOM     29  C   UNL     1      34.600 -16.596 -24.261  0.00  0.00    +0.000 C 
ENDBRANCH  23  24
ENDBRANCH  21  22
ENDBRANCH  14  18
BRANCH  15  30
ATOM     30  C   UNL     1      30.324  -1.787 -28.202  0.00  0.00    -0.059 C 
BRANCH  30  31
ATOM     31  N   UNL     1      29.063  -2.083 -28.886  0.00  0.00    +0.383 N 
ATOM     32  H   UNL     1      28.863  -3.081 -28.813  0.00  0.00    -0.089 HD
ATOM     33  H   UNL     1      29.141  -1.824 -29.869  0.00  0.00    -0.089 HD
ATOM     34  H   UNL     1      28.309  -1.552 -28.453  0.00  0.00    -0.089 HD
ENDBRANCH  30  31
ENDBRANCH  15  30
TORSDOF 5
ENDMDL
MODEL 7
REMARK VINA RESULT:      -8.3      2.643      9.768
REMARK  Name = 24180717
REMARK  5 active torsions:
REMARK  status: ('A' for Active; 'I' for Inactive)
REMARK    1  A    between atoms: C_14  and  C_18
REMARK    2  A    between atoms: C_15  and  C_30
REMARK    3  A    between atoms: C_21  and  C_22
REMARK    4  A    between atoms: C_23  and  C_24
REMARK    5  A    between atoms: C_30  and  N_31
REMARK                            x       y       z     vdW  Elec       q    Type
REMARK                         _______ _______ _______ _____ _____    ______ ____
ROOT
ATOM      1  O   UNL     1      31.575 -11.617 -21.278  0.00  0.00    -0.475 OA
ATOM      2  O   UNL     1      35.256 -16.496 -24.942  0.00  0.00    -0.267 OA
ATOM      3  N   UNL     1      34.108 -15.492 -23.199  0.00  0.00    -0.274 N 
ATOM      4  C   UNL     1      33.139 -12.774 -22.750  0.00  0.00    +0.065 C 
ATOM      5  C   UNL     1      34.247 -13.403 -21.878  0.00  0.00    +0.029 C 
ATOM      6  C   UNL     1      33.117 -13.443 -24.135  0.00  0.00    +0.029 C 
ATOM      7  C   UNL     1      31.754 -12.825 -22.057  0.00  0.00    +0.209 C 
ATOM      8  C   UNL     1      33.289 -11.287 -22.790  0.00  0.00    +0.014 C 
ATOM      9  C   UNL     1      34.180 -14.933 -21.841  0.00  0.00    +0.094 C 
ATOM     10  C   UNL     1      33.021 -14.962 -24.024  0.00  0.00    +0.094 C 
ATOM     11  C   UNL     1      32.383 -10.707 -21.911  0.00  0.00    +0.135 C 
ATOM     12  C   UNL     1      34.180 -10.496 -23.497  0.00  0.00    -0.008 C 
ATOM     13  C   UNL     1      32.337  -9.343 -21.693  0.00  0.00    +0.036 C 
ATOM     14  C   UNL     1      34.993 -16.444 -23.740  0.00  0.00    +0.284 C 
ATOM     15  C   UNL     1      34.142  -9.113 -23.304  0.00  0.00    -0.044 C 
ATOM     16  C   UNL     1      33.227  -8.541 -22.407  0.00  0.00    -0.003 C 
ENDROOT
BRANCH  14  18
ATOM     17  O   UNL     1      34.786 -18.159 -22.052  0.00  0.00    -0.441 OA
ATOM     18  C   UNL     1      35.607 -17.391 -22.815  0.00  0.00    +0.199 C 
ATOM     19  C   UNL     1      36.924 -17.679 -22.546  0.00  0.00    +0.046 C 
ATOM     20  C   UNL     1      36.912 -18.688 -21.554  0.00  0.00    +0.049 C 
ATOM     21  C   UNL     1      35.589 -18.946 -21.287  0.00  0.00    +0.187 C 
BRANCH  21  22
ATOM     22  C   UNL     1      34.958 -19.845 -20.399  0.00  0.00    -0.023 C 
ATOM     23  C   UNL     1      34.421 -20.610 -19.644  0.00  0.00    -0.057 C 
BRANCH  23  24
ATOM     24  C   UNL     1      33.781 -21.520 -18.745  0.00  0.00    +0.042 C 
ATOM     25  C   UNL     1      32.424 -21.378 -18.459  0.00  0.00    +0.008 C 
ATOM     26  C   UNL     1      34.514 -22.551 -18.155  0.00  0.00    +0.008 C 
ATOM     27  C   UNL     1      31.798 -22.265 -17.582  0.00  0.00    +0.001 C 
ATOM     28  C   UNL     1      33.890 -23.438 -17.280  0.00  0.00    +0.001 C 
ATOM     29  C   UNL     1      32.532 -23.296 -16.993  0.00  0.00    +0.000 C 
ENDBRANCH  23  24
ENDBRANCH  21  22
ENDBRANCH  14  18
BRANCH  15  30
ATOM     30  C   UNL     1      35.089  -8.236 -24.053  0.00  0.00    -0.059 C 
BRANCH  30  31
ATOM     31  N   UNL     1      35.582  -7.124 -23.237  0.00  0.00    +0.383 N 
ATOM     32  H   UNL     1      35.528  -7.377 -22.250  0.00  0.00    -0.089 HD
ATOM     33  H   UNL     1      35.008  -6.298 -23.407  0.00  0.00    -0.089 HD
ATOM     34  H   UNL     1      36.550  -6.923 -23.485  0.00  0.00    -0.089 HD
ENDBRANCH  30  31
ENDBRANCH  15  30
TORSDOF 5
ENDMDL
