MODEL 1
REMARK VINA RESULT:     -11.1      0.000      0.000
REMARK  Name = 4449
REMARK  10 active torsions:
REMARK  status: ('A' for Active; 'I' for Inactive)
REMARK    1  A    between atoms: N_2  and  C_9
REMARK    2  A    between atoms: N_3  and  C_26
REMARK    3  A    between atoms: C_6  and  C_7
REMARK    4  A    between atoms: C_9  and  C_10
REMARK    5  A    between atoms: C_10  and  C_11
REMARK    6  A    between atoms: C_11  and  N_12
REMARK    7  A    between atoms: N_13  and  C_20
REMARK    8  A    between atoms: C_26  and  C_27
REMARK    9  A    between atoms: C_27  and  O_28
REMARK   10  A    between atoms: O_28  and  C_29
REMARK                            x       y       z     vdW  Elec       q    Type
REMARK                         _______ _______ _______ _____ _____    ______ ____
ROOT
ATOM      1  O   UNL     1      35.320 -16.537 -20.255  0.00  0.00    -0.245 OA
ATOM      2  N   UNL     1      34.327 -14.784 -21.472  0.00  0.00    -0.201 N 
ATOM      3  N   UNL     1      34.984 -16.581 -22.573  0.00  0.00    -0.263 N 
ATOM      4  N   UNL     1      34.027 -14.574 -22.792  0.00  0.00    -0.152 NA
ATOM      5  C   UNL     1      34.930 -16.039 -21.301  0.00  0.00    +0.348 A 
ATOM      6  C   UNL     1      34.436 -15.655 -23.388  0.00  0.00    +0.144 A 
ENDROOT
BRANCH   6   7
ATOM      7  C   UNL     1      34.312 -15.885 -24.857  0.00  0.00    +0.066 C 
ATOM      8  C   UNL     1      33.334 -14.904 -25.468  0.00  0.00    +0.008 C 
ENDBRANCH   6   7
BRANCH   2   9
ATOM      9  C   UNL     1      34.027 -13.801 -20.466  0.00  0.00    +0.130 C 
BRANCH   9  10
ATOM     10  C   UNL     1      32.573 -13.865 -20.002  0.00  0.00    +0.004 C 
BRANCH  10  11
ATOM     11  C   UNL     1      31.609 -13.000 -20.820  0.00  0.00    -0.075 C 
BRANCH  11  12
ATOM     12  N   UNL     1      32.051 -11.607 -20.891  0.00  0.00    +0.389 N 
ATOM     13  N   UNL     1      31.780  -8.809 -21.392  0.00  0.00    -0.312 N 
ATOM     14  C   UNL     1      31.248 -10.767 -19.996  0.00  0.00    -0.055 C 
ATOM     15  C   UNL     1      31.955 -11.106 -22.267  0.00  0.00    -0.055 C 
ATOM     16  C   UNL     1      31.736  -9.315 -20.018  0.00  0.00    +0.068 C 
ATOM     17  C   UNL     1      32.468  -9.667 -22.365  0.00  0.00    +0.068 C 
ATOM     18  H   UNL     1      33.025 -11.568 -20.593  0.00  0.00    -0.080 HD
BRANCH  13  20
ATOM     19 CL   UNL     1      30.636  -4.925 -24.529  0.00  0.00    -0.082 Cl
ATOM     20  C   UNL     1      31.774  -7.428 -21.623  0.00  0.00    +0.049 C 
ATOM     21  C   UNL     1      31.269  -6.924 -22.821  0.00  0.00    +0.026 C 
ATOM     22  C   UNL     1      32.268  -6.557 -20.653  0.00  0.00    +0.015 C 
ATOM     23  C   UNL     1      31.258  -5.549 -23.050  0.00  0.00    +0.059 C 
ATOM     24  C   UNL     1      32.258  -5.181 -20.881  0.00  0.00    +0.002 C 
ATOM     25  C   UNL     1      31.753  -4.676 -22.080  0.00  0.00    +0.011 C 
ENDBRANCH  13  20
ENDBRANCH  11  12
ENDBRANCH  10  11
ENDBRANCH   9  10
ENDBRANCH   2   9
BRANCH   3  26
ATOM     26  C   UNL     1      35.525 -17.881 -22.922  0.00  0.00    +0.159 C 
BRANCH  26  27
ATOM     27  C   UNL     1      34.768 -19.003 -22.236  0.00  0.00    +0.230 C 
BRANCH  27  28
ATOM     28  O   UNL     1      35.609 -19.616 -21.267  0.00  0.00    -0.473 OA
BRANCH  28  29
ATOM     29  C   UNL     1      35.000 -20.419 -20.339  0.00  0.00    +0.139 C 
ATOM     30  C   UNL     1      33.613 -20.385 -20.191  0.00  0.00    +0.037 C 
ATOM     31  C   UNL     1      35.765 -21.271 -19.543  0.00  0.00    +0.037 C 
ATOM     32  C   UNL     1      32.992 -21.202 -19.246  0.00  0.00    +0.003 C 
ATOM     33  C   UNL     1      35.145 -22.089 -18.599  0.00  0.00    +0.003 C 
ATOM     34  C   UNL     1      33.759 -22.055 -18.450  0.00  0.00    +0.000 C 
ENDBRANCH  28  29
ENDBRANCH  27  28
ENDBRANCH  26  27
ENDBRANCH   3  26
TORSDOF 10
ENDMDL
MODEL 2
REMARK VINA RESULT:     -11.0      3.575      6.879
REMARK  Name = 4449
REMARK  10 active torsions:
REMARK  status: ('A' for Active; 'I' for Inactive)
REMARK    1  A    between atoms: N_2  and  C_9
REMARK    2  A    between atoms: N_3  and  C_26
REMARK    3  A    between atoms: C_6  and  C_7
REMARK    4  A    between atoms: C_9  and  C_10
REMARK    5  A    between atoms: C_10  and  C_11
REMARK    6  A    between atoms: C_11  and  N_12
REMARK    7  A    between atoms: N_13  and  C_20
REMARK    8  A    between atoms: C_26  and  C_27
REMARK    9  A    between atoms: C_27  and  O_28
REMARK   10  A    between atoms: O_28  and  C_29
REMARK                            x       y       z     vdW  Elec       q    Type
REMARK                         _______ _______ _______ _____ _____    ______ ____
ROOT
ATOM      1  O   UNL     1      32.649 -21.788 -19.848  0.00  0.00    -0.245 OA
ATOM      2  N   UNL     1      34.745 -20.717 -19.891  0.00  0.00    -0.201 N 
ATOM      3  N   UNL     1      34.402 -22.287 -18.376  0.00  0.00    -0.263 N 
ATOM      4  N   UNL     1      35.899 -20.825 -19.160  0.00  0.00    -0.152 NA
ATOM      5  C   UNL     1      33.783 -21.624 -19.421  0.00  0.00    +0.348 A 
ATOM      6  C   UNL     1      35.639 -21.754 -18.288  0.00  0.00    +0.144 A 
ENDROOT
BRANCH   6   7
ATOM      7  C   UNL     1      36.619 -22.223 -17.266  0.00  0.00    +0.066 C 
ATOM      8  C   UNL     1      37.174 -21.051 -16.484  0.00  0.00    +0.008 C 
ENDBRANCH   6   7
BRANCH   2   9
ATOM      9  C   UNL     1      34.624 -19.779 -20.973  0.00  0.00    +0.130 C 
BRANCH   9  10
ATOM     10  C   UNL     1      35.746 -18.742 -20.977  0.00  0.00    +0.004 C 
BRANCH  10  11
ATOM     11  C   UNL     1      35.927 -18.011 -22.311  0.00  0.00    -0.075 C 
BRANCH  11  12
ATOM     12  N   UNL     1      35.573 -16.596 -22.212  0.00  0.00    +0.389 N 
ATOM     13  N   UNL     1      33.815 -14.361 -21.948  0.00  0.00    -0.312 N 
ATOM     14  C   UNL     1      34.909 -16.320 -20.933  0.00  0.00    -0.055 C 
ATOM     15  C   UNL     1      34.698 -16.205 -23.324  0.00  0.00    -0.055 C 
ATOM     16  C   UNL     1      34.583 -14.830 -20.792  0.00  0.00    +0.068 C 
ATOM     17  C   UNL     1      34.366 -14.712 -23.263  0.00  0.00    +0.068 C 
ATOM     18  H   UNL     1      36.433 -16.049 -22.261  0.00  0.00    -0.080 HD
BRANCH  13  20
ATOM     19 CL   UNL     1      32.479  -9.847 -23.965  0.00  0.00    -0.082 Cl
ATOM     20  C   UNL     1      33.053 -13.191 -21.846  0.00  0.00    +0.049 C 
ATOM     21  C   UNL     1      33.137 -12.216 -22.840  0.00  0.00    +0.026 C 
ATOM     22  C   UNL     1      32.205 -13.004 -20.755  0.00  0.00    +0.015 C 
ATOM     23  C   UNL     1      32.375 -11.052 -22.740  0.00  0.00    +0.059 C 
ATOM     24  C   UNL     1      31.442 -11.841 -20.655  0.00  0.00    +0.002 C 
ATOM     25  C   UNL     1      31.526 -10.865 -21.649  0.00  0.00    +0.011 C 
ENDBRANCH  13  20
ENDBRANCH  11  12
ENDBRANCH  10  11
ENDBRANCH   9  10
ENDBRANCH   2   9
BRANCH   3  26
ATOM     26  C   UNL     1      33.812 -23.333 -17.563  0.00  0.00    +0.159 C 
BRANCH  26  27
ATOM     27  C   UNL     1      33.100 -22.761 -16.350  0.00  0.00    +0.230 C 
BRANCH  27  28
ATOM     28  O   UNL     1      31.732 -22.539 -16.667  0.00  0.00    -0.473 OA
BRANCH  28  29
ATOM     29  C   UNL     1      30.806 -23.212 -15.915  0.00  0.00    +0.139 C 
ATOM     30  C   UNL     1      31.225 -24.096 -14.920  0.00  0.00    +0.037 C 
ATOM     31  C   UNL     1      29.445 -23.013 -16.143  0.00  0.00    +0.037 C 
ATOM     32  C   UNL     1      30.282 -24.781 -14.154  0.00  0.00    +0.003 C 
ATOM     33  C   UNL     1      28.502 -23.698 -15.376  0.00  0.00    +0.003 C 
ATOM     34  C   UNL     1      28.920 -24.582 -14.382  0.00  0.00    +0.000 C 
ENDBRANCH  28  29
ENDBRANCH  27  28
ENDBRANCH  26  27
ENDBRANCH   3  26
TORSDOF 10
ENDMDL
MODEL 3
REMARK VINA RESULT:     -10.8      4.286     11.432
REMARK  Name = 4449
REMARK  10 active torsions:
REMARK  status: ('A' for Active; 'I' for Inactive)
REMARK    1  A    between atoms: N_2  and  C_9
REMARK    2  A    between atoms: N_3  and  C_26
REMARK    3  A    between atoms: C_6  and  C_7
REMARK    4  A    between atoms: C_9  and  C_10
REMARK    5  A    between atoms: C_10  and  C_11
REMARK    6  A    between atoms: C_11  and  N_12
REMARK    7  A    between atoms: N_13  and  C_20
REMARK    8  A    between atoms: C_26  and  C_27
REMARK    9  A    between atoms: C_27  and  O_28
REMARK   10  A    between atoms: O_28  and  C_29
REMARK                            x       y       z     vdW  Elec       q    Type
REMARK                         _______ _______ _______ _____ _____    ______ ____
ROOT
ATOM      1  O   UNL     1      32.792 -10.935 -24.324  0.00  0.00    -0.245 OA
ATOM      2  N   UNL     1      33.151 -13.068 -23.393  0.00  0.00    -0.201 N 
ATOM      3  N   UNL     1      32.231 -11.513 -22.124  0.00  0.00    -0.263 N 
ATOM      4  N   UNL     1      32.918 -13.639 -22.170  0.00  0.00    -0.152 NA
ATOM      5  C   UNL     1      32.730 -11.729 -23.396  0.00  0.00    +0.348 A 
ATOM      6  C   UNL     1      32.383 -12.683 -21.468  0.00  0.00    +0.144 A 
ENDROOT
BRANCH   6   7
ATOM      7  C   UNL     1      31.951 -12.844 -20.050  0.00  0.00    +0.066 C 
ATOM      8  C   UNL     1      32.314 -14.222 -19.536  0.00  0.00    +0.008 C 
ENDBRANCH   6   7
BRANCH   2   9
ATOM      9  C   UNL     1      33.747 -13.811 -24.470  0.00  0.00    +0.130 C 
BRANCH   9  10
ATOM     10  C   UNL     1      33.757 -15.316 -24.207  0.00  0.00    +0.004 C 
BRANCH  10  11
ATOM     11  C   UNL     1      35.085 -16.006 -24.532  0.00  0.00    -0.075 C 
BRANCH  11  12
ATOM     12  N   UNL     1      35.341 -17.143 -23.649  0.00  0.00    +0.389 N 
ATOM     13  N   UNL     1      34.750 -19.027 -21.585  0.00  0.00    -0.312 N 
ATOM     14  C   UNL     1      34.349 -18.201 -23.871  0.00  0.00    -0.055 C 
ATOM     15  C   UNL     1      35.315 -16.720 -22.244  0.00  0.00    -0.055 C 
ATOM     16  C   UNL     1      34.639 -19.421 -22.992  0.00  0.00    +0.068 C 
ATOM     17  C   UNL     1      35.639 -17.891 -21.312  0.00  0.00    +0.068 C 
ATOM     18  H   UNL     1      36.268 -17.511 -23.866  0.00  0.00    -0.080 HD
BRANCH  13  20
ATOM     19 CL   UNL     1      36.867 -21.903 -17.915  0.00  0.00    -0.082 Cl
ATOM     20  C   UNL     1      34.582 -19.986 -20.580  0.00  0.00    +0.049 C 
ATOM     21  C   UNL     1      35.680 -20.417 -19.837  0.00  0.00    +0.026 C 
ATOM     22  C   UNL     1      33.314 -20.506 -20.318  0.00  0.00    +0.015 C 
ATOM     23  C   UNL     1      35.512 -21.369 -18.832  0.00  0.00    +0.059 C 
ATOM     24  C   UNL     1      33.146 -21.459 -19.314  0.00  0.00    +0.002 C 
ATOM     25  C   UNL     1      34.245 -21.890 -18.570  0.00  0.00    +0.011 C 
ENDBRANCH  13  20
ENDBRANCH  11  12
ENDBRANCH  10  11
ENDBRANCH   9  10
ENDBRANCH   2   9
BRANCH   3  26
ATOM     26  C   UNL     1      31.669 -10.271 -21.629  0.00  0.00    +0.159 C 
BRANCH  26  27
ATOM     27  C   UNL     1      32.736  -9.204 -21.460  0.00  0.00    +0.230 C 
BRANCH  27  28
ATOM     28  O   UNL     1      32.306  -8.003 -22.087  0.00  0.00    -0.473 OA
BRANCH  28  29
ATOM     29  C   UNL     1      33.231  -7.339 -22.850  0.00  0.00    +0.139 C 
ATOM     30  C   UNL     1      32.812  -6.396 -23.789  0.00  0.00    +0.037 C 
ATOM     31  C   UNL     1      34.589  -7.604 -22.687  0.00  0.00    +0.037 C 
ATOM     32  C   UNL     1      33.753  -5.720 -24.566  0.00  0.00    +0.003 C 
ATOM     33  C   UNL     1      35.531  -6.928 -23.463  0.00  0.00    +0.003 C 
ATOM     34  C   UNL     1      35.113  -5.986 -24.402  0.00  0.00    +0.000 C 
ENDBRANCH  28  29
ENDBRANCH  27  28
ENDBRANCH  26  27
ENDBRANCH   3  26
TORSDOF 10
ENDMDL
MODEL 4
REMARK VINA RESULT:     -10.8      1.663      2.200
REMARK  Name = 4449
REMARK  10 active torsions:
REMARK  status: ('A' for Active; 'I' for Inactive)
REMARK    1  A    between atoms: N_2  and  C_9
REMARK    2  A    between atoms: N_3  and  C_26
REMARK    3  A    between atoms: C_6  and  C_7
REMARK    4  A    between atoms: C_9  and  C_10
REMARK    5  A    between atoms: C_10  and  C_11
REMARK    6  A    between atoms: C_11  and  N_12
REMARK    7  A    between atoms: N_13  and  C_20
REMARK    8  A    between atoms: C_26  and  C_27
REMARK    9  A    between atoms: C_27  and  O_28
REMARK   10  A    between atoms: O_28  and  C_29
REMARK                            x       y       z     vdW  Elec       q    Type
REMARK                         _______ _______ _______ _____ _____    ______ ____
ROOT
ATOM      1  O   UNL     1      34.941 -15.663 -19.881  0.00  0.00    -0.245 OA
ATOM      2  N   UNL     1      33.667 -14.347 -21.360  0.00  0.00    -0.201 N 
ATOM      3  N   UNL     1      34.885 -15.985 -22.201  0.00  0.00    -0.263 N 
ATOM      4  N   UNL     1      33.470 -14.333 -22.716  0.00  0.00    -0.152 NA
ATOM      5  C   UNL     1      34.553 -15.375 -21.004  0.00  0.00    +0.348 A 
ATOM      6  C   UNL     1      34.209 -15.310 -23.155  0.00  0.00    +0.144 A 
ENDROOT
BRANCH   6   7
ATOM      7  C   UNL     1      34.311 -15.684 -24.595  0.00  0.00    +0.066 C 
ATOM      8  C   UNL     1      33.336 -14.875 -25.425  0.00  0.00    +0.008 C 
ENDBRANCH   6   7
BRANCH   2   9
ATOM      9  C   UNL     1      33.014 -13.402 -20.495  0.00  0.00    +0.130 C 
BRANCH   9  10
ATOM     10  C   UNL     1      31.862 -12.674 -21.187  0.00  0.00    +0.004 C 
BRANCH  10  11
ATOM     11  C   UNL     1      31.428 -11.377 -20.497  0.00  0.00    -0.075 C 
BRANCH  11  12
ATOM     12  N   UNL     1      31.537 -10.222 -21.388  0.00  0.00    +0.389 N 
ATOM     13  N   UNL     1      32.890  -8.269 -22.972  0.00  0.00    -0.312 N 
ATOM     14  C   UNL     1      32.176 -10.605 -22.652  0.00  0.00    -0.055 C 
ATOM     15  C   UNL     1      32.302  -9.147 -20.746  0.00  0.00    -0.055 C 
ATOM     16  C   UNL     1      32.245  -9.417 -23.615  0.00  0.00    +0.068 C 
ATOM     17  C   UNL     1      32.373  -7.910 -21.645  0.00  0.00    +0.068 C 
ATOM     18  H   UNL     1      30.594  -9.884 -21.585  0.00  0.00    -0.080 HD
BRANCH  13  20
ATOM     19 CL   UNL     1      32.141  -4.438 -26.287  0.00  0.00    -0.082 Cl
ATOM     20  C   UNL     1      33.442  -7.251 -23.759  0.00  0.00    +0.049 C 
ATOM     21  C   UNL     1      32.613  -6.447 -24.540  0.00  0.00    +0.026 C 
ATOM     22  C   UNL     1      34.821  -7.039 -23.756  0.00  0.00    +0.015 C 
ATOM     23  C   UNL     1      33.163  -5.431 -25.321  0.00  0.00    +0.059 C 
ATOM     24  C   UNL     1      35.370  -6.022 -24.537  0.00  0.00    +0.002 C 
ATOM     25  C   UNL     1      34.542  -5.217 -25.319  0.00  0.00    +0.011 C 
ENDBRANCH  13  20
ENDBRANCH  11  12
ENDBRANCH  10  11
ENDBRANCH   9  10
ENDBRANCH   2   9
BRANCH   3  26
ATOM     26  C   UNL     1      35.779 -17.116 -22.361  0.00  0.00    +0.159 C 
BRANCH  26  27
ATOM     27  C   UNL     1      35.089 -18.425 -22.022  0.00  0.00    +0.230 C 
BRANCH  27  28
ATOM     28  O   UNL     1      35.885 -19.152 -21.095  0.00  0.00    -0.473 OA
BRANCH  28  29
ATOM     29  C   UNL     1      35.246 -20.104 -20.345  0.00  0.00    +0.139 C 
ATOM     30  C   UNL     1      35.990 -21.033 -19.617  0.00  0.00    +0.037 C 
ATOM     31  C   UNL     1      33.853 -20.145 -20.309  0.00  0.00    +0.037 C 
ATOM     32  C   UNL     1      35.341 -22.002 -18.853  0.00  0.00    +0.003 C 
ATOM     33  C   UNL     1      33.203 -21.114 -19.545  0.00  0.00    +0.003 C 
ATOM     34  C   UNL     1      33.946 -22.042 -18.817  0.00  0.00    +0.000 C 
ENDBRANCH  28  29
ENDBRANCH  27  28
ENDBRANCH  26  27
ENDBRANCH   3  26
TORSDOF 10
ENDMDL
MODEL 5
REMARK VINA RESULT:     -10.6      4.578     11.569
REMARK  Name = 4449
REMARK  10 active torsions:
REMARK  status: ('A' for Active; 'I' for Inactive)
REMARK    1  A    between atoms: N_2  and  C_9
REMARK    2  A    between atoms: N_3  and  C_26
REMARK    3  A    between atoms: C_6  and  C_7
REMARK    4  A    between atoms: C_9  and  C_10
REMARK    5  A    between atoms: C_10  and  C_11
REMARK    6  A    between atoms: C_11  and  N_12
REMARK    7  A    between atoms: N_13  and  C_20
REMARK    8  A    between atoms: C_26  and  C_27
REMARK    9  A    between atoms: C_27  and  O_28
REMARK   10  A    between atoms: O_28  and  C_29
REMARK                            x       y       z     vdW  Elec       q    Type
REMARK                         _______ _______ _______ _____ _____    ______ ____
ROOT
ATOM      1  O   UNL     1      35.324 -16.257 -20.274  0.00  0.00    -0.245 OA
ATOM      2  N   UNL     1      35.197 -16.891 -22.538  0.00  0.00    -0.201 N 
ATOM      3  N   UNL     1      34.345 -14.942 -21.947  0.00  0.00    -0.263 N 
ATOM      4  N   UNL     1      34.690 -16.318 -23.674  0.00  0.00    -0.152 NA
ATOM      5  C   UNL     1      34.994 -16.050 -21.433  0.00  0.00    +0.348 A 
ATOM      6  C   UNL     1      34.202 -15.182 -23.268  0.00  0.00    +0.144 A 
ENDROOT
BRANCH   6   7
ATOM      7  C   UNL     1      33.540 -14.198 -24.172  0.00  0.00    +0.066 C 
ATOM      8  C   UNL     1      33.315 -14.803 -25.543  0.00  0.00    +0.008 C 
ENDBRANCH   6   7
BRANCH   2   9
ATOM      9  C   UNL     1      35.834 -18.180 -22.564  0.00  0.00    +0.130 C 
BRANCH   9  10
ATOM     10  C   UNL     1      34.833 -19.323 -22.728  0.00  0.00    +0.004 C 
BRANCH  10  11
ATOM     11  C   UNL     1      33.931 -19.553 -21.512  0.00  0.00    -0.075 C 
BRANCH  11  12
ATOM     12  N   UNL     1      34.473 -20.573 -20.614  0.00  0.00    +0.389 N 
ATOM     13  N   UNL     1      35.322 -21.661 -18.114  0.00  0.00    -0.312 N 
ATOM     14  C   UNL     1      33.488 -20.930 -19.587  0.00  0.00    -0.055 C 
ATOM     15  C   UNL     1      35.708 -20.097 -19.979  0.00  0.00    -0.055 C 
ATOM     16  C   UNL     1      34.021 -22.038 -18.674  0.00  0.00    +0.068 C 
ATOM     17  C   UNL     1      36.315 -21.178 -19.081  0.00  0.00    +0.068 C 
ATOM     18  H   UNL     1      34.685 -21.403 -21.168  0.00  0.00    -0.080 HD
BRANCH  13  20
ATOM     19 CL   UNL     1      34.318 -24.665 -14.089  0.00  0.00    -0.082 Cl
ATOM     20  C   UNL     1      35.787 -22.291 -16.954  0.00  0.00    +0.049 C 
ATOM     21  C   UNL     1      34.921 -23.071 -16.189  0.00  0.00    +0.026 C 
ATOM     22  C   UNL     1      37.119 -22.143 -16.567  0.00  0.00    +0.015 C 
ATOM     23  C   UNL     1      35.386 -23.703 -15.036  0.00  0.00    +0.059 C 
ATOM     24  C   UNL     1      37.585 -22.774 -15.414  0.00  0.00    +0.002 C 
ATOM     25  C   UNL     1      36.718 -23.555 -14.648  0.00  0.00    +0.011 C 
ENDBRANCH  13  20
ENDBRANCH  11  12
ENDBRANCH  10  11
ENDBRANCH   9  10
ENDBRANCH   2   9
BRANCH   3  26
ATOM     26  C   UNL     1      33.918 -13.779 -21.193  0.00  0.00    +0.159 C 
BRANCH  26  27
ATOM     27  C   UNL     1      32.578 -14.013 -20.518  0.00  0.00    +0.230 C 
BRANCH  27  28
ATOM     28  O   UNL     1      31.634 -13.067 -21.003  0.00  0.00    -0.473 OA
BRANCH  28  29
ATOM     29  C   UNL     1      31.761 -11.780 -20.551  0.00  0.00    +0.139 C 
ATOM     30  C   UNL     1      31.985 -11.535 -19.197  0.00  0.00    +0.037 C 
ATOM     31  C   UNL     1      31.666 -10.714 -21.446  0.00  0.00    +0.037 C 
ATOM     32  C   UNL     1      32.114 -10.225 -18.736  0.00  0.00    +0.003 C 
ATOM     33  C   UNL     1      31.796  -9.404 -20.986  0.00  0.00    +0.003 C 
ATOM     34  C   UNL     1      32.020  -9.159 -19.632  0.00  0.00    +0.000 C 
ENDBRANCH  28  29
ENDBRANCH  27  28
ENDBRANCH  26  27
ENDBRANCH   3  26
TORSDOF 10
ENDMDL
MODEL 6
REMARK VINA RESULT:     -10.5      4.773     12.003
REMARK  Name = 4449
REMARK  10 active torsions:
REMARK  status: ('A' for Active; 'I' for Inactive)
REMARK    1  A    between atoms: N_2  and  C_9
REMARK    2  A    between atoms: N_3  and  C_26
REMARK    3  A    between atoms: C_6  and  C_7
REMARK    4  A    between atoms: C_9  and  C_10
REMARK    5  A    between atoms: C_10  and  C_11
REMARK    6  A    between atoms: C_11  and  N_12
REMARK    7  A    between atoms: N_13  and  C_20
REMARK    8  A    between atoms: C_26  and  C_27
REMARK    9  A    between atoms: C_27  and  O_28
REMARK   10  A    between atoms: O_28  and  C_29
REMARK                            x       y       z     vdW  Elec       q    Type
REMARK                         _______ _______ _______ _____ _____    ______ ____
ROOT
ATOM      1  O   UNL     1      34.371 -15.806 -24.838  0.00  0.00    -0.245 OA
ATOM      2  N   UNL     1      34.949 -16.265 -22.602  0.00  0.00    -0.201 N 
ATOM      3  N   UNL     1      33.781 -14.441 -23.028  0.00  0.00    -0.263 N 
ATOM      4  N   UNL     1      34.731 -15.644 -21.402  0.00  0.00    -0.152 NA
ATOM      5  C   UNL     1      34.364 -15.533 -23.646  0.00  0.00    +0.348 A 
ATOM      6  C   UNL     1      34.046 -14.582 -21.712  0.00  0.00    +0.144 A 
ENDROOT
BRANCH   6   7
ATOM      7  C   UNL     1      33.569 -13.585 -20.710  0.00  0.00    +0.066 C 
ATOM      8  C   UNL     1      32.441 -14.164 -19.881  0.00  0.00    +0.008 C 
ENDBRANCH   6   7
BRANCH   2   9
ATOM      9  C   UNL     1      35.685 -17.497 -22.690  0.00  0.00    +0.130 C 
BRANCH   9  10
ATOM     10  C   UNL     1      35.571 -18.338 -21.419  0.00  0.00    +0.004 C 
BRANCH  10  11
ATOM     11  C   UNL     1      34.699 -19.589 -21.565  0.00  0.00    -0.075 C 
BRANCH  11  12
ATOM     12  N   UNL     1      35.060 -20.623 -20.596  0.00  0.00    +0.389 N 
ATOM     13  N   UNL     1      35.525 -21.714 -17.998  0.00  0.00    -0.312 N 
ATOM     14  C   UNL     1      33.936 -20.898 -19.694  0.00  0.00    -0.055 C 
ATOM     15  C   UNL     1      36.236 -20.213 -19.819  0.00  0.00    -0.055 C 
ATOM     16  C   UNL     1      34.282 -22.020 -18.710  0.00  0.00    +0.068 C 
ATOM     17  C   UNL     1      36.658 -21.312 -18.841  0.00  0.00    +0.068 C 
ATOM     18  H   UNL     1      35.285 -21.475 -21.110  0.00  0.00    -0.080 HD
BRANCH  13  20
ATOM     19 CL   UNL     1      33.796 -24.386 -13.985  0.00  0.00    -0.082 Cl
ATOM     20  C   UNL     1      35.804 -22.350 -16.782  0.00  0.00    +0.049 C 
ATOM     21  C   UNL     1      34.780 -22.976 -16.072  0.00  0.00    +0.026 C 
ATOM     22  C   UNL     1      37.107 -22.361 -16.285  0.00  0.00    +0.015 C 
ATOM     23  C   UNL     1      35.059 -23.613 -14.864  0.00  0.00    +0.059 C 
ATOM     24  C   UNL     1      37.386 -22.998 -15.076  0.00  0.00    +0.002 C 
ATOM     25  C   UNL     1      36.362 -23.625 -14.365  0.00  0.00    +0.011 C 
ENDBRANCH  13  20
ENDBRANCH  11  12
ENDBRANCH  10  11
ENDBRANCH   9  10
ENDBRANCH   2   9
BRANCH   3  26
ATOM     26  C   UNL     1      33.044 -13.381 -23.689  0.00  0.00    +0.159 C 
BRANCH  26  27
ATOM     27  C   UNL     1      33.913 -12.157 -23.919  0.00  0.00    +0.230 C 
BRANCH  27  28
ATOM     28  O   UNL     1      33.085 -11.039 -24.212  0.00  0.00    -0.473 OA
BRANCH  28  29
ATOM     29  C   UNL     1      32.897 -10.129 -23.206  0.00  0.00    +0.139 C 
ATOM     30  C   UNL     1      31.947 -10.372 -22.213  0.00  0.00    +0.037 C 
ATOM     31  C   UNL     1      33.654  -8.959 -23.173  0.00  0.00    +0.037 C 
ATOM     32  C   UNL     1      31.755  -9.446 -21.189  0.00  0.00    +0.003 C 
ATOM     33  C   UNL     1      33.463  -8.032 -22.148  0.00  0.00    +0.003 C 
ATOM     34  C   UNL     1      32.514  -8.275 -21.156  0.00  0.00    +0.000 C 
ENDBRANCH  28  29
ENDBRANCH  27  28
ENDBRANCH  26  27
ENDBRANCH   3  26
TORSDOF 10
ENDMDL
MODEL 7
REMARK VINA RESULT:     -10.4      4.690     12.003
REMARK  Name = 4449
REMARK  10 active torsions:
REMARK  status: ('A' for Active; 'I' for Inactive)
REMARK    1  A    between atoms: N_2  and  C_9
REMARK    2  A    between atoms: N_3  and  C_26
REMARK    3  A    between atoms: C_6  and  C_7
REMARK    4  A    between atoms: C_9  and  C_10
REMARK    5  A    between atoms: C_10  and  C_11
REMARK    6  A    between atoms: C_11  and  N_12
REMARK    7  A    between atoms: N_13  and  C_20
REMARK    8  A    between atoms: C_26  and  C_27
REMARK    9  A    between atoms: C_27  and  O_28
REMARK   10  A    between atoms: O_28  and  C_29
REMARK                            x       y       z     vdW  Elec       q    Type
REMARK                         _______ _______ _______ _____ _____    ______ ____
ROOT
ATOM      1  O   UNL     1      35.310 -16.389 -24.196  0.00  0.00    -0.245 OA
ATOM      2  N   UNL     1      35.264 -17.191 -21.983  0.00  0.00    -0.201 N 
ATOM      3  N   UNL     1      34.732 -15.078 -22.343  0.00  0.00    -0.263 N 
ATOM      4  N   UNL     1      34.969 -16.642 -20.763  0.00  0.00    -0.152 NA
ATOM      5  C   UNL     1      35.125 -16.232 -22.998  0.00  0.00    +0.348 A 
ATOM      6  C   UNL     1      34.668 -15.405 -21.034  0.00  0.00    +0.144 A 
ENDROOT
BRANCH   6   7
ATOM      7  C   UNL     1      34.270 -14.408 -20.000  0.00  0.00    +0.066 C 
ATOM      8  C   UNL     1      32.779 -14.479 -19.739  0.00  0.00    +0.008 C 
ENDBRANCH   6   7
BRANCH   2   9
ATOM      9  C   UNL     1      35.652 -18.569 -22.115  0.00  0.00    +0.130 C 
BRANCH   9  10
ATOM     10  C   UNL     1      35.217 -19.415 -20.919  0.00  0.00    +0.004 C 
BRANCH  10  11
ATOM     11  C   UNL     1      36.347 -20.224 -20.273  0.00  0.00    -0.075 C 
BRANCH  11  12
ATOM     12  N   UNL     1      35.833 -21.300 -19.426  0.00  0.00    +0.389 N 
ATOM     13  N   UNL     1      34.442 -22.430 -17.202  0.00  0.00    -0.312 N 
ATOM     14  C   UNL     1      34.368 -21.251 -19.364  0.00  0.00    -0.055 C 
ATOM     15  C   UNL     1      36.394 -21.204 -18.073  0.00  0.00    -0.055 C 
ATOM     16  C   UNL     1      33.814 -22.407 -18.526  0.00  0.00    +0.068 C 
ATOM     17  C   UNL     1      35.909 -22.358 -17.194  0.00  0.00    +0.068 C 
ATOM     18  H   UNL     1      36.115 -22.190 -19.838  0.00  0.00    -0.080 HD
BRANCH  13  20
ATOM     19 CL   UNL     1      30.075 -23.970 -15.016  0.00  0.00    -0.082 Cl
ATOM     20  C   UNL     1      33.811 -23.096 -16.145  0.00  0.00    +0.049 C 
ATOM     21  C   UNL     1      32.420 -23.189 -16.111  0.00  0.00    +0.026 C 
ATOM     22  C   UNL     1      34.574 -23.671 -15.129  0.00  0.00    +0.015 C 
ATOM     23  C   UNL     1      31.792 -23.856 -15.060  0.00  0.00    +0.059 C 
ATOM     24  C   UNL     1      33.946 -24.338 -14.078  0.00  0.00    +0.002 C 
ATOM     25  C   UNL     1      32.554 -24.431 -14.043  0.00  0.00    +0.011 C 
ENDBRANCH  13  20
ENDBRANCH  11  12
ENDBRANCH  10  11
ENDBRANCH   9  10
ENDBRANCH   2   9
BRANCH   3  26
ATOM     26  C   UNL     1      34.456 -13.797 -22.964  0.00  0.00    +0.159 C 
BRANCH  26  27
ATOM     27  C   UNL     1      33.082 -13.776 -23.609  0.00  0.00    +0.230 C 
BRANCH  27  28
ATOM     28  O   UNL     1      32.151 -13.179 -22.716  0.00  0.00    -0.473 OA
BRANCH  28  29
ATOM     29  C   UNL     1      32.249 -11.824 -22.536  0.00  0.00    +0.139 C 
ATOM     30  C   UNL     1      31.784 -11.242 -21.356  0.00  0.00    +0.037 C 
ATOM     31  C   UNL     1      32.814 -11.027 -23.530  0.00  0.00    +0.037 C 
ATOM     32  C   UNL     1      31.884  -9.864 -21.171  0.00  0.00    +0.003 C 
ATOM     33  C   UNL     1      32.914  -9.648 -23.346  0.00  0.00    +0.003 C 
ATOM     34  C   UNL     1      32.449  -9.066 -22.167  0.00  0.00    +0.000 C 
ENDBRANCH  28  29
ENDBRANCH  27  28
ENDBRANCH  26  27
ENDBRANCH   3  26
TORSDOF 10
ENDMDL
MODEL 8
REMARK VINA RESULT:     -10.2      6.125     10.597
REMARK  Name = 4449
REMARK  10 active torsions:
REMARK  status: ('A' for Active; 'I' for Inactive)
REMARK    1  A    between atoms: N_2  and  C_9
REMARK    2  A    between atoms: N_3  and  C_26
REMARK    3  A    between atoms: C_6  and  C_7
REMARK    4  A    between atoms: C_9  and  C_10
REMARK    5  A    between atoms: C_10  and  C_11
REMARK    6  A    between atoms: C_11  and  N_12
REMARK    7  A    between atoms: N_13  and  C_20
REMARK    8  A    between atoms: C_26  and  C_27
REMARK    9  A    between atoms: C_27  and  O_28
REMARK   10  A    between atoms: O_28  and  C_29
REMARK                            x       y       z     vdW  Elec       q    Type
REMARK                         _______ _______ _______ _____ _____    ______ ____
ROOT
ATOM      1  O   UNL     1      34.645 -22.294 -14.884  0.00  0.00    -0.245 OA
ATOM      2  N   UNL     1      36.954 -22.554 -15.262  0.00  0.00    -0.201 N 
ATOM      3  N   UNL     1      36.037 -23.655 -13.582  0.00  0.00    -0.263 N 
ATOM      4  N   UNL     1      37.956 -23.269 -14.661  0.00  0.00    -0.152 NA
ATOM      5  C   UNL     1      35.733 -22.775 -14.605  0.00  0.00    +0.348 A 
ATOM      6  C   UNL     1      37.362 -23.891 -13.684  0.00  0.00    +0.144 A 
ENDROOT
BRANCH   6   7
ATOM      7  C   UNL     1      38.066 -24.807 -12.741  0.00  0.00    +0.066 C 
ATOM      8  C   UNL     1      38.923 -25.798 -13.503  0.00  0.00    +0.008 C 
ENDBRANCH   6   7
BRANCH   2   9
ATOM      9  C   UNL     1      37.206 -21.718 -16.404  0.00  0.00    +0.130 C 
BRANCH   9  10
ATOM     10  C   UNL     1      36.155 -21.892 -17.499  0.00  0.00    +0.004 C 
BRANCH  10  11
ATOM     11  C   UNL     1      36.676 -21.656 -18.920  0.00  0.00    -0.075 C 
BRANCH  11  12
ATOM     12  N   UNL     1      36.155 -20.416 -19.494  0.00  0.00    +0.389 N 
ATOM     13  N   UNL     1      35.403 -18.627 -21.589  0.00  0.00    -0.312 N 
ATOM     14  C   UNL     1      34.967 -20.687 -20.312  0.00  0.00    -0.055 C 
ATOM     15  C   UNL     1      37.181 -19.753 -20.308  0.00  0.00    -0.055 C 
ATOM     16  C   UNL     1      34.378 -19.390 -20.873  0.00  0.00    +0.068 C 
ATOM     17  C   UNL     1      36.666 -18.425 -20.867  0.00  0.00    +0.068 C 
ATOM     18  H   UNL     1      35.892 -19.797 -18.727  0.00  0.00    -0.080 HD
BRANCH  13  20
ATOM     19 CL   UNL     1      34.624 -13.682 -22.674  0.00  0.00    -0.082 Cl
ATOM     20  C   UNL     1      35.022 -17.660 -22.527  0.00  0.00    +0.049 C 
ATOM     21  C   UNL     1      35.013 -16.311 -22.174  0.00  0.00    +0.026 C 
ATOM     22  C   UNL     1      34.656 -18.046 -23.816  0.00  0.00    +0.015 C 
ATOM     23  C   UNL     1      34.637 -15.348 -23.109  0.00  0.00    +0.059 C 
ATOM     24  C   UNL     1      34.280 -17.083 -24.752  0.00  0.00    +0.002 C 
ATOM     25  C   UNL     1      34.270 -15.733 -24.399  0.00  0.00    +0.011 C 
ENDBRANCH  13  20
ENDBRANCH  11  12
ENDBRANCH  10  11
ENDBRANCH   9  10
ENDBRANCH   2   9
BRANCH   3  26
ATOM     26  C   UNL     1      35.099 -24.193 -12.615  0.00  0.00    +0.159 C 
BRANCH  26  27
ATOM     27  C   UNL     1      33.829 -24.685 -13.285  0.00  0.00    +0.230 C 
BRANCH  27  28
ATOM     28  O   UNL     1      32.718 -23.952 -12.785  0.00  0.00    -0.473 OA
BRANCH  28  29
ATOM     29  C   UNL     1      31.556 -24.022 -13.507  0.00  0.00    +0.139 C 
ATOM     30  C   UNL     1      31.117 -22.914 -14.232  0.00  0.00    +0.037 C 
ATOM     31  C   UNL     1      30.812 -25.201 -13.519  0.00  0.00    +0.037 C 
ATOM     32  C   UNL     1      29.934 -22.984 -14.968  0.00  0.00    +0.003 C 
ATOM     33  C   UNL     1      29.629 -25.273 -14.255  0.00  0.00    +0.003 C 
ATOM     34  C   UNL     1      29.190 -24.165 -14.979  0.00  0.00    +0.000 C 
ENDBRANCH  28  29
ENDBRANCH  27  28
ENDBRANCH  26  27
ENDBRANCH   3  26
TORSDOF 10
ENDMDL
MODEL 9
REMARK VINA RESULT:     -10.1      4.125     11.777
REMARK  Name = 4449
REMARK  10 active torsions:
REMARK  status: ('A' for Active; 'I' for Inactive)
REMARK    1  A    between atoms: N_2  and  C_9
REMARK    2  A    between atoms: N_3  and  C_26
REMARK    3  A    between atoms: C_6  and  C_7
REMARK    4  A    between atoms: C_9  and  C_10
REMARK    5  A    between atoms: C_10  and  C_11
REMARK    6  A    between atoms: C_11  and  N_12
REMARK    7  A    between atoms: N_13  and  C_20
REMARK    8  A    between atoms: C_26  and  C_27
REMARK    9  A    between atoms: C_27  and  O_28
REMARK   10  A    between atoms: O_28  and  C_29
REMARK                            x       y       z     vdW  Elec       q    Type
REMARK                         _______ _______ _______ _____ _____    ______ ____
ROOT
ATOM      1  O   UNL     1      31.813 -13.156 -21.832  0.00  0.00    -0.245 OA
ATOM      2  N   UNL     1      33.283 -12.722 -23.620  0.00  0.00    -0.201 N 
ATOM      3  N   UNL     1      32.684 -11.037 -22.323  0.00  0.00    -0.263 N 
ATOM      4  N   UNL     1      33.912 -11.605 -24.102  0.00  0.00    -0.152 NA
ATOM      5  C   UNL     1      32.501 -12.397 -22.500  0.00  0.00    +0.348 A 
ATOM      6  C   UNL     1      33.524 -10.651 -23.308  0.00  0.00    +0.144 A 
ENDROOT
BRANCH   6   7
ATOM      7  C   UNL     1      33.964  -9.233 -23.445  0.00  0.00    +0.066 C 
ATOM      8  C   UNL     1      35.449  -9.162 -23.734  0.00  0.00    +0.008 C 
ENDBRANCH   6   7
BRANCH   2   9
ATOM      9  C   UNL     1      33.456 -14.009 -24.235  0.00  0.00    +0.130 C 
BRANCH   9  10
ATOM     10  C   UNL     1      34.604 -14.804 -23.614  0.00  0.00    +0.004 C 
BRANCH  10  11
ATOM     11  C   UNL     1      34.951 -16.098 -24.357  0.00  0.00    -0.075 C 
BRANCH  11  12
ATOM     12  N   UNL     1      35.271 -17.188 -23.436  0.00  0.00    +0.389 N 
ATOM     13  N   UNL     1      34.740 -19.136 -21.416  0.00  0.00    -0.312 N 
ATOM     14  C   UNL     1      34.464 -18.374 -23.742  0.00  0.00    -0.055 C 
ATOM     15  C   UNL     1      35.043 -16.773 -22.047  0.00  0.00    -0.055 C 
ATOM     16  C   UNL     1      34.830 -19.542 -22.821  0.00  0.00    +0.068 C 
ATOM     17  C   UNL     1      35.429 -17.886 -21.070  0.00  0.00    +0.068 C 
ATOM     18  H   UNL     1      36.258 -17.422 -23.552  0.00  0.00    -0.080 HD
BRANCH  13  20
ATOM     19 CL   UNL     1      36.972 -22.034 -17.832  0.00  0.00    -0.082 Cl
ATOM     20  C   UNL     1      34.606 -20.109 -20.419  0.00  0.00    +0.049 C 
ATOM     21  C   UNL     1      35.725 -20.537 -19.707  0.00  0.00    +0.026 C 
ATOM     22  C   UNL     1      33.350 -20.646 -20.135  0.00  0.00    +0.015 C 
ATOM     23  C   UNL     1      35.590 -21.504 -18.711  0.00  0.00    +0.059 C 
ATOM     24  C   UNL     1      33.215 -21.613 -19.139  0.00  0.00    +0.002 C 
ATOM     25  C   UNL     1      34.335 -22.041 -18.426  0.00  0.00    +0.011 C 
ENDBRANCH  13  20
ENDBRANCH  11  12
ENDBRANCH  10  11
ENDBRANCH   9  10
ENDBRANCH   2   9
BRANCH   3  26
ATOM     26  C   UNL     1      32.082 -10.225 -21.284  0.00  0.00    +0.159 C 
BRANCH  26  27
ATOM     27  C   UNL     1      31.204  -9.133 -21.868  0.00  0.00    +0.230 C 
BRANCH  27  28
ATOM     28  O   UNL     1      31.458  -7.909 -21.191  0.00  0.00    -0.473 OA
BRANCH  28  29
ATOM     29  C   UNL     1      31.387  -6.763 -21.938  0.00  0.00    +0.139 C 
ATOM     30  C   UNL     1      30.967  -6.822 -23.267  0.00  0.00    +0.037 C 
ATOM     31  C   UNL     1      31.733  -5.538 -21.370  0.00  0.00    +0.037 C 
ATOM     32  C   UNL     1      30.894  -5.655 -24.028  0.00  0.00    +0.003 C 
ATOM     33  C   UNL     1      31.659  -4.370 -22.130  0.00  0.00    +0.003 C 
ATOM     34  C   UNL     1      31.240  -4.429 -23.459  0.00  0.00    +0.000 C 
ENDBRANCH  28  29
ENDBRANCH  27  28
ENDBRANCH  26  27
ENDBRANCH   3  26
TORSDOF 10
ENDMDL
