MODEL 1
REMARK VINA RESULT:     -11.6      0.000      0.000
REMARK  Name = 6918554
REMARK  8 active torsions:
REMARK  status: ('A' for Active; 'I' for Inactive)
REMARK    1  A    between atoms: C_1  and  N_2
REMARK    2  A    between atoms: C_1  and  C_18
REMARK    3  A    between atoms: N_2  and  C_5
REMARK    4  A    between atoms: C_12  and  C_14
REMARK    5  A    between atoms: C_13  and  C_16
REMARK    6  A    between atoms: C_18  and  C_21
REMARK    7  A    between atoms: C_18  and  O_33
REMARK    8  A    between atoms: C_27  and  O_31
REMARK                            x       y       z     vdW  Elec       q    Type
REMARK                         _______ _______ _______ _____ _____    ______ ____
ROOT
ATOM      1  C   UNL     1      36.054 -18.306 -22.002  0.00  0.00    -0.047 C 
ENDROOT
BRANCH   1   2
ATOM      2  N   UNL     1      34.831 -19.094 -22.092  0.00  0.00    +0.387 N 
ATOM      3  H   UNL     1      34.042 -18.517 -21.803  0.00  0.00    -0.084 HD
ATOM      4  H   UNL     1      34.715 -19.404 -23.056  0.00  0.00    -0.084 HD
BRANCH   2   5
ATOM      5  C   UNL     1      34.902 -20.266 -21.232  0.00  0.00    -0.053 C 
ATOM      6  C   UNL     1      36.014 -20.165 -20.167  0.00  0.00    +0.005 C 
ATOM      7  C   UNL     1      33.587 -20.511 -20.463  0.00  0.00    +0.005 C 
ATOM      8  C   UNL     1      35.469 -21.066 -19.103  0.00  0.00    -0.029 C 
ATOM      9  C   UNL     1      34.093 -21.262 -19.271  0.00  0.00    -0.029 C 
ATOM     10  C   UNL     1      36.147 -21.632 -18.036  0.00  0.00    -0.009 C 
ATOM     11  C   UNL     1      33.367 -22.028 -18.375  0.00  0.00    -0.009 C 
ATOM     12  C   UNL     1      35.425 -22.417 -17.134  0.00  0.00    -0.026 C 
ATOM     13  C   UNL     1      34.044 -22.613 -17.303  0.00  0.00    -0.026 C 
BRANCH  12  14
ATOM     14  C   UNL     1      36.147 -23.037 -15.982  0.00  0.00    +0.026 C 
ATOM     15  C   UNL     1      37.532 -22.434 -15.776  0.00  0.00    +0.005 C 
ENDBRANCH  12  14
BRANCH  13  16
ATOM     16  C   UNL     1      33.272 -23.448 -16.333  0.00  0.00    +0.026 C 
ATOM     17  C   UNL     1      31.815 -23.006 -16.224  0.00  0.00    +0.005 C 
ENDBRANCH  13  16
ENDBRANCH   2   5
ENDBRANCH   1   2
BRANCH   1  18
ATOM     18  C   UNL     1      35.740 -16.847 -21.649  0.00  0.00    +0.112 C 
BRANCH  18  21
ATOM     19  O   UNL     1      32.088 -11.576 -21.845  0.00  0.00    -0.270 OA
ATOM     20  N   UNL     1      32.719 -13.269 -23.273  0.00  0.00    -0.278 N 
ATOM     21  C   UNL     1      34.903 -16.186 -22.721  0.00  0.00    +0.004 C 
ATOM     22  C   UNL     1      34.197 -15.015 -22.474  0.00  0.00    +0.015 C 
ATOM     23  C   UNL     1      34.869 -16.798 -23.967  0.00  0.00    +0.001 C 
ATOM     24  C   UNL     1      33.440 -14.453 -23.509  0.00  0.00    +0.084 C 
ATOM     25  C   UNL     1      34.111 -16.231 -24.993  0.00  0.00    +0.038 C 
ATOM     26  C   UNL     1      34.218 -14.353 -21.173  0.00  0.00    +0.006 C 
ATOM     27  C   UNL     1      33.394 -15.056 -24.767  0.00  0.00    +0.147 C 
ATOM     28  C   UNL     1      33.525 -13.226 -20.970  0.00  0.00    +0.058 C 
ATOM     29  C   UNL     1      32.714 -12.612 -22.057  0.00  0.00    +0.250 C 
ATOM     30  H   UNL     1      32.193 -12.887 -24.012  0.00  0.00    +0.155 HD
BRANCH  27  31
ATOM     31  O   UNL     1      32.660 -14.520 -25.780  0.00  0.00    -0.504 OA
ATOM     32  H   UNL     1      31.786 -14.821 -25.936  0.00  0.00    +0.292 HD
ENDBRANCH  27  31
ENDBRANCH  18  21
BRANCH  18  33
ATOM     33  O   UNL     1      35.022 -16.781 -20.418  0.00  0.00    -0.382 OA
ATOM     34  H   UNL     1      35.645 -16.652 -19.686  0.00  0.00    +0.211 HD
ENDBRANCH  18  33
ENDBRANCH   1  18
TORSDOF 8
ENDMDL
MODEL 2
REMARK VINA RESULT:     -11.4      1.294      3.427
REMARK  Name = 6918554
REMARK  8 active torsions:
REMARK  status: ('A' for Active; 'I' for Inactive)
REMARK    1  A    between atoms: C_1  and  N_2
REMARK    2  A    between atoms: C_1  and  C_18
REMARK    3  A    between atoms: N_2  and  C_5
REMARK    4  A    between atoms: C_12  and  C_14
REMARK    5  A    between atoms: C_13  and  C_16
REMARK    6  A    between atoms: C_18  and  C_21
REMARK    7  A    between atoms: C_18  and  O_33
REMARK    8  A    between atoms: C_27  and  O_31
REMARK                            x       y       z     vdW  Elec       q    Type
REMARK                         _______ _______ _______ _____ _____    ______ ____
ROOT
ATOM      1  C   UNL     1      34.748 -19.391 -21.376  0.00  0.00    -0.047 C 
ENDROOT
BRANCH   1   2
ATOM      2  N   UNL     1      35.324 -20.610 -20.824  0.00  0.00    +0.387 N 
ATOM      3  H   UNL     1      35.029 -21.404 -21.392  0.00  0.00    -0.084 HD
ATOM      4  H   UNL     1      36.339 -20.522 -20.831  0.00  0.00    -0.084 HD
BRANCH   2   5
ATOM      5  C   UNL     1      34.886 -20.819 -19.453  0.00  0.00    -0.053 C 
ATOM      6  C   UNL     1      33.549 -21.585 -19.358  0.00  0.00    +0.005 C 
ATOM      7  C   UNL     1      35.907 -21.628 -18.626  0.00  0.00    +0.005 C 
ATOM      8  C   UNL     1      33.677 -22.210 -18.003  0.00  0.00    -0.029 C 
ATOM      9  C   UNL     1      35.014 -22.235 -17.588  0.00  0.00    -0.029 C 
ATOM     10  C   UNL     1      32.676 -22.759 -17.220  0.00  0.00    -0.009 C 
ATOM     11  C   UNL     1      35.377 -22.808 -16.382  0.00  0.00    -0.009 C 
ATOM     12  C   UNL     1      33.031 -23.329 -15.995  0.00  0.00    -0.026 C 
ATOM     13  C   UNL     1      34.372 -23.353 -15.579  0.00  0.00    -0.026 C 
BRANCH  12  14
ATOM     14  C   UNL     1      31.958 -23.919 -15.139  0.00  0.00    +0.026 C 
ATOM     15  C   UNL     1      31.224 -22.861 -14.321  0.00  0.00    +0.005 C 
ENDBRANCH  12  14
BRANCH  13  16
ATOM     16  C   UNL     1      34.751 -23.969 -14.271  0.00  0.00    +0.026 C 
ATOM     17  C   UNL     1      35.576 -25.240 -14.449  0.00  0.00    +0.005 C 
ENDBRANCH  13  16
ENDBRANCH   2   5
ENDBRANCH   1   2
BRANCH   1  18
ATOM     18  C   UNL     1      35.811 -18.292 -21.499  0.00  0.00    +0.112 C 
BRANCH  18  21
ATOM     19  O   UNL     1      33.142 -14.721 -26.113  0.00  0.00    -0.270 OA
ATOM     20  N   UNL     1      33.586 -14.545 -23.860  0.00  0.00    -0.278 N 
ATOM     21  C   UNL     1      35.184 -16.916 -21.535  0.00  0.00    +0.004 C 
ATOM     22  C   UNL     1      34.673 -16.380 -22.710  0.00  0.00    +0.015 C 
ATOM     23  C   UNL     1      35.141 -16.207 -20.342  0.00  0.00    +0.001 C 
ATOM     24  C   UNL     1      34.106 -15.100 -22.677  0.00  0.00    +0.084 C 
ATOM     25  C   UNL     1      34.575 -14.931 -20.318  0.00  0.00    +0.038 C 
ATOM     26  C   UNL     1      34.706 -17.107 -23.977  0.00  0.00    +0.006 C 
ATOM     27  C   UNL     1      34.056 -14.374 -21.486  0.00  0.00    +0.147 C 
ATOM     28  C   UNL     1      34.204 -16.559 -25.090  0.00  0.00    +0.058 C 
ATOM     29  C   UNL     1      33.598 -15.200 -25.076  0.00  0.00    +0.250 C 
ATOM     30  H   UNL     1      33.190 -13.644 -23.818  0.00  0.00    +0.155 HD
BRANCH  27  31
ATOM     31  O   UNL     1      33.509 -13.128 -21.443  0.00  0.00    -0.504 OA
ATOM     32  H   UNL     1      32.738 -12.972 -20.935  0.00  0.00    +0.292 HD
ENDBRANCH  27  31
ENDBRANCH  18  21
BRANCH  18  33
ATOM     33  O   UNL     1      36.706 -18.345 -20.389  0.00  0.00    -0.382 OA
ATOM     34  H   UNL     1      36.514 -19.132 -19.856  0.00  0.00    +0.211 HD
ENDBRANCH  18  33
ENDBRANCH   1  18
TORSDOF 8
ENDMDL
MODEL 3
REMARK VINA RESULT:     -11.4      0.227      2.043
REMARK  Name = 6918554
REMARK  8 active torsions:
REMARK  status: ('A' for Active; 'I' for Inactive)
REMARK    1  A    between atoms: C_1  and  N_2
REMARK    2  A    between atoms: C_1  and  C_18
REMARK    3  A    between atoms: N_2  and  C_5
REMARK    4  A    between atoms: C_12  and  C_14
REMARK    5  A    between atoms: C_13  and  C_16
REMARK    6  A    between atoms: C_18  and  C_21
REMARK    7  A    between atoms: C_18  and  O_33
REMARK    8  A    between atoms: C_27  and  O_31
REMARK                            x       y       z     vdW  Elec       q    Type
REMARK                         _______ _______ _______ _____ _____    ______ ____
ROOT
ATOM      1  C   UNL     1      36.082 -18.420 -22.198  0.00  0.00    -0.047 C 
ENDROOT
BRANCH   1   2
ATOM      2  N   UNL     1      34.911 -19.267 -22.011  0.00  0.00    +0.387 N 
ATOM      3  H   UNL     1      34.079 -18.754 -22.302  0.00  0.00    -0.084 HD
ATOM      4  H   UNL     1      35.026 -20.110 -22.572  0.00  0.00    -0.084 HD
BRANCH   2   5
ATOM      5  C   UNL     1      34.766 -19.655 -20.616  0.00  0.00    -0.053 C 
ATOM      6  C   UNL     1      33.611 -20.653 -20.386  0.00  0.00    +0.005 C 
ATOM      7  C   UNL     1      36.036 -20.329 -20.058  0.00  0.00    +0.005 C 
ATOM      8  C   UNL     1      34.079 -21.347 -19.145  0.00  0.00    -0.029 C 
ATOM      9  C   UNL     1      35.455 -21.163 -18.959  0.00  0.00    -0.029 C 
ATOM     10  C   UNL     1      33.338 -22.124 -18.271  0.00  0.00    -0.009 C 
ATOM     11  C   UNL     1      36.117 -21.753 -17.896  0.00  0.00    -0.009 C 
ATOM     12  C   UNL     1      33.995 -22.713 -17.189  0.00  0.00    -0.026 C 
ATOM     13  C   UNL     1      35.375 -22.529 -17.002  0.00  0.00    -0.026 C 
BRANCH  12  14
ATOM     14  C   UNL     1      33.203 -23.550 -16.236  0.00  0.00    +0.026 C 
ATOM     15  C   UNL     1      31.758 -23.076 -16.114  0.00  0.00    +0.005 C 
ENDBRANCH  12  14
BRANCH  13  16
ATOM     16  C   UNL     1      36.077 -23.165 -15.847  0.00  0.00    +0.026 C 
ATOM     17  C   UNL     1      37.485 -22.611 -15.651  0.00  0.00    +0.005 C 
ENDBRANCH  13  16
ENDBRANCH   2   5
ENDBRANCH   1   2
BRANCH   1  18
ATOM     18  C   UNL     1      35.783 -16.975 -21.782  0.00  0.00    +0.112 C 
BRANCH  18  21
ATOM     19  O   UNL     1      32.217 -11.642 -21.711  0.00  0.00    -0.270 OA
ATOM     20  N   UNL     1      32.775 -13.302 -23.206  0.00  0.00    -0.278 N 
ATOM     21  C   UNL     1      34.925 -16.269 -22.807  0.00  0.00    +0.004 C 
ATOM     22  C   UNL     1      34.247 -15.095 -22.505  0.00  0.00    +0.015 C 
ATOM     23  C   UNL     1      34.842 -16.844 -24.068  0.00  0.00    +0.001 C 
ATOM     24  C   UNL     1      33.468 -14.490 -23.499  0.00  0.00    +0.084 C 
ATOM     25  C   UNL     1      34.062 -16.235 -25.054  0.00  0.00    +0.038 C 
ATOM     26  C   UNL     1      34.320 -14.471 -21.186  0.00  0.00    +0.006 C 
ATOM     27  C   UNL     1      33.373 -15.056 -24.771  0.00  0.00    +0.147 C 
ATOM     28  C   UNL     1      33.653 -13.340 -20.930  0.00  0.00    +0.058 C 
ATOM     29  C   UNL     1      32.819 -12.681 -21.973  0.00  0.00    +0.250 C 
ATOM     30  H   UNL     1      32.233 -12.890 -23.917  0.00  0.00    +0.155 HD
BRANCH  27  31
ATOM     31  O   UNL     1      32.617 -14.478 -25.745  0.00  0.00    -0.504 OA
ATOM     32  H   UNL     1      32.649 -14.808 -26.621  0.00  0.00    +0.292 HD
ENDBRANCH  27  31
ENDBRANCH  18  21
BRANCH  18  33
ATOM     33  O   UNL     1      35.094 -16.954 -20.532  0.00  0.00    -0.382 OA
ATOM     34  H   UNL     1      34.424 -16.252 -20.544  0.00  0.00    +0.211 HD
ENDBRANCH  18  33
ENDBRANCH   1  18
TORSDOF 8
ENDMDL
MODEL 4
REMARK VINA RESULT:     -11.3      2.672      9.186
REMARK  Name = 6918554
REMARK  8 active torsions:
REMARK  status: ('A' for Active; 'I' for Inactive)
REMARK    1  A    between atoms: C_1  and  N_2
REMARK    2  A    between atoms: C_1  and  C_18
REMARK    3  A    between atoms: N_2  and  C_5
REMARK    4  A    between atoms: C_12  and  C_14
REMARK    5  A    between atoms: C_13  and  C_16
REMARK    6  A    between atoms: C_18  and  C_21
REMARK    7  A    between atoms: C_18  and  O_33
REMARK    8  A    between atoms: C_27  and  O_31
REMARK                            x       y       z     vdW  Elec       q    Type
REMARK                         _______ _______ _______ _____ _____    ______ ____
ROOT
ATOM      1  C   UNL     1      35.557 -17.472 -21.240  0.00  0.00    -0.047 C 
ENDROOT
BRANCH   1   2
ATOM      2  N   UNL     1      35.307 -16.691 -22.444  0.00  0.00    +0.387 N 
ATOM      3  H   UNL     1      36.152 -16.680 -23.016  0.00  0.00    -0.084 HD
ATOM      4  H   UNL     1      34.535 -17.119 -22.954  0.00  0.00    -0.084 HD
BRANCH   2   5
ATOM      5  C   UNL     1      34.942 -15.323 -22.111  0.00  0.00    -0.053 C 
ATOM      6  C   UNL     1      34.097 -14.642 -23.209  0.00  0.00    +0.005 C 
ATOM      7  C   UNL     1      34.115 -15.234 -20.812  0.00  0.00    +0.005 C 
ATOM      8  C   UNL     1      33.351 -13.625 -22.402  0.00  0.00    -0.029 C 
ATOM      9  C   UNL     1      33.361 -13.961 -21.043  0.00  0.00    -0.029 C 
ATOM     10  C   UNL     1      32.674 -12.505 -22.856  0.00  0.00    -0.009 C 
ATOM     11  C   UNL     1      32.694 -13.185 -20.110  0.00  0.00    -0.009 C 
ATOM     12  C   UNL     1      32.008 -11.709 -21.921  0.00  0.00    -0.026 C 
ATOM     13  C   UNL     1      32.018 -12.047 -20.557  0.00  0.00    -0.026 C 
BRANCH  12  14
ATOM     14  C   UNL     1      31.279 -10.496 -22.399  0.00  0.00    +0.026 C 
ATOM     15  C   UNL     1      32.205  -9.297 -22.574  0.00  0.00    +0.005 C 
ENDBRANCH  12  14
BRANCH  13  16
ATOM     16  C   UNL     1      31.300 -11.198 -19.560  0.00  0.00    +0.026 C 
ATOM     17  C   UNL     1      32.261 -10.405 -18.679  0.00  0.00    +0.005 C 
ENDBRANCH  13  16
ENDBRANCH   2   5
ENDBRANCH   1   2
BRANCH   1  18
ATOM     18  C   UNL     1      35.713 -18.960 -21.576  0.00  0.00    +0.112 C 
BRANCH  18  21
ATOM     19  O   UNL     1      36.853 -22.704 -16.493  0.00  0.00    -0.270 OA
ATOM     20  N   UNL     1      35.047 -22.064 -17.770  0.00  0.00    -0.278 N 
ATOM     21  C   UNL     1      34.845 -19.823 -20.689  0.00  0.00    +0.004 C 
ATOM     22  C   UNL     1      35.378 -20.546 -19.629  0.00  0.00    +0.015 C 
ATOM     23  C   UNL     1      33.487 -19.864 -20.977  0.00  0.00    +0.001 C 
ATOM     24  C   UNL     1      34.520 -21.326 -18.845  0.00  0.00    +0.084 C 
ATOM     25  C   UNL     1      32.639 -20.646 -20.191  0.00  0.00    +0.038 C 
ATOM     26  C   UNL     1      36.802 -20.517 -19.306  0.00  0.00    +0.006 C 
ATOM     27  C   UNL     1      33.153 -21.380 -19.122  0.00  0.00    +0.147 C 
ATOM     28  C   UNL     1      37.281 -21.227 -18.278  0.00  0.00    +0.058 C 
ATOM     29  C   UNL     1      36.387 -22.064 -17.432  0.00  0.00    +0.250 C 
ATOM     30  H   UNL     1      34.429 -22.607 -17.229  0.00  0.00    +0.155 HD
BRANCH  27  31
ATOM     31  O   UNL     1      32.310 -22.137 -18.368  0.00  0.00    -0.504 OA
ATOM     32  H   UNL     1      31.647 -21.725 -17.850  0.00  0.00    +0.292 HD
ENDBRANCH  27  31
ENDBRANCH  18  21
BRANCH  18  33
ATOM     33  O   UNL     1      35.342 -19.200 -22.933  0.00  0.00    -0.382 OA
ATOM     34  H   UNL     1      34.666 -18.560 -23.202  0.00  0.00    +0.211 HD
ENDBRANCH  18  33
ENDBRANCH   1  18
TORSDOF 8
ENDMDL
MODEL 5
REMARK VINA RESULT:     -11.3      1.277      2.809
REMARK  Name = 6918554
REMARK  8 active torsions:
REMARK  status: ('A' for Active; 'I' for Inactive)
REMARK    1  A    between atoms: C_1  and  N_2
REMARK    2  A    between atoms: C_1  and  C_18
REMARK    3  A    between atoms: N_2  and  C_5
REMARK    4  A    between atoms: C_12  and  C_14
REMARK    5  A    between atoms: C_13  and  C_16
REMARK    6  A    between atoms: C_18  and  C_21
REMARK    7  A    between atoms: C_18  and  O_33
REMARK    8  A    between atoms: C_27  and  O_31
REMARK                            x       y       z     vdW  Elec       q    Type
REMARK                         _______ _______ _______ _____ _____    ______ ____
ROOT
ATOM      1  C   UNL     1      35.228 -19.398 -21.054  0.00  0.00    -0.047 C 
ENDROOT
BRANCH   1   2
ATOM      2  N   UNL     1      36.304 -20.161 -20.434  0.00  0.00    +0.387 N 
ATOM      3  H   UNL     1      36.926 -20.513 -21.162  0.00  0.00    -0.084 HD
ATOM      4  H   UNL     1      36.810 -19.549 -19.795  0.00  0.00    -0.084 HD
BRANCH   2   5
ATOM      5  C   UNL     1      35.776 -21.286 -19.678  0.00  0.00    -0.053 C 
ATOM      6  C   UNL     1      36.413 -21.423 -18.279  0.00  0.00    +0.005 C 
ATOM      7  C   UNL     1      34.253 -21.180 -19.451  0.00  0.00    +0.005 C 
ATOM      8  C   UNL     1      35.320 -22.130 -17.538  0.00  0.00    -0.029 C 
ATOM      9  C   UNL     1      34.096 -21.992 -18.203  0.00  0.00    -0.029 C 
ATOM     10  C   UNL     1      35.407 -22.807 -16.333  0.00  0.00    -0.009 C 
ATOM     11  C   UNL     1      32.933 -22.529 -17.677  0.00  0.00    -0.009 C 
ATOM     12  C   UNL     1      34.241 -23.363 -15.801  0.00  0.00    -0.026 C 
ATOM     13  C   UNL     1      33.013 -23.225 -16.468  0.00  0.00    -0.026 C 
BRANCH  12  14
ATOM     14  C   UNL     1      34.324 -24.102 -14.505  0.00  0.00    +0.026 C 
ATOM     15  C   UNL     1      35.692 -24.741 -14.290  0.00  0.00    +0.005 C 
ENDBRANCH  12  14
BRANCH  13  16
ATOM     16  C   UNL     1      31.766 -23.814 -15.894  0.00  0.00    +0.026 C 
ATOM     17  C   UNL     1      30.585 -22.851 -15.967  0.00  0.00    +0.005 C 
ENDBRANCH  13  16
ENDBRANCH   2   5
ENDBRANCH   1   2
BRANCH   1  18
ATOM     18  C   UNL     1      35.789 -18.362 -22.036  0.00  0.00    +0.112 C 
BRANCH  18  21
ATOM     19  O   UNL     1      32.888 -14.063 -25.812  0.00  0.00    -0.270 OA
ATOM     20  N   UNL     1      33.480 -14.263 -23.595  0.00  0.00    -0.278 N 
ATOM     21  C   UNL     1      35.185 -16.995 -21.804  0.00  0.00    +0.004 C 
ATOM     22  C   UNL     1      34.608 -16.270 -22.838  0.00  0.00    +0.015 C 
ATOM     23  C   UNL     1      35.232 -16.493 -20.510  0.00  0.00    +0.001 C 
ATOM     24  C   UNL     1      34.066 -15.009 -22.558  0.00  0.00    +0.084 C 
ATOM     25  C   UNL     1      34.690 -15.235 -20.240  0.00  0.00    +0.038 C 
ATOM     26  C   UNL     1      34.546 -16.778 -24.206  0.00  0.00    +0.006 C 
ATOM     27  C   UNL     1      34.106 -14.489 -21.263  0.00  0.00    +0.147 C 
ATOM     28  C   UNL     1      33.982 -16.051 -25.178  0.00  0.00    +0.058 C 
ATOM     29  C   UNL     1      33.402 -14.709 -24.901  0.00  0.00    +0.250 C 
ATOM     30  H   UNL     1      33.103 -13.379 -23.380  0.00  0.00    +0.155 HD
BRANCH  27  31
ATOM     31  O   UNL     1      33.584 -13.264 -20.979  0.00  0.00    -0.504 OA
ATOM     32  H   UNL     1      33.410 -13.023 -20.091  0.00  0.00    +0.292 HD
ENDBRANCH  27  31
ENDBRANCH  18  21
BRANCH  18  33
ATOM     33  O   UNL     1      37.204 -18.256 -21.886  0.00  0.00    -0.382 OA
ATOM     34  H   UNL     1      37.640 -18.570 -22.694  0.00  0.00    +0.211 HD
ENDBRANCH  18  33
ENDBRANCH   1  18
TORSDOF 8
ENDMDL
MODEL 6
REMARK VINA RESULT:     -10.9      4.646     11.782
REMARK  Name = 6918554
REMARK  8 active torsions:
REMARK  status: ('A' for Active; 'I' for Inactive)
REMARK    1  A    between atoms: C_1  and  N_2
REMARK    2  A    between atoms: C_1  and  C_18
REMARK    3  A    between atoms: N_2  and  C_5
REMARK    4  A    between atoms: C_12  and  C_14
REMARK    5  A    between atoms: C_13  and  C_16
REMARK    6  A    between atoms: C_18  and  C_21
REMARK    7  A    between atoms: C_18  and  O_33
REMARK    8  A    between atoms: C_27  and  O_31
REMARK                            x       y       z     vdW  Elec       q    Type
REMARK                         _______ _______ _______ _____ _____    ______ ____
ROOT
ATOM      1  C   UNL     1      32.032 -11.991 -22.390  0.00  0.00    -0.047 C 
ENDROOT
BRANCH   1   2
ATOM      2  N   UNL     1      31.780 -11.280 -21.144  0.00  0.00    +0.387 N 
ATOM      3  H   UNL     1      31.122 -11.818 -20.580  0.00  0.00    -0.084 HD
ATOM      4  H   UNL     1      32.665 -11.166 -20.650  0.00  0.00    -0.084 HD
BRANCH   2   5
ATOM      5  C   UNL     1      31.218  -9.962 -21.399  0.00  0.00    -0.053 C 
ATOM      6  C   UNL     1      31.965  -8.835 -20.655  0.00  0.00    +0.005 C 
ATOM      7  C   UNL     1      31.253  -9.589 -22.896  0.00  0.00    +0.005 C 
ATOM      8  C   UNL     1      31.670  -7.666 -21.543  0.00  0.00    -0.029 C 
ATOM      9  C   UNL     1      31.267  -8.094 -22.814  0.00  0.00    -0.029 C 
ATOM     10  C   UNL     1      31.799  -6.319 -21.250  0.00  0.00    -0.009 C 
ATOM     11  C   UNL     1      30.984  -7.183 -23.817  0.00  0.00    -0.009 C 
ATOM     12  C   UNL     1      31.503  -5.392 -22.251  0.00  0.00    -0.026 C 
ATOM     13  C   UNL     1      31.099  -5.821 -23.527  0.00  0.00    -0.026 C 
BRANCH  12  14
ATOM     14  C   UNL     1      31.633  -3.935 -21.944  0.00  0.00    +0.026 C 
ATOM     15  C   UNL     1      30.323  -3.331 -21.450  0.00  0.00    +0.005 C 
ENDBRANCH  12  14
BRANCH  13  16
ATOM     16  C   UNL     1      30.790  -4.828 -24.599  0.00  0.00    +0.026 C 
ATOM     17  C   UNL     1      31.928  -4.693 -25.607  0.00  0.00    +0.005 C 
ENDBRANCH  13  16
ENDBRANCH   2   5
ENDBRANCH   1   2
BRANCH   1  18
ATOM     18  C   UNL     1      33.527 -12.294 -22.554  0.00  0.00    +0.112 C 
BRANCH  18  21
ATOM     19  O   UNL     1      35.685 -17.989 -20.538  0.00  0.00    -0.270 OA
ATOM     20  N   UNL     1      34.929 -17.047 -22.499  0.00  0.00    -0.278 N 
ATOM     21  C   UNL     1      33.752 -13.631 -23.223  0.00  0.00    +0.004 C 
ATOM     22  C   UNL     1      34.244 -14.723 -22.520  0.00  0.00    +0.015 C 
ATOM     23  C   UNL     1      33.445 -13.723 -24.574  0.00  0.00    +0.001 C 
ATOM     24  C   UNL     1      34.430 -15.933 -23.198  0.00  0.00    +0.084 C 
ATOM     25  C   UNL     1      33.635 -14.934 -25.243  0.00  0.00    +0.038 C 
ATOM     26  C   UNL     1      34.572 -14.651 -21.099  0.00  0.00    +0.006 C 
ATOM     27  C   UNL     1      34.129 -16.043 -24.557  0.00  0.00    +0.147 C 
ATOM     28  C   UNL     1      35.045 -15.723 -20.453  0.00  0.00    +0.058 C 
ATOM     29  C   UNL     1      35.251 -17.019 -21.156  0.00  0.00    +0.250 C 
ATOM     30  H   UNL     1      35.054 -17.891 -22.992  0.00  0.00    +0.155 HD
BRANCH  27  31
ATOM     31  O   UNL     1      34.308 -17.214 -25.227  0.00  0.00    -0.504 OA
ATOM     32  H   UNL     1      35.096 -17.361 -25.711  0.00  0.00    +0.292 HD
ENDBRANCH  27  31
ENDBRANCH  18  21
BRANCH  18  33
ATOM     33  O   UNL     1      34.150 -11.286 -23.349  0.00  0.00    -0.382 OA
ATOM     34  H   UNL     1      33.470 -10.769 -23.807  0.00  0.00    +0.211 HD
ENDBRANCH  18  33
ENDBRANCH   1  18
TORSDOF 8
ENDMDL
MODEL 7
REMARK VINA RESULT:     -10.9      6.385     11.354
REMARK  Name = 6918554
REMARK  8 active torsions:
REMARK  status: ('A' for Active; 'I' for Inactive)
REMARK    1  A    between atoms: C_1  and  N_2
REMARK    2  A    between atoms: C_1  and  C_18
REMARK    3  A    between atoms: N_2  and  C_5
REMARK    4  A    between atoms: C_12  and  C_14
REMARK    5  A    between atoms: C_13  and  C_16
REMARK    6  A    between atoms: C_18  and  C_21
REMARK    7  A    between atoms: C_18  and  O_33
REMARK    8  A    between atoms: C_27  and  O_31
REMARK                            x       y       z     vdW  Elec       q    Type
REMARK                         _______ _______ _______ _____ _____    ______ ____
ROOT
ATOM      1  C   UNL     1      33.345 -23.430 -14.097  0.00  0.00    -0.047 C 
ENDROOT
BRANCH   1   2
ATOM      2  N   UNL     1      32.405 -23.812 -15.142  0.00  0.00    +0.387 N 
ATOM      3  H   UNL     1      32.189 -24.804 -15.050  0.00  0.00    -0.084 HD
ATOM      4  H   UNL     1      31.560 -23.251 -15.040  0.00  0.00    -0.084 HD
BRANCH   2   5
ATOM      5  C   UNL     1      32.966 -23.568 -16.462  0.00  0.00    -0.053 C 
ATOM      6  C   UNL     1      32.222 -22.461 -17.238  0.00  0.00    +0.005 C 
ATOM      7  C   UNL     1      34.445 -23.135 -16.402  0.00  0.00    +0.005 C 
ATOM      8  C   UNL     1      33.305 -21.979 -18.152  0.00  0.00    -0.029 C 
ATOM      9  C   UNL     1      34.566 -22.361 -17.678  0.00  0.00    -0.029 C 
ATOM     10  C   UNL     1      33.175 -21.215 -19.300  0.00  0.00    -0.009 C 
ATOM     11  C   UNL     1      35.722 -21.987 -18.342  0.00  0.00    -0.009 C 
ATOM     12  C   UNL     1      34.335 -20.844 -19.983  0.00  0.00    -0.026 C 
ATOM     13  C   UNL     1      35.600 -21.227 -19.507  0.00  0.00    -0.026 C 
BRANCH  12  14
ATOM     14  C   UNL     1      34.206 -20.024 -21.227  0.00  0.00    +0.026 C 
ATOM     15  C   UNL     1      34.397 -18.535 -20.959  0.00  0.00    +0.005 C 
ENDBRANCH  12  14
BRANCH  13  16
ATOM     16  C   UNL     1      36.840 -20.823 -20.236  0.00  0.00    +0.026 C 
ATOM     17  C   UNL     1      37.317 -19.430 -19.836  0.00  0.00    +0.005 C 
ENDBRANCH  13  16
ENDBRANCH   2   5
ENDBRANCH   1   2
BRANCH   1  18
ATOM     18  C   UNL     1      33.930 -24.669 -13.409  0.00  0.00    +0.112 C 
BRANCH  18  21
ATOM     19  O   UNL     1      39.885 -26.770 -14.543  0.00  0.00    -0.270 OA
ATOM     20  N   UNL     1      38.836 -25.308 -13.106  0.00  0.00    -0.278 N 
ATOM     21  C   UNL     1      35.282 -24.379 -12.799  0.00  0.00    +0.004 C 
ATOM     22  C   UNL     1      36.437 -24.999 -13.259  0.00  0.00    +0.015 C 
ATOM     23  C   UNL     1      35.324 -23.463 -11.755  0.00  0.00    +0.001 C 
ATOM     24  C   UNL     1      37.659 -24.687 -12.651  0.00  0.00    +0.084 C 
ATOM     25  C   UNL     1      36.546 -23.158 -11.154  0.00  0.00    +0.038 C 
ATOM     26  C   UNL     1      36.419 -25.964 -14.355  0.00  0.00    +0.006 C 
ATOM     27  C   UNL     1      37.718 -23.770 -11.600  0.00  0.00    +0.147 C 
ATOM     28  C   UNL     1      37.551 -26.542 -14.772  0.00  0.00    +0.058 C 
ATOM     29  C   UNL     1      38.860 -26.225 -14.139  0.00  0.00    +0.250 C 
ATOM     30  H   UNL     1      39.686 -25.076 -12.667  0.00  0.00    +0.155 HD
BRANCH  27  31
ATOM     31  O   UNL     1      38.900 -23.460 -11.000  0.00  0.00    -0.504 OA
ATOM     32  H   UNL     1      38.994 -22.648 -10.542  0.00  0.00    +0.292 HD
ENDBRANCH  27  31
ENDBRANCH  18  21
BRANCH  18  33
ATOM     33  O   UNL     1      33.058 -25.114 -12.370  0.00  0.00    -0.382 OA
ATOM     34  H   UNL     1      33.482 -24.974 -11.509  0.00  0.00    +0.211 HD
ENDBRANCH  18  33
ENDBRANCH   1  18
TORSDOF 8
ENDMDL
MODEL 8
REMARK VINA RESULT:     -10.8      6.175     11.270
REMARK  Name = 6918554
REMARK  8 active torsions:
REMARK  status: ('A' for Active; 'I' for Inactive)
REMARK    1  A    between atoms: C_1  and  N_2
REMARK    2  A    between atoms: C_1  and  C_18
REMARK    3  A    between atoms: N_2  and  C_5
REMARK    4  A    between atoms: C_12  and  C_14
REMARK    5  A    between atoms: C_13  and  C_16
REMARK    6  A    between atoms: C_18  and  C_21
REMARK    7  A    between atoms: C_18  and  O_33
REMARK    8  A    between atoms: C_27  and  O_31
REMARK                            x       y       z     vdW  Elec       q    Type
REMARK                         _______ _______ _______ _____ _____    ______ ____
ROOT
ATOM      1  C   UNL     1      33.703 -23.697 -14.714  0.00  0.00    -0.047 C 
ENDROOT
BRANCH   1   2
ATOM      2  N   UNL     1      34.290 -23.917 -16.030  0.00  0.00    +0.387 N 
ATOM      3  H   UNL     1      35.222 -24.315 -15.917  0.00  0.00    -0.084 HD
ATOM      4  H   UNL     1      33.689 -24.554 -16.552  0.00  0.00    -0.084 HD
BRANCH   2   5
ATOM      5  C   UNL     1      34.394 -22.668 -16.769  0.00  0.00    -0.053 C 
ATOM      6  C   UNL     1      35.824 -22.385 -17.276  0.00  0.00    +0.005 C 
ATOM      7  C   UNL     1      33.482 -22.643 -18.014  0.00  0.00    +0.005 C 
ATOM      8  C   UNL     1      35.538 -21.515 -18.460  0.00  0.00    -0.029 C 
ATOM      9  C   UNL     1      34.210 -21.662 -18.879  0.00  0.00    -0.029 C 
ATOM     10  C   UNL     1      36.415 -20.688 -19.142  0.00  0.00    -0.009 C 
ATOM     11  C   UNL     1      33.732 -20.984 -19.987  0.00  0.00    -0.009 C 
ATOM     12  C   UNL     1      35.938 -19.991 -20.254  0.00  0.00    -0.026 C 
ATOM     13  C   UNL     1      34.605 -20.138 -20.674  0.00  0.00    -0.026 C 
BRANCH  12  14
ATOM     14  C   UNL     1      36.874 -19.091 -20.994  0.00  0.00    +0.026 C 
ATOM     15  C   UNL     1      36.315 -17.680 -21.152  0.00  0.00    +0.005 C 
ENDBRANCH  12  14
BRANCH  13  16
ATOM     16  C   UNL     1      34.099 -19.396 -21.868  0.00  0.00    +0.026 C 
ATOM     17  C   UNL     1      34.742 -19.880 -23.164  0.00  0.00    +0.005 C 
ENDBRANCH  13  16
ENDBRANCH   2   5
ENDBRANCH   1   2
BRANCH   1  18
ATOM     18  C   UNL     1      34.130 -24.798 -13.736  0.00  0.00    +0.112 C 
BRANCH  18  21
ATOM     19  O   UNL     1      40.214 -26.747 -14.322  0.00  0.00    -0.270 OA
ATOM     20  N   UNL     1      39.012 -25.271 -13.026  0.00  0.00    -0.278 N 
ATOM     21  C   UNL     1      35.421 -24.445 -13.032  0.00  0.00    +0.004 C 
ATOM     22  C   UNL     1      36.626 -25.043 -13.377  0.00  0.00    +0.015 C 
ATOM     23  C   UNL     1      35.353 -23.493 -12.023  0.00  0.00    +0.001 C 
ATOM     24  C   UNL     1      37.786 -24.672 -12.687  0.00  0.00    +0.084 C 
ATOM     25  C   UNL     1      36.515 -23.130 -11.339  0.00  0.00    +0.038 C 
ATOM     26  C   UNL     1      36.722 -26.045 -14.436  0.00  0.00    +0.006 C 
ATOM     27  C   UNL     1      37.735 -23.719 -11.669  0.00  0.00    +0.147 C 
ATOM     28  C   UNL     1      37.900 -26.601 -14.742  0.00  0.00    +0.058 C 
ATOM     29  C   UNL     1      39.145 -26.222 -14.020  0.00  0.00    +0.250 C 
ATOM     30  H   UNL     1      39.818 -24.998 -12.530  0.00  0.00    +0.155 HD
BRANCH  27  31
ATOM     31  O   UNL     1      38.856 -23.352 -10.990  0.00  0.00    -0.504 OA
ATOM     32  H   UNL     1      38.789 -23.031 -10.112  0.00  0.00    +0.292 HD
ENDBRANCH  27  31
ENDBRANCH  18  21
BRANCH  18  33
ATOM     33  O   UNL     1      33.122 -24.995 -12.746  0.00  0.00    -0.382 OA
ATOM     34  H   UNL     1      32.256 -24.760 -13.114  0.00  0.00    +0.211 HD
ENDBRANCH  18  33
ENDBRANCH   1  18
TORSDOF 8
ENDMDL
MODEL 9
REMARK VINA RESULT:     -10.7      5.580     12.925
REMARK  Name = 6918554
REMARK  8 active torsions:
REMARK  status: ('A' for Active; 'I' for Inactive)
REMARK    1  A    between atoms: C_1  and  N_2
REMARK    2  A    between atoms: C_1  and  C_18
REMARK    3  A    between atoms: N_2  and  C_5
REMARK    4  A    between atoms: C_12  and  C_14
REMARK    5  A    between atoms: C_13  and  C_16
REMARK    6  A    between atoms: C_18  and  C_21
REMARK    7  A    between atoms: C_18  and  O_33
REMARK    8  A    between atoms: C_27  and  O_31
REMARK                            x       y       z     vdW  Elec       q    Type
REMARK                         _______ _______ _______ _____ _____    ______ ____
ROOT
ATOM      1  C   UNL     1      32.314 -10.512 -22.473  0.00  0.00    -0.047 C 
ENDROOT
BRANCH   1   2
ATOM      2  N   UNL     1      32.213  -9.639 -21.310  0.00  0.00    +0.387 N 
ATOM      3  H   UNL     1      31.673 -10.110 -20.585  0.00  0.00    -0.084 HD
ATOM      4  H   UNL     1      33.154  -9.431 -20.978  0.00  0.00    -0.084 HD
BRANCH   2   5
ATOM      5  C   UNL     1      31.555  -8.387 -21.654  0.00  0.00    -0.053 C 
ATOM      6  C   UNL     1      32.164  -7.168 -20.929  0.00  0.00    +0.005 C 
ATOM      7  C   UNL     1      31.634  -8.076 -23.163  0.00  0.00    +0.005 C 
ATOM      8  C   UNL     1      31.817  -6.069 -21.884  0.00  0.00    -0.029 C 
ATOM      9  C   UNL     1      31.517  -6.584 -23.151  0.00  0.00    -0.029 C 
ATOM     10  C   UNL     1      31.816  -4.704 -21.649  0.00  0.00    -0.009 C 
ATOM     11  C   UNL     1      31.209  -5.745 -24.208  0.00  0.00    -0.009 C 
ATOM     12  C   UNL     1      31.494  -3.850 -22.706  0.00  0.00    -0.026 C 
ATOM     13  C   UNL     1      31.193  -4.367 -23.977  0.00  0.00    -0.026 C 
BRANCH  12  14
ATOM     14  C   UNL     1      31.484  -2.376 -22.462  0.00  0.00    +0.026 C 
ATOM     15  C   UNL     1      30.206  -1.914 -21.769  0.00  0.00    +0.005 C 
ENDBRANCH  12  14
BRANCH  13  16
ATOM     16  C   UNL     1      30.856  -3.452 -25.109  0.00  0.00    +0.026 C 
ATOM     17  C   UNL     1      31.755  -3.677 -26.321  0.00  0.00    +0.005 C 
ENDBRANCH  13  16
ENDBRANCH   2   5
ENDBRANCH   1   2
BRANCH   1  18
ATOM     18  C   UNL     1      31.550 -11.821 -22.240  0.00  0.00    +0.112 C 
BRANCH  18  21
ATOM     19  O   UNL     1      34.927 -16.444 -25.135  0.00  0.00    -0.270 OA
ATOM     20  N   UNL     1      34.545 -15.699 -22.990  0.00  0.00    -0.278 N 
ATOM     21  C   UNL     1      32.468 -12.919 -21.750  0.00  0.00    +0.004 C 
ATOM     22  C   UNL     1      33.081 -13.802 -22.629  0.00  0.00    +0.015 C 
ATOM     23  C   UNL     1      32.674 -13.008 -20.379  0.00  0.00    +0.001 C 
ATOM     24  C   UNL     1      33.919 -14.797 -22.111  0.00  0.00    +0.084 C 
ATOM     25  C   UNL     1      33.510 -14.004 -19.872  0.00  0.00    +0.038 C 
ATOM     26  C   UNL     1      32.881 -13.727 -24.074  0.00  0.00    +0.006 C 
ATOM     27  C   UNL     1      34.136 -14.901 -20.737  0.00  0.00    +0.147 C 
ATOM     28  C   UNL     1      33.487 -14.595 -24.892  0.00  0.00    +0.058 C 
ATOM     29  C   UNL     1      34.381 -15.660 -24.362  0.00  0.00    +0.250 C 
ATOM     30  H   UNL     1      35.132 -16.391 -22.609  0.00  0.00    +0.155 HD
BRANCH  27  31
ATOM     31  O   UNL     1      34.947 -15.866 -20.222  0.00  0.00    -0.504 OA
ATOM     32  H   UNL     1      35.867 -15.845 -20.395  0.00  0.00    +0.292 HD
ENDBRANCH  27  31
ENDBRANCH  18  21
BRANCH  18  33
ATOM     33  O   UNL     1      30.526 -11.628 -21.266  0.00  0.00    -0.382 OA
ATOM     34  H   UNL     1      29.699 -11.383 -21.710  0.00  0.00    +0.211 HD
ENDBRANCH  18  33
ENDBRANCH   1  18
TORSDOF 8
ENDMDL
