MODEL 1
REMARK VINA RESULT:     -11.9      0.000      0.000
REMARK  Name = 54676038
REMARK  4 active torsions:
REMARK  status: ('A' for Active; 'I' for Inactive)
REMARK    1  A    between atoms: C_1  and  C_4
REMARK    2  A    between atoms: C_1  and  C_17
REMARK    3  A    between atoms: C_5  and  O_13
REMARK    4  A    between atoms: C_18  and  O_26
REMARK                            x       y       z     vdW  Elec       q    Type
REMARK                         _______ _______ _______ _____ _____    ______ ____
ROOT
ATOM      1  C   UNL     1      35.995 -17.973 -22.790  0.00  0.00    +0.072 C 
ENDROOT
BRANCH   1   4
ATOM      2  O   UNL     1      36.963 -20.019 -19.779  0.00  0.00    -0.421 OA
ATOM      3  O   UNL     1      38.102 -18.558 -21.099  0.00  0.00    -0.245 OA
ATOM      4  C   UNL     1      35.817 -18.922 -21.662  0.00  0.00    +0.092 A 
ATOM      5  C   UNL     1      34.677 -19.567 -21.352  0.00  0.00    +0.139 A 
ATOM      6  C   UNL     1      34.620 -20.492 -20.218  0.00  0.00    +0.068 A 
ATOM      7  C   UNL     1      35.770 -20.692 -19.462  0.00  0.00    +0.152 A 
ATOM      8  C   UNL     1      37.049 -19.135 -20.847  0.00  0.00    +0.345 A 
ATOM      9  C   UNL     1      33.464 -21.194 -19.849  0.00  0.00    +0.006 C 
ATOM     10  C   UNL     1      35.801 -21.557 -18.367  0.00  0.00    +0.038 C 
ATOM     11  C   UNL     1      33.478 -22.064 -18.754  0.00  0.00    +0.000 C 
ATOM     12  C   UNL     1      34.646 -22.245 -18.014  0.00  0.00    +0.003 C 
BRANCH   5  13
ATOM     13  O   UNL     1      33.489 -19.430 -22.038  0.00  0.00    -0.506 OA
ATOM     14  H   UNL     1      32.718 -19.145 -21.589  0.00  0.00    +0.292 HD
ENDBRANCH   5  13
ENDBRANCH   1   4
BRANCH   1  17
ATOM     15  O   UNL     1      33.795 -15.080 -23.848  0.00  0.00    -0.421 OA
ATOM     16  O   UNL     1      34.812 -16.764 -24.990  0.00  0.00    -0.245 OA
ATOM     17  C   UNL     1      35.140 -16.745 -22.633  0.00  0.00    +0.092 A 
ATOM     18  C   UNL     1      34.865 -16.126 -21.469  0.00  0.00    +0.139 A 
ATOM     19  C   UNL     1      34.026 -14.925 -21.435  0.00  0.00    +0.068 A 
ATOM     20  C   UNL     1      33.515 -14.436 -22.632  0.00  0.00    +0.152 A 
ATOM     21  C   UNL     1      34.585 -16.219 -23.914  0.00  0.00    +0.345 A 
ATOM     22  C   UNL     1      33.707 -14.237 -20.257  0.00  0.00    +0.006 C 
ATOM     23  C   UNL     1      32.708 -13.299 -22.688  0.00  0.00    +0.038 C 
ATOM     24  C   UNL     1      32.901 -13.093 -20.294  0.00  0.00    +0.000 C 
ATOM     25  C   UNL     1      32.402 -12.625 -21.510  0.00  0.00    +0.003 C 
BRANCH  18  26
ATOM     26  O   UNL     1      35.323 -16.538 -20.236  0.00  0.00    -0.506 OA
ATOM     27  H   UNL     1      35.033 -16.103 -19.459  0.00  0.00    +0.292 HD
ENDBRANCH  18  26
ENDBRANCH   1  17
TORSDOF 4
ENDMDL
MODEL 2
REMARK VINA RESULT:     -11.8      0.018      6.707
REMARK  Name = 54676038
REMARK  4 active torsions:
REMARK  status: ('A' for Active; 'I' for Inactive)
REMARK    1  A    between atoms: C_1  and  C_4
REMARK    2  A    between atoms: C_1  and  C_17
REMARK    3  A    between atoms: C_5  and  O_13
REMARK    4  A    between atoms: C_18  and  O_26
REMARK                            x       y       z     vdW  Elec       q    Type
REMARK                         _______ _______ _______ _____ _____    ______ ____
ROOT
ATOM      1  C   UNL     1      35.990 -17.968 -22.789  0.00  0.00    +0.072 C 
ENDROOT
BRANCH   1   4
ATOM      2  O   UNL     1      33.798 -15.095 -23.852  0.00  0.00    -0.421 OA
ATOM      3  O   UNL     1      34.814 -16.782 -24.992  0.00  0.00    -0.245 OA
ATOM      4  C   UNL     1      35.147 -16.756 -22.634  0.00  0.00    +0.092 A 
ATOM      5  C   UNL     1      34.874 -16.134 -21.472  0.00  0.00    +0.139 A 
ATOM      6  C   UNL     1      34.034 -14.934 -21.439  0.00  0.00    +0.068 A 
ATOM      7  C   UNL     1      33.519 -14.448 -22.637  0.00  0.00    +0.152 A 
ATOM      8  C   UNL     1      34.589 -16.235 -23.917  0.00  0.00    +0.345 A 
ATOM      9  C   UNL     1      33.718 -14.242 -20.262  0.00  0.00    +0.006 C 
ATOM     10  C   UNL     1      32.712 -13.311 -22.693  0.00  0.00    +0.038 C 
ATOM     11  C   UNL     1      32.911 -13.101 -20.301  0.00  0.00    +0.000 C 
ATOM     12  C   UNL     1      32.408 -12.636 -21.516  0.00  0.00    +0.003 C 
BRANCH   5  13
ATOM     13  O   UNL     1      35.335 -16.543 -20.239  0.00  0.00    -0.506 OA
ATOM     14  H   UNL     1      36.228 -16.805 -20.136  0.00  0.00    +0.292 HD
ENDBRANCH   5  13
ENDBRANCH   1   4
BRANCH   1  17
ATOM     15  O   UNL     1      36.953 -20.033 -19.766  0.00  0.00    -0.421 OA
ATOM     16  O   UNL     1      38.096 -18.574 -21.086  0.00  0.00    -0.245 OA
ATOM     17  C   UNL     1      35.810 -18.929 -21.646  0.00  0.00    +0.092 A 
ATOM     18  C   UNL     1      34.667 -19.571 -21.336  0.00  0.00    +0.139 A 
ATOM     19  C   UNL     1      34.608 -20.498 -20.202  0.00  0.00    +0.068 A 
ATOM     20  C   UNL     1      35.759 -20.702 -19.449  0.00  0.00    +0.152 A 
ATOM     21  C   UNL     1      37.041 -19.148 -20.832  0.00  0.00    +0.345 A 
ATOM     22  C   UNL     1      33.451 -21.196 -19.832  0.00  0.00    +0.006 C 
ATOM     23  C   UNL     1      35.789 -21.567 -18.355  0.00  0.00    +0.038 C 
ATOM     24  C   UNL     1      33.463 -22.069 -18.738  0.00  0.00    +0.000 C 
ATOM     25  C   UNL     1      34.632 -22.254 -18.001  0.00  0.00    +0.003 C 
BRANCH  18  26
ATOM     26  O   UNL     1      33.479 -19.430 -22.020  0.00  0.00    -0.506 OA
ATOM     27  H   UNL     1      32.918 -20.170 -22.143  0.00  0.00    +0.292 HD
ENDBRANCH  18  26
ENDBRANCH   1  17
TORSDOF 4
ENDMDL
MODEL 3
REMARK VINA RESULT:     -11.3      0.588      1.961
REMARK  Name = 54676038
REMARK  4 active torsions:
REMARK  status: ('A' for Active; 'I' for Inactive)
REMARK    1  A    between atoms: C_1  and  C_4
REMARK    2  A    between atoms: C_1  and  C_17
REMARK    3  A    between atoms: C_5  and  O_13
REMARK    4  A    between atoms: C_18  and  O_26
REMARK                            x       y       z     vdW  Elec       q    Type
REMARK                         _______ _______ _______ _____ _____    ______ ____
ROOT
ATOM      1  C   UNL     1      35.992 -17.774 -22.760  0.00  0.00    +0.072 C 
ENDROOT
BRANCH   1   4
ATOM      2  O   UNL     1      33.860 -20.407 -21.113  0.00  0.00    -0.421 OA
ATOM      3  O   UNL     1      33.549 -19.059 -22.919  0.00  0.00    -0.245 OA
ATOM      4  C   UNL     1      35.628 -18.829 -21.780  0.00  0.00    +0.092 A 
ATOM      5  C   UNL     1      36.401 -19.255 -20.764  0.00  0.00    +0.139 A 
ATOM      6  C   UNL     1      35.933 -20.298 -19.848  0.00  0.00    +0.068 A 
ATOM      7  C   UNL     1      34.670 -20.845 -20.051  0.00  0.00    +0.152 A 
ATOM      8  C   UNL     1      34.275 -19.421 -21.998  0.00  0.00    +0.345 A 
ATOM      9  C   UNL     1      36.690 -20.780 -18.772  0.00  0.00    +0.006 C 
ATOM     10  C   UNL     1      34.149 -21.842 -19.225  0.00  0.00    +0.038 C 
ATOM     11  C   UNL     1      36.182 -21.779 -17.934  0.00  0.00    +0.000 C 
ATOM     12  C   UNL     1      34.913 -22.309 -18.161  0.00  0.00    +0.003 C 
BRANCH   5  13
ATOM     13  O   UNL     1      37.664 -18.776 -20.487  0.00  0.00    -0.506 OA
ATOM     14  H   UNL     1      38.328 -18.800 -21.147  0.00  0.00    +0.292 HD
ENDBRANCH   5  13
ENDBRANCH   1   4
BRANCH   1  17
ATOM     15  O   UNL     1      33.787 -14.915 -23.896  0.00  0.00    -0.421 OA
ATOM     16  O   UNL     1      34.872 -16.581 -25.002  0.00  0.00    -0.245 OA
ATOM     17  C   UNL     1      35.112 -16.560 -22.634  0.00  0.00    +0.092 A 
ATOM     18  C   UNL     1      34.785 -15.947 -21.480  0.00  0.00    +0.139 A 
ATOM     19  C   UNL     1      33.926 -14.759 -21.476  0.00  0.00    +0.068 A 
ATOM     20  C   UNL     1      33.452 -14.277 -22.690  0.00  0.00    +0.152 A 
ATOM     21  C   UNL     1      34.597 -16.041 -23.934  0.00  0.00    +0.345 A 
ATOM     22  C   UNL     1      33.553 -14.078 -20.310  0.00  0.00    +0.006 C 
ATOM     23  C   UNL     1      32.630 -13.153 -22.775  0.00  0.00    +0.038 C 
ATOM     24  C   UNL     1      32.731 -12.948 -20.376  0.00  0.00    +0.000 C 
ATOM     25  C   UNL     1      32.270 -12.486 -21.609  0.00  0.00    +0.003 C 
BRANCH  18  26
ATOM     26  O   UNL     1      35.203 -16.354 -20.232  0.00  0.00    -0.506 OA
ATOM     27  H   UNL     1      34.619 -16.826 -19.672  0.00  0.00    +0.292 HD
ENDBRANCH  18  26
ENDBRANCH   1  17
TORSDOF 4
ENDMDL
MODEL 4
REMARK VINA RESULT:     -11.2      0.600      6.637
REMARK  Name = 54676038
REMARK  4 active torsions:
REMARK  status: ('A' for Active; 'I' for Inactive)
REMARK    1  A    between atoms: C_1  and  C_4
REMARK    2  A    between atoms: C_1  and  C_17
REMARK    3  A    between atoms: C_5  and  O_13
REMARK    4  A    between atoms: C_18  and  O_26
REMARK                            x       y       z     vdW  Elec       q    Type
REMARK                         _______ _______ _______ _____ _____    ______ ____
ROOT
ATOM      1  C   UNL     1      36.017 -17.799 -22.748  0.00  0.00    +0.072 C 
ENDROOT
BRANCH   1   4
ATOM      2  O   UNL     1      33.831 -14.932 -23.838  0.00  0.00    -0.421 OA
ATOM      3  O   UNL     1      34.910 -16.584 -24.970  0.00  0.00    -0.245 OA
ATOM      4  C   UNL     1      35.153 -16.601 -22.601  0.00  0.00    +0.092 A 
ATOM      5  C   UNL     1      34.829 -16.005 -21.438  0.00  0.00    +0.139 A 
ATOM      6  C   UNL     1      33.974 -14.816 -21.414  0.00  0.00    +0.068 A 
ATOM      7  C   UNL     1      33.498 -14.312 -22.621  0.00  0.00    +0.152 A 
ATOM      8  C   UNL     1      34.638 -16.060 -23.894  0.00  0.00    +0.345 A 
ATOM      9  C   UNL     1      33.605 -14.151 -20.237  0.00  0.00    +0.006 C 
ATOM     10  C   UNL     1      32.680 -13.183 -22.686  0.00  0.00    +0.038 C 
ATOM     11  C   UNL     1      32.785 -13.019 -20.284  0.00  0.00    +0.000 C 
ATOM     12  C   UNL     1      32.324 -12.535 -21.508  0.00  0.00    +0.003 C 
BRANCH   5  13
ATOM     13  O   UNL     1      35.248 -16.433 -20.197  0.00  0.00    -0.506 OA
ATOM     14  H   UNL     1      36.148 -16.647 -20.055  0.00  0.00    +0.292 HD
ENDBRANCH   5  13
ENDBRANCH   1   4
BRANCH   1  17
ATOM     15  O   UNL     1      33.957 -20.494 -21.067  0.00  0.00    -0.421 OA
ATOM     16  O   UNL     1      33.616 -19.184 -22.896  0.00  0.00    -0.245 OA
ATOM     17  C   UNL     1      35.674 -18.866 -21.743  0.00  0.00    +0.092 A 
ATOM     18  C   UNL     1      36.452 -19.250 -20.713  0.00  0.00    +0.139 A 
ATOM     19  C   UNL     1      36.011 -20.296 -19.786  0.00  0.00    +0.068 A 
ATOM     20  C   UNL     1      34.770 -20.888 -19.992  0.00  0.00    +0.152 A 
ATOM     21  C   UNL     1      34.345 -19.507 -21.963  0.00  0.00    +0.345 A 
ATOM     22  C   UNL     1      36.774 -20.736 -18.696  0.00  0.00    +0.006 C 
ATOM     23  C   UNL     1      34.275 -21.891 -19.157  0.00  0.00    +0.038 C 
ATOM     24  C   UNL     1      36.293 -21.739 -17.847  0.00  0.00    +0.000 C 
ATOM     25  C   UNL     1      35.044 -22.315 -18.078  0.00  0.00    +0.003 C 
BRANCH  18  26
ATOM     26  O   UNL     1      37.695 -18.724 -20.432  0.00  0.00    -0.506 OA
ATOM     27  H   UNL     1      37.831 -17.798 -20.471  0.00  0.00    +0.292 HD
ENDBRANCH  18  26
ENDBRANCH   1  17
TORSDOF 4
ENDMDL
MODEL 5
REMARK VINA RESULT:     -10.0      0.934      2.844
REMARK  Name = 54676038
REMARK  4 active torsions:
REMARK  status: ('A' for Active; 'I' for Inactive)
REMARK    1  A    between atoms: C_1  and  C_4
REMARK    2  A    between atoms: C_1  and  C_17
REMARK    3  A    between atoms: C_5  and  O_13
REMARK    4  A    between atoms: C_18  and  O_26
REMARK                            x       y       z     vdW  Elec       q    Type
REMARK                         _______ _______ _______ _____ _____    ______ ____
ROOT
ATOM      1  C   UNL     1      36.073 -18.189 -22.660  0.00  0.00    +0.072 C 
ENDROOT
BRANCH   1   4
ATOM      2  O   UNL     1      33.712 -20.543 -20.907  0.00  0.00    -0.421 OA
ATOM      3  O   UNL     1      33.527 -19.259 -22.776  0.00  0.00    -0.245 OA
ATOM      4  C   UNL     1      35.614 -19.159 -21.635  0.00  0.00    +0.092 A 
ATOM      5  C   UNL     1      36.343 -19.603 -20.593  0.00  0.00    +0.139 A 
ATOM      6  C   UNL     1      35.782 -20.556 -19.633  0.00  0.00    +0.068 A 
ATOM      7  C   UNL     1      34.477 -21.000 -19.820  0.00  0.00    +0.152 A 
ATOM      8  C   UNL     1      34.216 -19.640 -21.834  0.00  0.00    +0.345 A 
ATOM      9  C   UNL     1      36.490 -21.051 -18.530  0.00  0.00    +0.006 C 
ATOM     10  C   UNL     1      33.867 -21.906 -18.952  0.00  0.00    +0.038 C 
ATOM     11  C   UNL     1      35.894 -21.961 -17.650  0.00  0.00    +0.000 C 
ATOM     12  C   UNL     1      34.583 -22.387 -17.861  0.00  0.00    +0.003 C 
BRANCH   5  13
ATOM     13  O   UNL     1      37.643 -19.224 -20.330  0.00  0.00    -0.506 OA
ATOM     14  H   UNL     1      37.962 -19.226 -19.449  0.00  0.00    +0.292 HD
ENDBRANCH   5  13
ENDBRANCH   1   4
BRANCH   1  17
ATOM     15  O   UNL     1      34.525 -15.140 -21.036  0.00  0.00    -0.421 OA
ATOM     16  O   UNL     1      35.701 -16.911 -20.225  0.00  0.00    -0.245 OA
ATOM     17  C   UNL     1      35.327 -16.885 -22.575  0.00  0.00    +0.092 A 
ATOM     18  C   UNL     1      34.783 -16.225 -23.616  0.00  0.00    +0.139 A 
ATOM     19  C   UNL     1      34.065 -14.963 -23.415  0.00  0.00    +0.068 A 
ATOM     20  C   UNL     1      33.957 -14.458 -22.124  0.00  0.00    +0.152 A 
ATOM     21  C   UNL     1      35.211 -16.336 -21.193  0.00  0.00    +0.345 A 
ATOM     22  C   UNL     1      33.478 -14.233 -24.456  0.00  0.00    +0.006 C 
ATOM     23  C   UNL     1      33.290 -13.264 -21.846  0.00  0.00    +0.038 C 
ATOM     24  C   UNL     1      32.804 -13.034 -24.195  0.00  0.00    +0.000 C 
ATOM     25  C   UNL     1      32.710 -12.551 -22.890  0.00  0.00    +0.003 C 
BRANCH  18  26
ATOM     26  O   UNL     1      34.843 -16.646 -24.927  0.00  0.00    -0.506 OA
ATOM     27  H   UNL     1      34.518 -16.094 -25.611  0.00  0.00    +0.292 HD
ENDBRANCH  18  26
ENDBRANCH   1  17
TORSDOF 4
ENDMDL
MODEL 6
REMARK VINA RESULT:     -10.0      0.935      6.688
REMARK  Name = 54676038
REMARK  4 active torsions:
REMARK  status: ('A' for Active; 'I' for Inactive)
REMARK    1  A    between atoms: C_1  and  C_4
REMARK    2  A    between atoms: C_1  and  C_17
REMARK    3  A    between atoms: C_5  and  O_13
REMARK    4  A    between atoms: C_18  and  O_26
REMARK                            x       y       z     vdW  Elec       q    Type
REMARK                         _______ _______ _______ _____ _____    ______ ____
ROOT
ATOM      1  C   UNL     1      36.070 -18.171 -22.664  0.00  0.00    +0.072 C 
ENDROOT
BRANCH   1   4
ATOM      2  O   UNL     1      34.528 -15.143 -21.039  0.00  0.00    -0.421 OA
ATOM      3  O   UNL     1      35.707 -16.912 -20.229  0.00  0.00    -0.245 OA
ATOM      4  C   UNL     1      35.331 -16.886 -22.581  0.00  0.00    +0.092 A 
ATOM      5  C   UNL     1      34.787 -16.226 -23.620  0.00  0.00    +0.139 A 
ATOM      6  C   UNL     1      34.067 -14.966 -23.418  0.00  0.00    +0.068 A 
ATOM      7  C   UNL     1      33.959 -14.460 -22.127  0.00  0.00    +0.152 A 
ATOM      8  C   UNL     1      35.216 -16.338 -21.197  0.00  0.00    +0.345 A 
ATOM      9  C   UNL     1      33.478 -14.236 -24.459  0.00  0.00    +0.006 C 
ATOM     10  C   UNL     1      33.289 -13.268 -21.848  0.00  0.00    +0.038 C 
ATOM     11  C   UNL     1      32.804 -13.039 -24.197  0.00  0.00    +0.000 C 
ATOM     12  C   UNL     1      32.710 -12.555 -22.893  0.00  0.00    +0.003 C 
BRANCH   5  13
ATOM     13  O   UNL     1      34.847 -16.646 -24.932  0.00  0.00    -0.506 OA
ATOM     14  H   UNL     1      34.189 -16.375 -25.541  0.00  0.00    +0.292 HD
ENDBRANCH   5  13
ENDBRANCH   1   4
BRANCH   1  17
ATOM     15  O   UNL     1      33.702 -20.541 -20.904  0.00  0.00    -0.421 OA
ATOM     16  O   UNL     1      33.518 -19.255 -22.771  0.00  0.00    -0.245 OA
ATOM     17  C   UNL     1      35.603 -19.157 -21.628  0.00  0.00    +0.092 A 
ATOM     18  C   UNL     1      36.332 -19.603 -20.586  0.00  0.00    +0.139 A 
ATOM     19  C   UNL     1      35.769 -20.558 -19.629  0.00  0.00    +0.068 A 
ATOM     20  C   UNL     1      34.465 -21.000 -19.818  0.00  0.00    +0.152 A 
ATOM     21  C   UNL     1      34.205 -19.637 -21.829  0.00  0.00    +0.345 A 
ATOM     22  C   UNL     1      36.476 -21.056 -18.526  0.00  0.00    +0.006 C 
ATOM     23  C   UNL     1      33.853 -21.909 -18.953  0.00  0.00    +0.038 C 
ATOM     24  C   UNL     1      35.878 -21.967 -17.648  0.00  0.00    +0.000 C 
ATOM     25  C   UNL     1      34.568 -22.393 -17.862  0.00  0.00    +0.003 C 
BRANCH  18  26
ATOM     26  O   UNL     1      37.630 -19.225 -20.321  0.00  0.00    -0.506 OA
ATOM     27  H   UNL     1      38.341 -19.647 -20.762  0.00  0.00    +0.292 HD
ENDBRANCH  18  26
ENDBRANCH   1  17
TORSDOF 4
ENDMDL
MODEL 7
REMARK VINA RESULT:      -9.6      3.709      9.234
REMARK  Name = 54676038
REMARK  4 active torsions:
REMARK  status: ('A' for Active; 'I' for Inactive)
REMARK    1  A    between atoms: C_1  and  C_4
REMARK    2  A    between atoms: C_1  and  C_17
REMARK    3  A    between atoms: C_5  and  O_13
REMARK    4  A    between atoms: C_18  and  O_26
REMARK                            x       y       z     vdW  Elec       q    Type
REMARK                         _______ _______ _______ _____ _____    ______ ____
ROOT
ATOM      1  C   UNL     1      31.514 -12.229 -22.277  0.00  0.00    +0.072 C 
ENDROOT
BRANCH   1   4
ATOM      2  O   UNL     1      32.277  -8.690 -21.235  0.00  0.00    -0.421 OA
ATOM      3  O   UNL     1      30.803 -10.251 -20.481  0.00  0.00    -0.245 OA
ATOM      4  C   UNL     1      32.195 -10.910 -22.297  0.00  0.00    +0.092 A 
ATOM      5  C   UNL     1      33.179 -10.548 -23.142  0.00  0.00    +0.139 A 
ATOM      6  C   UNL     1      33.773  -9.210 -23.078  0.00  0.00    +0.068 A 
ATOM      7  C   UNL     1      33.301  -8.317 -22.122  0.00  0.00    +0.152 A 
ATOM      8  C   UNL     1      31.694  -9.950 -21.270  0.00  0.00    +0.345 A 
ATOM      9  C   UNL     1      34.796  -8.776 -23.932  0.00  0.00    +0.006 C 
ATOM     10  C   UNL     1      33.811  -7.024 -21.995  0.00  0.00    +0.038 C 
ATOM     11  C   UNL     1      35.319  -7.484 -23.817  0.00  0.00    +0.000 C 
ATOM     12  C   UNL     1      34.826  -6.609 -22.850  0.00  0.00    +0.003 C 
BRANCH   5  13
ATOM     13  O   UNL     1      33.712 -11.364 -24.117  0.00  0.00    -0.506 OA
ATOM     14  H   UNL     1      34.001 -10.997 -24.929  0.00  0.00    +0.292 HD
ENDBRANCH   5  13
ENDBRANCH   1   4
BRANCH   1  17
ATOM     15  O   UNL     1      33.698 -14.607 -20.301  0.00  0.00    -0.421 OA
ATOM     16  O   UNL     1      32.305 -12.909 -19.705  0.00  0.00    -0.245 OA
ATOM     17  C   UNL     1      32.479 -13.357 -22.037  0.00  0.00    +0.092 A 
ATOM     18  C   UNL     1      33.040 -14.125 -22.991  0.00  0.00    +0.139 A 
ATOM     19  C   UNL     1      33.980 -15.193 -22.642  0.00  0.00    +0.068 A 
ATOM     20  C   UNL     1      34.282 -15.402 -21.301  0.00  0.00    +0.152 A 
ATOM     21  C   UNL     1      32.803 -13.588 -20.599  0.00  0.00    +0.345 A 
ATOM     22  C   UNL     1      34.596 -16.022 -23.588  0.00  0.00    +0.006 C 
ATOM     23  C   UNL     1      35.166 -16.397 -20.882  0.00  0.00    +0.038 C 
ATOM     24  C   UNL     1      35.487 -17.024 -23.187  0.00  0.00    +0.000 C 
ATOM     25  C   UNL     1      35.771 -17.211 -21.835  0.00  0.00    +0.003 C 
BRANCH  18  26
ATOM     26  O   UNL     1      32.799 -13.995 -24.341  0.00  0.00    -0.506 OA
ATOM     27  H   UNL     1      32.304 -14.649 -24.794  0.00  0.00    +0.292 HD
ENDBRANCH  18  26
ENDBRANCH   1  17
TORSDOF 4
ENDMDL
MODEL 8
REMARK VINA RESULT:      -9.6      3.726      6.688
REMARK  Name = 54676038
REMARK  4 active torsions:
REMARK  status: ('A' for Active; 'I' for Inactive)
REMARK    1  A    between atoms: C_1  and  C_4
REMARK    2  A    between atoms: C_1  and  C_17
REMARK    3  A    between atoms: C_5  and  O_13
REMARK    4  A    between atoms: C_18  and  O_26
REMARK                            x       y       z     vdW  Elec       q    Type
REMARK                         _______ _______ _______ _____ _____    ______ ____
ROOT
ATOM      1  C   UNL     1      31.532 -12.223 -22.267  0.00  0.00    +0.072 C 
ENDROOT
BRANCH   1   4
ATOM      2  O   UNL     1      33.686 -14.569 -20.256  0.00  0.00    -0.421 OA
ATOM      3  O   UNL     1      32.292 -12.863 -19.688  0.00  0.00    -0.245 OA
ATOM      4  C   UNL     1      32.482 -13.335 -22.014  0.00  0.00    +0.092 A 
ATOM      5  C   UNL     1      33.047 -14.114 -22.956  0.00  0.00    +0.139 A 
ATOM      6  C   UNL     1      33.982 -15.180 -22.590  0.00  0.00    +0.068 A 
ATOM      7  C   UNL     1      34.275 -15.376 -21.244  0.00  0.00    +0.152 A 
ATOM      8  C   UNL     1      32.795 -13.551 -20.571  0.00  0.00    +0.345 A 
ATOM      9  C   UNL     1      34.603 -16.020 -23.524  0.00  0.00    +0.006 C 
ATOM     10  C   UNL     1      35.156 -16.369 -20.811  0.00  0.00    +0.038 C 
ATOM     11  C   UNL     1      35.488 -17.020 -23.106  0.00  0.00    +0.000 C 
ATOM     12  C   UNL     1      35.764 -17.193 -21.751  0.00  0.00    +0.003 C 
BRANCH   5  13
ATOM     13  O   UNL     1      32.814 -13.998 -24.310  0.00  0.00    -0.506 OA
ATOM     14  H   UNL     1      32.553 -13.174 -24.671  0.00  0.00    +0.292 HD
ENDBRANCH   5  13
ENDBRANCH   1   4
BRANCH   1  17
ATOM     15  O   UNL     1      32.310  -8.661 -21.248  0.00  0.00    -0.421 OA
ATOM     16  O   UNL     1      30.833 -10.214 -20.484  0.00  0.00    -0.245 OA
ATOM     17  C   UNL     1      32.224 -10.887 -22.295  0.00  0.00    +0.092 A 
ATOM     18  C   UNL     1      33.210 -10.533 -23.142  0.00  0.00    +0.139 A 
ATOM     19  C   UNL     1      33.806  -9.195 -23.086  0.00  0.00    +0.068 A 
ATOM     20  C   UNL     1      33.335  -8.296 -22.136  0.00  0.00    +0.152 A 
ATOM     21  C   UNL     1      31.725  -9.920 -21.274  0.00  0.00    +0.345 A 
ATOM     22  C   UNL     1      34.831  -8.768 -23.940  0.00  0.00    +0.006 C 
ATOM     23  C   UNL     1      33.847  -7.003 -22.015  0.00  0.00    +0.038 C 
ATOM     24  C   UNL     1      35.356  -7.475 -23.834  0.00  0.00    +0.000 C 
ATOM     25  C   UNL     1      34.863  -6.594 -22.872  0.00  0.00    +0.003 C 
BRANCH  18  26
ATOM     26  O   UNL     1      33.742 -11.355 -24.111  0.00  0.00    -0.506 OA
ATOM     27  H   UNL     1      33.179 -11.899 -24.625  0.00  0.00    +0.292 HD
ENDBRANCH  18  26
ENDBRANCH   1  17
TORSDOF 4
ENDMDL
MODEL 9
REMARK VINA RESULT:      -9.4      4.204      9.484
REMARK  Name = 54676038
REMARK  4 active torsions:
REMARK  status: ('A' for Active; 'I' for Inactive)
REMARK    1  A    between atoms: C_1  and  C_4
REMARK    2  A    between atoms: C_1  and  C_17
REMARK    3  A    between atoms: C_5  and  O_13
REMARK    4  A    between atoms: C_18  and  O_26
REMARK                            x       y       z     vdW  Elec       q    Type
REMARK                         _______ _______ _______ _____ _____    ______ ____
ROOT
ATOM      1  C   UNL     1      30.863 -11.716 -20.984  0.00  0.00    +0.072 C 
ENDROOT
BRANCH   1   4
ATOM      2  O   UNL     1      32.559  -8.944 -19.080  0.00  0.00    -0.421 OA
ATOM      3  O   UNL     1      32.100 -11.117 -18.586  0.00  0.00    -0.245 OA
ATOM      4  C   UNL     1      31.406 -10.357 -20.733  0.00  0.00    +0.092 A 
ATOM      5  C   UNL     1      31.361  -9.323 -21.594  0.00  0.00    +0.139 A 
ATOM      6  C   UNL     1      31.921  -8.019 -21.234  0.00  0.00    +0.068 A 
ATOM      7  C   UNL     1      32.506  -7.868 -19.981  0.00  0.00    +0.152 A 
ATOM      8  C   UNL     1      32.037 -10.193 -19.391  0.00  0.00    +0.345 A 
ATOM      9  C   UNL     1      31.902  -6.906 -22.086  0.00  0.00    +0.006 C 
ATOM     10  C   UNL     1      33.062  -6.659 -19.560  0.00  0.00    +0.038 C 
ATOM     11  C   UNL     1      32.455  -5.688 -21.680  0.00  0.00    +0.000 C 
ATOM     12  C   UNL     1      33.034  -5.564 -20.417  0.00  0.00    +0.003 C 
BRANCH   5  13
ATOM     13  O   UNL     1      30.807  -9.379 -22.856  0.00  0.00    -0.506 OA
ATOM     14  H   UNL     1      31.198  -9.918 -23.515  0.00  0.00    +0.292 HD
ENDBRANCH   5  13
ENDBRANCH   1   4
BRANCH   1  17
ATOM     15  O   UNL     1      33.357 -13.436 -23.254  0.00  0.00    -0.421 OA
ATOM     16  O   UNL     1      31.887 -11.727 -23.564  0.00  0.00    -0.245 OA
ATOM     17  C   UNL     1      31.939 -12.687 -21.386  0.00  0.00    +0.092 A 
ATOM     18  C   UNL     1      32.499 -13.612 -20.582  0.00  0.00    +0.139 A 
ATOM     19  C   UNL     1      33.536 -14.518 -21.085  0.00  0.00    +0.068 A 
ATOM     20  C   UNL     1      33.934 -14.402 -22.412  0.00  0.00    +0.152 A 
ATOM     21  C   UNL     1      32.373 -12.564 -22.808  0.00  0.00    +0.345 A 
ATOM     22  C   UNL     1      34.153 -15.500 -20.300  0.00  0.00    +0.006 C 
ATOM     23  C   UNL     1      34.915 -15.223 -22.970  0.00  0.00    +0.038 C 
ATOM     24  C   UNL     1      35.137 -16.334 -20.843  0.00  0.00    +0.000 C 
ATOM     25  C   UNL     1      35.516 -16.195 -22.177  0.00  0.00    +0.003 C 
BRANCH  18  26
ATOM     26  O   UNL     1      32.172 -13.798 -19.257  0.00  0.00    -0.506 OA
ATOM     27  H   UNL     1      32.611 -14.455 -18.753  0.00  0.00    +0.292 HD
ENDBRANCH  18  26
ENDBRANCH   1  17
TORSDOF 4
ENDMDL
