MODEL 1
REMARK VINA RESULT:     -12.1      0.000      0.000
REMARK  Name = 11987860
REMARK  5 active torsions:
REMARK  status: ('A' for Active; 'I' for Inactive)
REMARK    1  A    between atoms: N_2  and  C_19
REMARK    2  A    between atoms: C_3  and  C_11
REMARK    3  A    between atoms: N_9  and  O_17
REMARK    4  A    between atoms: C_19  and  C_20
REMARK    5  A    between atoms: C_23  and  C_26
REMARK                            x       y       z     vdW  Elec       q    Type
REMARK                         _______ _______ _______ _____ _____    ______ ____
ROOT
ATOM      1  O   UNL     1      34.275 -22.437 -14.756  0.00  0.00    -0.272 OA
ATOM      2  N   UNL     1      34.576 -23.565 -16.770  0.00  0.00    -0.298 N 
ATOM      3  C   UNL     1      34.919 -23.188 -15.483  0.00  0.00    +0.253 C 
ATOM      4  H   UNL     1      35.176 -24.177 -17.254  0.00  0.00    +0.150 HD
ENDROOT
BRANCH   3  11
ATOM      5  O   UNL     1      35.653 -24.657 -12.952  0.00  0.00    -0.327 OA
ATOM      6  O   UNL     1      35.998 -25.237 -15.175  0.00  0.00    -0.320 OA
ATOM      7  O   UNL     1      40.579 -24.593 -13.449  0.00  0.00    -0.250 OA
ATOM      8  N   UNL     1      38.348 -25.234 -13.488  0.00  0.00    -0.255 N 
ATOM      9  N   UNL     1      40.066 -26.769 -13.952  0.00  0.00    -0.181 N 
ATOM     10  C   UNL     1      36.443 -23.615 -13.542  0.00  0.00    +0.174 C 
ATOM     11  C   UNL     1      36.191 -23.828 -15.025  0.00  0.00    +0.222 C 
ATOM     12  C   UNL     1      35.944 -25.746 -13.834  0.00  0.00    +0.256 C 
ATOM     13  C   UNL     1      37.897 -23.879 -13.138  0.00  0.00    +0.128 C 
ATOM     14  C   UNL     1      37.322 -26.297 -13.470  0.00  0.00    +0.156 C 
ATOM     15  C   UNL     1      39.729 -25.474 -13.617  0.00  0.00    +0.326 C 
ATOM     16  H   UNL     1      39.390 -27.471 -14.086  0.00  0.00    +0.184 HD
BRANCH   9  17
ATOM     17  O   UNL     1      41.441 -27.014 -14.087  0.00  0.00    -0.294 OA
ATOM     18  H   UNL     1      41.658 -27.133 -15.026  0.00  0.00    +0.241 HD
ENDBRANCH   9  17
ENDBRANCH   3  11
BRANCH   2  19
ATOM     19  C   UNL     1      33.379 -23.103 -17.435  0.00  0.00    +0.116 C 
BRANCH  19  20
ATOM     20  C   UNL     1      33.720 -22.075 -18.479  0.00  0.00    -0.003 C 
ATOM     21  C   UNL     1      35.045 -21.897 -18.858  0.00  0.00    -0.003 C 
ATOM     22  C   UNL     1      32.707 -21.317 -19.051  0.00  0.00    -0.003 C 
ATOM     23  C   UNL     1      34.351 -20.177 -20.405  0.00  0.00    -0.000 C 
ATOM     24  C   UNL     1      35.360 -20.943 -19.825  0.00  0.00    -0.000 C 
ATOM     25  C   UNL     1      33.023 -20.364 -20.018  0.00  0.00    -0.000 C 
BRANCH  23  26
ATOM     26  C   UNL     1      34.678 -19.188 -21.411  0.00  0.00    -0.000 C 
ATOM     27  C   UNL     1      34.396 -19.439 -22.753  0.00  0.00    -0.000 C 
ATOM     28  C   UNL     1      35.274 -17.985 -21.036  0.00  0.00    -0.000 C 
ATOM     29  C   UNL     1      34.711 -18.486 -23.722  0.00  0.00    +0.000 C 
ATOM     30  C   UNL     1      35.589 -17.031 -22.003  0.00  0.00    +0.000 C 
ATOM     31  C   UNL     1      35.308 -17.281 -23.347  0.00  0.00    +0.000 C 
ENDBRANCH  23  26
ENDBRANCH  19  20
ENDBRANCH   2  19
TORSDOF 5
ENDMDL
MODEL 2
REMARK VINA RESULT:     -11.9      8.433     12.943
REMARK  Name = 11987860
REMARK  5 active torsions:
REMARK  status: ('A' for Active; 'I' for Inactive)
REMARK    1  A    between atoms: N_2  and  C_19
REMARK    2  A    between atoms: C_3  and  C_11
REMARK    3  A    between atoms: N_9  and  O_17
REMARK    4  A    between atoms: C_19  and  C_20
REMARK    5  A    between atoms: C_23  and  C_26
REMARK                            x       y       z     vdW  Elec       q    Type
REMARK                         _______ _______ _______ _____ _____    ______ ____
ROOT
ATOM      1  O   UNL     1      33.068 -15.200 -26.042  0.00  0.00    -0.272 OA
ATOM      2  N   UNL     1      34.285 -15.516 -24.082  0.00  0.00    -0.298 N 
ATOM      3  C   UNL     1      33.401 -14.849 -24.913  0.00  0.00    +0.253 C 
ATOM      4  H   UNL     1      34.473 -15.133 -23.194  0.00  0.00    +0.150 HD
ENDROOT
BRANCH   3  11
ATOM      5  O   UNL     1      34.481 -13.000 -22.789  0.00  0.00    -0.327 OA
ATOM      6  O   UNL     1      33.545 -12.518 -24.859  0.00  0.00    -0.320 OA
ATOM      7  O   UNL     1      30.292 -10.608 -21.673  0.00  0.00    -0.250 OA
ATOM      8  N   UNL     1      32.346 -11.188 -22.587  0.00  0.00    -0.255 N 
ATOM      9  N   UNL     1      31.439  -9.042 -22.891  0.00  0.00    -0.181 N 
ATOM     10  C   UNL     1      33.155 -13.545 -22.789  0.00  0.00    +0.174 C 
ATOM     11  C   UNL     1      32.842 -13.617 -24.274  0.00  0.00    +0.222 C 
ATOM     12  C   UNL     1      34.358 -11.994 -23.798  0.00  0.00    +0.256 C 
ATOM     13  C   UNL     1      32.266 -12.550 -22.037  0.00  0.00    +0.128 C 
ATOM     14  C   UNL     1      33.637 -10.792 -23.186  0.00  0.00    +0.156 C 
ATOM     15  C   UNL     1      31.287 -10.295 -22.336  0.00  0.00    +0.326 C 
ATOM     16  H   UNL     1      32.231  -8.792 -23.418  0.00  0.00    +0.184 HD
BRANCH   9  17
ATOM     17  O   UNL     1      30.384  -8.148 -22.649  0.00  0.00    -0.294 OA
ATOM     18  H   UNL     1      30.558  -7.311 -23.109  0.00  0.00    +0.241 HD
ENDBRANCH   9  17
ENDBRANCH   3  11
BRANCH   2  19
ATOM     19  C   UNL     1      34.945 -16.746 -24.456  0.00  0.00    +0.116 C 
BRANCH  19  20
ATOM     20  C   UNL     1      34.937 -17.717 -23.309  0.00  0.00    -0.003 C 
ATOM     21  C   UNL     1      34.510 -19.023 -23.519  0.00  0.00    -0.003 C 
ATOM     22  C   UNL     1      35.357 -17.299 -22.053  0.00  0.00    -0.003 C 
ATOM     23  C   UNL     1      34.922 -19.514 -21.190  0.00  0.00    -0.000 C 
ATOM     24  C   UNL     1      34.503 -19.924 -22.455  0.00  0.00    -0.000 C 
ATOM     25  C   UNL     1      35.349 -18.201 -20.989  0.00  0.00    -0.000 C 
BRANCH  23  26
ATOM     26  C   UNL     1      34.916 -20.449 -20.086  0.00  0.00    -0.000 C 
ATOM     27  C   UNL     1      33.712 -20.996 -19.642  0.00  0.00    -0.000 C 
ATOM     28  C   UNL     1      36.114 -20.805 -19.467  0.00  0.00    -0.000 C 
ATOM     29  C   UNL     1      33.706 -21.898 -18.578  0.00  0.00    +0.000 C 
ATOM     30  C   UNL     1      36.109 -21.707 -18.403  0.00  0.00    +0.000 C 
ATOM     31  C   UNL     1      34.904 -22.254 -17.958  0.00  0.00    +0.000 C 
ENDBRANCH  23  26
ENDBRANCH  19  20
ENDBRANCH   2  19
TORSDOF 5
ENDMDL
MODEL 3
REMARK VINA RESULT:     -11.4      8.371     12.499
REMARK  Name = 11987860
REMARK  5 active torsions:
REMARK  status: ('A' for Active; 'I' for Inactive)
REMARK    1  A    between atoms: N_2  and  C_19
REMARK    2  A    between atoms: C_3  and  C_11
REMARK    3  A    between atoms: N_9  and  O_17
REMARK    4  A    between atoms: C_19  and  C_20
REMARK    5  A    between atoms: C_23  and  C_26
REMARK                            x       y       z     vdW  Elec       q    Type
REMARK                         _______ _______ _______ _____ _____    ______ ____
ROOT
ATOM      1  O   UNL     1      32.793 -14.106 -24.702  0.00  0.00    -0.272 OA
ATOM      2  N   UNL     1      34.562 -14.537 -23.252  0.00  0.00    -0.298 N 
ATOM      3  C   UNL     1      33.468 -13.827 -23.714  0.00  0.00    +0.253 C 
ATOM      4  H   UNL     1      35.023 -14.213 -22.444  0.00  0.00    +0.150 HD
ENDROOT
BRANCH   3  11
ATOM      5  O   UNL     1      31.513 -13.443 -21.449  0.00  0.00    -0.327 OA
ATOM      6  O   UNL     1      33.769 -12.909 -21.588  0.00  0.00    -0.320 OA
ATOM      7  O   UNL     1      31.583  -8.497 -21.228  0.00  0.00    -0.250 OA
ATOM      8  N   UNL     1      32.001 -10.747 -20.836  0.00  0.00    -0.255 N 
ATOM      9  N   UNL     1      32.811  -9.085 -19.385  0.00  0.00    -0.181 N 
ATOM     10  C   UNL     1      31.665 -12.536 -22.550  0.00  0.00    +0.174 C 
ATOM     11  C   UNL     1      33.150 -12.649 -22.850  0.00  0.00    +0.222 C 
ATOM     12  C   UNL     1      32.679 -13.130 -20.681  0.00  0.00    +0.256 C 
ATOM     13  C   UNL     1      31.260 -11.149 -22.041  0.00  0.00    +0.128 C 
ATOM     14  C   UNL     1      32.412 -11.831 -19.920  0.00  0.00    +0.156 C 
ATOM     15  C   UNL     1      32.096  -9.376 -20.528  0.00  0.00    +0.326 C 
ATOM     16  H   UNL     1      33.220  -9.785 -18.827  0.00  0.00    +0.184 HD
BRANCH   9  17
ATOM     17  O   UNL     1      32.914  -7.721 -19.074  0.00  0.00    -0.294 OA
ATOM     18  H   UNL     1      32.174  -7.240 -19.478  0.00  0.00    +0.241 HD
ENDBRANCH   9  17
ENDBRANCH   3  11
BRANCH   2  19
ATOM     19  C   UNL     1      35.059 -15.731 -23.896  0.00  0.00    +0.116 C 
BRANCH  19  20
ATOM     20  C   UNL     1      35.041 -16.893 -22.942  0.00  0.00    -0.003 C 
ATOM     21  C   UNL     1      35.372 -16.688 -21.607  0.00  0.00    -0.003 C 
ATOM     22  C   UNL     1      34.694 -18.155 -23.404  0.00  0.00    -0.003 C 
ATOM     23  C   UNL     1      35.009 -19.037 -21.177  0.00  0.00    -0.000 C 
ATOM     24  C   UNL     1      35.355 -17.765 -20.722  0.00  0.00    -0.000 C 
ATOM     25  C   UNL     1      34.678 -19.232 -22.518  0.00  0.00    -0.000 C 
BRANCH  23  26
ATOM     26  C   UNL     1      34.990 -20.155 -20.257  0.00  0.00    -0.000 C 
ATOM     27  C   UNL     1      33.782 -20.769 -19.931  0.00  0.00    -0.000 C 
ATOM     28  C   UNL     1      36.182 -20.618 -19.700  0.00  0.00    -0.000 C 
ATOM     29  C   UNL     1      33.764 -21.848 -19.046  0.00  0.00    +0.000 C 
ATOM     30  C   UNL     1      36.165 -21.696 -18.815  0.00  0.00    +0.000 C 
ATOM     31  C   UNL     1      34.956 -22.311 -18.487  0.00  0.00    +0.000 C 
ENDBRANCH  23  26
ENDBRANCH  19  20
ENDBRANCH   2  19
TORSDOF 5
ENDMDL
MODEL 4
REMARK VINA RESULT:     -11.0      3.892      6.392
REMARK  Name = 11987860
REMARK  5 active torsions:
REMARK  status: ('A' for Active; 'I' for Inactive)
REMARK    1  A    between atoms: N_2  and  C_19
REMARK    2  A    between atoms: C_3  and  C_11
REMARK    3  A    between atoms: N_9  and  O_17
REMARK    4  A    between atoms: C_19  and  C_20
REMARK    5  A    between atoms: C_23  and  C_26
REMARK                            x       y       z     vdW  Elec       q    Type
REMARK                         _______ _______ _______ _____ _____    ______ ____
ROOT
ATOM      1  O   UNL     1      34.526 -23.922 -16.098  0.00  0.00    -0.272 OA
ATOM      2  N   UNL     1      33.897 -22.447 -17.785  0.00  0.00    -0.298 N 
ATOM      3  C   UNL     1      33.671 -23.285 -16.707  0.00  0.00    +0.253 C 
ATOM      4  H   UNL     1      33.126 -21.988 -18.192  0.00  0.00    +0.150 HD
ENDROOT
BRANCH   3  11
ATOM      5  O   UNL     1      32.294 -23.984 -14.116  0.00  0.00    -0.327 OA
ATOM      6  O   UNL     1      32.001 -22.160 -15.524  0.00  0.00    -0.320 OA
ATOM      7  O   UNL     1      27.686 -24.540 -15.840  0.00  0.00    -0.250 OA
ATOM      8  N   UNL     1      29.614 -23.664 -14.886  0.00  0.00    -0.255 N 
ATOM      9  N   UNL     1      27.564 -22.521 -14.763  0.00  0.00    -0.181 N 
ATOM     10  C   UNL     1      31.914 -24.499 -15.400  0.00  0.00    +0.174 C 
ATOM     11  C   UNL     1      32.228 -23.329 -16.316  0.00  0.00    +0.222 C 
ATOM     12  C   UNL     1      31.773 -22.654 -14.196  0.00  0.00    +0.256 C 
ATOM     13  C   UNL     1      30.417 -24.816 -15.324  0.00  0.00    +0.128 C 
ATOM     14  C   UNL     1      30.265 -22.720 -13.956  0.00  0.00    +0.156 C 
ATOM     15  C   UNL     1      28.243 -23.637 -15.206  0.00  0.00    +0.326 C 
ATOM     16  H   UNL     1      28.007 -21.802 -14.259  0.00  0.00    +0.184 HD
BRANCH   9  17
ATOM     17  O   UNL     1      26.198 -22.485 -15.083  0.00  0.00    -0.294 OA
ATOM     18  H   UNL     1      25.986 -21.633 -15.498  0.00  0.00    +0.241 HD
ENDBRANCH   9  17
ENDBRANCH   3  11
BRANCH   2  19
ATOM     19  C   UNL     1      35.210 -22.214 -18.344  0.00  0.00    +0.116 C 
BRANCH  19  20
ATOM     20  C   UNL     1      35.156 -21.128 -19.382  0.00  0.00    -0.003 C 
ATOM     21  C   UNL     1      33.932 -20.769 -19.935  0.00  0.00    -0.003 C 
ATOM     22  C   UNL     1      36.328 -20.497 -19.776  0.00  0.00    -0.003 C 
ATOM     23  C   UNL     1      35.054 -19.122 -21.300  0.00  0.00    -0.000 C 
ATOM     24  C   UNL     1      33.883 -19.761 -20.898  0.00  0.00    -0.000 C 
ATOM     25  C   UNL     1      36.277 -19.490 -20.740  0.00  0.00    -0.000 C 
BRANCH  23  26
ATOM     26  C   UNL     1      35.003 -18.076 -22.300  0.00  0.00    -0.000 C 
ATOM     27  C   UNL     1      35.326 -16.765 -21.953  0.00  0.00    -0.000 C 
ATOM     28  C   UNL     1      34.632 -18.381 -23.609  0.00  0.00    -0.000 C 
ATOM     29  C   UNL     1      35.277 -15.757 -22.916  0.00  0.00    +0.000 C 
ATOM     30  C   UNL     1      34.583 -17.374 -24.572  0.00  0.00    +0.000 C 
ATOM     31  C   UNL     1      34.905 -16.061 -24.226  0.00  0.00    +0.000 C 
ENDBRANCH  23  26
ENDBRANCH  19  20
ENDBRANCH   2  19
TORSDOF 5
ENDMDL
MODEL 5
REMARK VINA RESULT:     -10.9      1.817      2.292
REMARK  Name = 11987860
REMARK  5 active torsions:
REMARK  status: ('A' for Active; 'I' for Inactive)
REMARK    1  A    between atoms: N_2  and  C_19
REMARK    2  A    between atoms: C_3  and  C_11
REMARK    3  A    between atoms: N_9  and  O_17
REMARK    4  A    between atoms: C_19  and  C_20
REMARK    5  A    between atoms: C_23  and  C_26
REMARK                            x       y       z     vdW  Elec       q    Type
REMARK                         _______ _______ _______ _____ _____    ______ ____
ROOT
ATOM      1  O   UNL     1      32.509 -23.023 -15.456  0.00  0.00    -0.272 OA
ATOM      2  N   UNL     1      34.268 -23.302 -16.956  0.00  0.00    -0.298 N 
ATOM      3  C   UNL     1      33.705 -23.159 -15.699  0.00  0.00    +0.253 C 
ATOM      4  H   UNL     1      35.245 -23.404 -17.023  0.00  0.00    +0.150 HD
ENDROOT
BRANCH   3  11
ATOM      5  O   UNL     1      34.518 -25.343 -13.785  0.00  0.00    -0.327 OA
ATOM      6  O   UNL     1      35.821 -23.973 -15.134  0.00  0.00    -0.320 OA
ATOM      7  O   UNL     1      37.092 -22.602 -10.565  0.00  0.00    -0.250 OA
ATOM      8  N   UNL     1      36.502 -23.998 -12.323  0.00  0.00    -0.255 N 
ATOM      9  N   UNL     1      38.749 -23.695 -11.709  0.00  0.00    -0.181 N 
ATOM     10  C   UNL     1      34.245 -23.990 -13.399  0.00  0.00    +0.174 C 
ATOM     11  C   UNL     1      34.730 -23.211 -14.611  0.00  0.00    +0.222 C 
ATOM     12  C   UNL     1      35.809 -25.196 -14.384  0.00  0.00    +0.256 C 
ATOM     13  C   UNL     1      35.071 -23.713 -12.139  0.00  0.00    +0.128 C 
ATOM     14  C   UNL     1      36.843 -25.086 -13.263  0.00  0.00    +0.156 C 
ATOM     15  C   UNL     1      37.430 -23.378 -11.465  0.00  0.00    +0.326 C 
ATOM     16  H   UNL     1      39.019 -24.313 -12.425  0.00  0.00    +0.184 HD
BRANCH   9  17
ATOM     17  O   UNL     1      39.681 -23.076 -10.861  0.00  0.00    -0.294 OA
ATOM     18  H   UNL     1      40.380 -23.710 -10.630  0.00  0.00    +0.241 HD
ENDBRANCH   9  17
ENDBRANCH   3  11
BRANCH   2  19
ATOM     19  C   UNL     1      33.490 -23.308 -18.174  0.00  0.00    +0.116 C 
BRANCH  19  20
ATOM     20  C   UNL     1      33.827 -22.112 -19.021  0.00  0.00    -0.003 C 
ATOM     21  C   UNL     1      32.807 -21.279 -19.466  0.00  0.00    -0.003 C 
ATOM     22  C   UNL     1      35.151 -21.855 -19.348  0.00  0.00    -0.003 C 
ATOM     23  C   UNL     1      34.447 -19.903 -20.586  0.00  0.00    -0.000 C 
ATOM     24  C   UNL     1      33.120 -20.170 -20.252  0.00  0.00    -0.000 C 
ATOM     25  C   UNL     1      35.463 -20.746 -20.134  0.00  0.00    -0.000 C 
BRANCH  23  26
ATOM     26  C   UNL     1      34.772 -18.752 -21.401  0.00  0.00    -0.000 C 
ATOM     27  C   UNL     1      34.758 -18.856 -22.791  0.00  0.00    -0.000 C 
ATOM     28  C   UNL     1      35.097 -17.539 -20.795  0.00  0.00    -0.000 C 
ATOM     29  C   UNL     1      35.069 -17.746 -23.577  0.00  0.00    +0.000 C 
ATOM     30  C   UNL     1      35.409 -16.429 -21.579  0.00  0.00    +0.000 C 
ATOM     31  C   UNL     1      35.396 -16.532 -22.971  0.00  0.00    +0.000 C 
ENDBRANCH  23  26
ENDBRANCH  19  20
ENDBRANCH   2  19
TORSDOF 5
ENDMDL
MODEL 6
REMARK VINA RESULT:     -10.4     12.143     16.702
REMARK  Name = 11987860
REMARK  5 active torsions:
REMARK  status: ('A' for Active; 'I' for Inactive)
REMARK    1  A    between atoms: N_2  and  C_19
REMARK    2  A    between atoms: C_3  and  C_11
REMARK    3  A    between atoms: N_9  and  O_17
REMARK    4  A    between atoms: C_19  and  C_20
REMARK    5  A    between atoms: C_23  and  C_26
REMARK                            x       y       z     vdW  Elec       q    Type
REMARK                         _______ _______ _______ _____ _____    ______ ____
ROOT
ATOM      1  O   UNL     1      32.958  -8.215 -19.123  0.00  0.00    -0.272 OA
ATOM      2  N   UNL     1      31.169  -9.326 -20.115  0.00  0.00    -0.298 N 
ATOM      3  C   UNL     1      32.010  -8.247 -19.903  0.00  0.00    +0.253 C 
ATOM      4  H   UNL     1      30.440  -9.230 -20.771  0.00  0.00    +0.150 HD
ENDROOT
BRANCH   3  11
ATOM      5  O   UNL     1      33.616  -6.647 -21.893  0.00  0.00    -0.327 OA
ATOM      6  O   UNL     1      31.507  -7.599 -22.091  0.00  0.00    -0.320 OA
ATOM      7  O   UNL     1      30.590  -2.755 -22.346  0.00  0.00    -0.250 OA
ATOM      8  N   UNL     1      31.682  -4.775 -22.689  0.00  0.00    -0.255 N 
ATOM      9  N   UNL     1      30.237  -3.878 -24.311  0.00  0.00    -0.181 N 
ATOM     10  C   UNL     1      32.797  -6.073 -20.866  0.00  0.00    +0.174 C 
ATOM     11  C   UNL     1      31.661  -7.078 -20.768  0.00  0.00    +0.222 C 
ATOM     12  C   UNL     1      32.619  -7.069 -22.828  0.00  0.00    +0.256 C 
ATOM     13  C   UNL     1      32.341  -4.702 -21.377  0.00  0.00    +0.128 C 
ATOM     14  C   UNL     1      32.143  -5.840 -23.603  0.00  0.00    +0.156 C 
ATOM     15  C   UNL     1      30.818  -3.730 -23.069  0.00  0.00    +0.326 C 
ATOM     16  H   UNL     1      30.418  -4.654 -24.888  0.00  0.00    +0.184 HD
BRANCH   9  17
ATOM     17  O   UNL     1      29.371  -2.843 -24.695  0.00  0.00    -0.294 OA
ATOM     18  H   UNL     1      28.772  -2.633 -23.960  0.00  0.00    +0.241 HD
ENDBRANCH   9  17
ENDBRANCH   3  11
BRANCH   2  19
ATOM     19  C   UNL     1      31.308 -10.585 -19.420  0.00  0.00    +0.116 C 
BRANCH  19  20
ATOM     20  C   UNL     1      31.926 -11.618 -20.320  0.00  0.00    -0.003 C 
ATOM     21  C   UNL     1      32.338 -12.834 -19.786  0.00  0.00    -0.003 C 
ATOM     22  C   UNL     1      32.078 -11.347 -21.673  0.00  0.00    -0.003 C 
ATOM     23  C   UNL     1      33.069 -13.529 -21.981  0.00  0.00    -0.000 C 
ATOM     24  C   UNL     1      32.912 -13.792 -20.621  0.00  0.00    -0.000 C 
ATOM     25  C   UNL     1      32.652 -12.306 -22.507  0.00  0.00    -0.000 C 
BRANCH  23  26
ATOM     26  C   UNL     1      33.663 -14.524 -22.847  0.00  0.00    -0.000 C 
ATOM     27  C   UNL     1      34.635 -15.392 -22.349  0.00  0.00    -0.000 C 
ATOM     28  C   UNL     1      33.262 -14.617 -24.180  0.00  0.00    -0.000 C 
ATOM     29  C   UNL     1      35.207 -16.352 -23.184  0.00  0.00    +0.000 C 
ATOM     30  C   UNL     1      33.834 -15.576 -25.015  0.00  0.00    +0.000 C 
ATOM     31  C   UNL     1      34.807 -16.444 -24.518  0.00  0.00    +0.000 C 
ENDBRANCH  23  26
ENDBRANCH  19  20
ENDBRANCH   2  19
TORSDOF 5
ENDMDL
MODEL 7
REMARK VINA RESULT:     -10.3      4.377      7.138
REMARK  Name = 11987860
REMARK  5 active torsions:
REMARK  status: ('A' for Active; 'I' for Inactive)
REMARK    1  A    between atoms: N_2  and  C_19
REMARK    2  A    between atoms: C_3  and  C_11
REMARK    3  A    between atoms: N_9  and  O_17
REMARK    4  A    between atoms: C_19  and  C_20
REMARK    5  A    between atoms: C_23  and  C_26
REMARK                            x       y       z     vdW  Elec       q    Type
REMARK                         _______ _______ _______ _____ _____    ______ ____
ROOT
ATOM      1  O   UNL     1      34.579 -19.863 -22.173  0.00  0.00    -0.272 OA
ATOM      2  N   UNL     1      35.573 -18.223 -20.854  0.00  0.00    -0.298 N 
ATOM      3  C   UNL     1      34.976 -19.450 -21.087  0.00  0.00    +0.253 C 
ATOM      4  H   UNL     1      35.850 -18.004 -19.934  0.00  0.00    +0.150 HD
ENDROOT
BRANCH   3  11
ATOM      5  O   UNL     1      36.347 -21.996 -20.229  0.00  0.00    -0.327 OA
ATOM      6  O   UNL     1      36.054 -19.994 -19.088  0.00  0.00    -0.320 OA
ATOM      7  O   UNL     1      33.390 -23.204 -16.446  0.00  0.00    -0.250 OA
ATOM      8  N   UNL     1      35.145 -22.375 -17.720  0.00  0.00    -0.255 N 
ATOM      9  N   UNL     1      35.266 -22.440 -15.375  0.00  0.00    -0.181 N 
ATOM     10  C   UNL     1      34.934 -21.766 -20.136  0.00  0.00    +0.174 C 
ATOM     11  C   UNL     1      34.874 -20.276 -19.845  0.00  0.00    +0.222 C 
ATOM     12  C   UNL     1      36.819 -21.208 -19.133  0.00  0.00    +0.256 C 
ATOM     13  C   UNL     1      34.421 -22.625 -18.976  0.00  0.00    +0.128 C 
ATOM     14  C   UNL     1      36.565 -21.988 -17.842  0.00  0.00    +0.156 C 
ATOM     15  C   UNL     1      34.521 -22.710 -16.503  0.00  0.00    +0.326 C 
ATOM     16  H   UNL     1      36.167 -22.047 -15.420  0.00  0.00    +0.184 HD
BRANCH   9  17
ATOM     17  O   UNL     1      34.649 -22.766 -14.157  0.00  0.00    -0.294 OA
ATOM     18  H   UNL     1      33.684 -22.719 -14.261  0.00  0.00    +0.241 HD
ENDBRANCH   9  17
ENDBRANCH   3  11
BRANCH   2  19
ATOM     19  C   UNL     1      35.808 -17.248 -21.894  0.00  0.00    +0.116 C 
BRANCH  19  20
ATOM     20  C   UNL     1      34.939 -16.038 -21.689  0.00  0.00    -0.003 C 
ATOM     21  C   UNL     1      34.503 -15.313 -22.792  0.00  0.00    -0.003 C 
ATOM     22  C   UNL     1      34.583 -15.659 -20.402  0.00  0.00    -0.003 C 
ATOM     23  C   UNL     1      33.335 -13.803 -21.313  0.00  0.00    -0.000 C 
ATOM     24  C   UNL     1      33.697 -14.191 -22.602  0.00  0.00    -0.000 C 
ATOM     25  C   UNL     1      33.778 -14.537 -20.213  0.00  0.00    -0.000 C 
BRANCH  23  26
ATOM     26  C   UNL     1      32.497 -12.639 -21.116  0.00  0.00    -0.000 C 
ATOM     27  C   UNL     1      31.892 -12.022 -22.210  0.00  0.00    -0.000 C 
ATOM     28  C   UNL     1      32.295 -12.136 -19.831  0.00  0.00    -0.000 C 
ATOM     29  C   UNL     1      31.084 -10.900 -22.020  0.00  0.00    +0.000 C 
ATOM     30  C   UNL     1      31.488 -11.014 -19.640  0.00  0.00    +0.000 C 
ATOM     31  C   UNL     1      30.883 -10.396 -20.735  0.00  0.00    +0.000 C 
ENDBRANCH  23  26
ENDBRANCH  19  20
ENDBRANCH   2  19
TORSDOF 5
ENDMDL
MODEL 8
REMARK VINA RESULT:     -10.2      3.125      4.899
REMARK  Name = 11987860
REMARK  5 active torsions:
REMARK  status: ('A' for Active; 'I' for Inactive)
REMARK    1  A    between atoms: N_2  and  C_19
REMARK    2  A    between atoms: C_3  and  C_11
REMARK    3  A    between atoms: N_9  and  O_17
REMARK    4  A    between atoms: C_19  and  C_20
REMARK    5  A    between atoms: C_23  and  C_26
REMARK                            x       y       z     vdW  Elec       q    Type
REMARK                         _______ _______ _______ _____ _____    ______ ____
ROOT
ATOM      1  O   UNL     1      37.185 -21.750 -16.136  0.00  0.00    -0.272 OA
ATOM      2  N   UNL     1      35.815 -22.042 -17.996  0.00  0.00    -0.298 N 
ATOM      3  C   UNL     1      36.098 -22.018 -16.641  0.00  0.00    +0.253 C 
ATOM      4  H   UNL     1      34.901 -22.272 -18.280  0.00  0.00    +0.150 HD
ENDROOT
BRANCH   3  11
ATOM      5  O   UNL     1      34.599 -24.590 -16.153  0.00  0.00    -0.327 OA
ATOM      6  O   UNL     1      35.396 -23.012 -14.647  0.00  0.00    -0.320 OA
ATOM      7  O   UNL     1      30.496 -22.696 -14.129  0.00  0.00    -0.250 OA
ATOM      8  N   UNL     1      32.586 -23.662 -14.430  0.00  0.00    -0.255 N 
ATOM      9  N   UNL     1      31.574 -23.581 -12.311  0.00  0.00    -0.181 N 
ATOM     10  C   UNL     1      33.977 -23.340 -16.483  0.00  0.00    +0.174 C 
ATOM     11  C   UNL     1      34.899 -22.340 -15.807  0.00  0.00    +0.222 C 
ATOM     12  C   UNL     1      34.940 -24.366 -14.782  0.00  0.00    +0.256 C 
ATOM     13  C   UNL     1      32.573 -23.369 -15.871  0.00  0.00    +0.128 C 
ATOM     14  C   UNL     1      33.673 -24.536 -13.943  0.00  0.00    +0.156 C 
ATOM     15  C   UNL     1      31.479 -23.273 -13.652  0.00  0.00    +0.326 C 
ATOM     16  H   UNL     1      32.356 -24.040 -11.930  0.00  0.00    +0.184 HD
BRANCH   9  17
ATOM     17  O   UNL     1      30.476 -23.192 -11.528  0.00  0.00    -0.294 OA
ATOM     18  H   UNL     1      30.428 -22.222 -11.497  0.00  0.00    +0.241 HD
ENDBRANCH   9  17
ENDBRANCH   3  11
BRANCH   2  19
ATOM     19  C   UNL     1      36.798 -21.745 -19.013  0.00  0.00    +0.116 C 
BRANCH  19  20
ATOM     20  C   UNL     1      36.353 -20.579 -19.852  0.00  0.00    -0.003 C 
ATOM     21  C   UNL     1      37.288 -19.640 -20.272  0.00  0.00    -0.003 C 
ATOM     22  C   UNL     1      35.013 -20.453 -20.196  0.00  0.00    -0.003 C 
ATOM     23  C   UNL     1      35.532 -18.424 -21.400  0.00  0.00    -0.000 C 
ATOM     24  C   UNL     1      36.874 -18.559 -21.050  0.00  0.00    -0.000 C 
ATOM     25  C   UNL     1      34.601 -19.371 -20.973  0.00  0.00    -0.000 C 
BRANCH  23  26
ATOM     26  C   UNL     1      35.103 -17.302 -22.208  0.00  0.00    -0.000 C 
ATOM     27  C   UNL     1      34.962 -16.041 -21.631  0.00  0.00    -0.000 C 
ATOM     28  C   UNL     1      34.833 -17.483 -23.564  0.00  0.00    -0.000 C 
ATOM     29  C   UNL     1      34.549 -14.959 -22.409  0.00  0.00    +0.000 C 
ATOM     30  C   UNL     1      34.421 -16.402 -24.343  0.00  0.00    +0.000 C 
ATOM     31  C   UNL     1      34.278 -15.140 -23.766  0.00  0.00    +0.000 C 
ENDBRANCH  23  26
ENDBRANCH  19  20
ENDBRANCH   2  19
TORSDOF 5
ENDMDL
MODEL 9
REMARK VINA RESULT:     -10.1     10.478     14.526
REMARK  Name = 11987860
REMARK  5 active torsions:
REMARK  status: ('A' for Active; 'I' for Inactive)
REMARK    1  A    between atoms: N_2  and  C_19
REMARK    2  A    between atoms: C_3  and  C_11
REMARK    3  A    between atoms: N_9  and  O_17
REMARK    4  A    between atoms: C_19  and  C_20
REMARK    5  A    between atoms: C_23  and  C_26
REMARK                            x       y       z     vdW  Elec       q    Type
REMARK                         _______ _______ _______ _____ _____    ______ ____
ROOT
ATOM      1  O   UNL     1      31.207 -12.170 -20.595  0.00  0.00    -0.272 OA
ATOM      2  N   UNL     1      32.231 -10.847 -22.214  0.00  0.00    -0.298 N 
ATOM      3  C   UNL     1      31.872 -12.045 -21.620  0.00  0.00    +0.253 C 
ATOM      4  H   UNL     1      32.769 -10.876 -23.039  0.00  0.00    +0.150 HD
ENDROOT
BRANCH   3  11
ATOM      5  O   UNL     1      34.519 -12.643 -22.935  0.00  0.00    -0.327 OA
ATOM      6  O   UNL     1      33.234 -13.939 -21.499  0.00  0.00    -0.320 OA
ATOM      7  O   UNL     1      33.120 -16.485 -25.727  0.00  0.00    -0.250 OA
ATOM      8  N   UNL     1      33.970 -15.180 -24.005  0.00  0.00    -0.255 N 
ATOM      9  N   UNL     1      34.305 -17.505 -24.053  0.00  0.00    -0.181 N 
ATOM     10  C   UNL     1      33.243 -12.829 -23.563  0.00  0.00    +0.174 C 
ATOM     11  C   UNL     1      32.367 -13.228 -22.388  0.00  0.00    +0.222 C 
ATOM     12  C   UNL     1      34.548 -13.766 -22.049  0.00  0.00    +0.256 C 
ATOM     13  C   UNL     1      33.414 -13.951 -24.592  0.00  0.00    +0.128 C 
ATOM     14  C   UNL     1      34.896 -15.009 -22.868  0.00  0.00    +0.156 C 
ATOM     15  C   UNL     1      33.756 -16.402 -24.671  0.00  0.00    +0.326 C 
ATOM     16  H   UNL     1      34.811 -17.440 -23.212  0.00  0.00    +0.184 HD
BRANCH   9  17
ATOM     17  O   UNL     1      34.091 -18.728 -24.708  0.00  0.00    -0.294 OA
ATOM     18  H   UNL     1      34.528 -19.441 -24.213  0.00  0.00    +0.241 HD
ENDBRANCH   9  17
ENDBRANCH   3  11
BRANCH   2  19
ATOM     19  C   UNL     1      31.856  -9.557 -21.681  0.00  0.00    +0.116 C 
BRANCH  19  20
ATOM     20  C   UNL     1      32.382  -8.452 -22.555  0.00  0.00    -0.003 C 
ATOM     21  C   UNL     1      33.450  -7.680 -22.115  0.00  0.00    -0.003 C 
ATOM     22  C   UNL     1      31.795  -8.217 -23.791  0.00  0.00    -0.003 C 
ATOM     23  C   UNL     1      33.354  -6.411 -24.168  0.00  0.00    -0.000 C 
ATOM     24  C   UNL     1      33.937  -6.655 -22.926  0.00  0.00    -0.000 C 
ATOM     25  C   UNL     1      32.283  -7.192 -24.601  0.00  0.00    -0.000 C 
BRANCH  23  26
ATOM     26  C   UNL     1      33.861  -5.348 -25.010  0.00  0.00    -0.000 C 
ATOM     27  C   UNL     1      35.121  -5.463 -25.595  0.00  0.00    -0.000 C 
ATOM     28  C   UNL     1      33.087  -4.211 -25.237  0.00  0.00    -0.000 C 
ATOM     29  C   UNL     1      35.609  -4.439 -26.407  0.00  0.00    +0.000 C 
ATOM     30  C   UNL     1      33.574  -3.187 -26.049  0.00  0.00    +0.000 C 
ATOM     31  C   UNL     1      34.836  -3.300 -26.634  0.00  0.00    +0.000 C 
ENDBRANCH  23  26
ENDBRANCH  19  20
ENDBRANCH   2  19
TORSDOF 5
ENDMDL
