MODEL 1
REMARK VINA RESULT:     -10.9      0.000      0.000
REMARK  Name = 24812718
REMARK  6 active torsions:
REMARK  status: ('A' for Active; 'I' for Inactive)
REMARK    1  A    between atoms: C_1  and  C_10
REMARK    2  A    between atoms: C_4  and  C_21
REMARK    3  A    between atoms: N_9  and  C_12
REMARK    4  A    between atoms: C_12  and  C_13
REMARK    5  A    between atoms: C_13  and  C_14
REMARK    6  A    between atoms: N_20  and  C_25
REMARK                            x       y       z     vdW  Elec       q    Type
REMARK                         _______ _______ _______ _____ _____    ______ ____
ROOT
ATOM      1  C   UNL     1      35.257 -20.560 -19.802  0.00  0.00    +0.053 C 
ATOM      2  C   UNL     1      34.336 -21.462 -19.269  0.00  0.00    +0.009 C 
ATOM      3  C   UNL     1      36.501 -20.392 -19.193  0.00  0.00    +0.004 C 
ATOM      4  C   UNL     1      34.659 -22.197 -18.129  0.00  0.00    +0.050 C 
ATOM      5  C   UNL     1      35.903 -22.029 -17.520  0.00  0.00    -0.017 C 
ATOM      6  C   UNL     1      36.824 -21.126 -18.052  0.00  0.00    -0.004 C 
ATOM      7  C   UNL     1      36.274 -22.802 -16.297  0.00  0.00    +0.031 C 
ENDROOT
BRANCH   1  10
ATOM      8  O   UNL     1      33.857 -20.005 -21.600  0.00  0.00    -0.270 OA
ATOM      9  N   UNL     1      35.831 -18.803 -21.397  0.00  0.00    -0.301 N 
ATOM     10  C   UNL     1      34.914 -19.777 -21.017  0.00  0.00    +0.246 C 
ATOM     11  H   UNL     1      36.652 -18.695 -20.865  0.00  0.00    +0.150 HD
BRANCH   9  12
ATOM     12  C   UNL     1      35.628 -17.948 -22.534  0.00  0.00    +0.090 C 
BRANCH  12  13
ATOM     13  C   UNL     1      35.324 -16.509 -22.130  0.00  0.00    +0.021 C 
BRANCH  13  14
ATOM     14  C   UNL     1      34.917 -15.639 -23.307  0.00  0.00    +0.002 C 
ATOM     15  C   UNL     1      33.893 -14.571 -22.940  0.00  0.00    +0.000 C 
ATOM     16  C   UNL     1      34.199 -16.415 -24.407  0.00  0.00    +0.000 C 
ATOM     17  C   UNL     1      33.310 -14.143 -24.284  0.00  0.00    +0.000 C 
ATOM     18  C   UNL     1      33.498 -15.334 -25.224  0.00  0.00    +0.000 C 
ENDBRANCH  13  14
ENDBRANCH  12  13
ENDBRANCH   9  12
ENDBRANCH   1  10
BRANCH   4  21
ATOM     19  O   UNL     1      33.612 -24.273 -18.077  0.00  0.00    -0.270 OA
ATOM     20  N   UNL     1      32.894 -22.657 -16.536  0.00  0.00    -0.279 N 
ATOM     21  C   UNL     1      33.679 -23.133 -17.593  0.00  0.00    +0.249 C 
ATOM     22  H   UNL     1      33.064 -21.725 -16.262  0.00  0.00    +0.155 HD
BRANCH  20  25
ATOM     23  N   UNL     1      31.311 -24.874 -14.032  0.00  0.00    -0.228 NA
ATOM     24  N   UNL     1      29.019 -25.375 -13.617  0.00  0.00    -0.343 N 
ATOM     25  C   UNL     1      31.890 -23.339 -15.808  0.00  0.00    +0.070 C 
ATOM     26  C   UNL     1      30.543 -23.171 -16.111  0.00  0.00    +0.019 C 
ATOM     27  C   UNL     1      32.219 -24.195 -14.768  0.00  0.00    +0.115 C 
ATOM     28  C   UNL     1      29.580 -23.854 -15.376  0.00  0.00    +0.035 C 
ATOM     29  C   UNL     1      30.013 -24.686 -14.356  0.00  0.00    +0.125 C 
ATOM     30  H   UNL     1      29.281 -25.977 -12.883  0.00  0.00    +0.144 HD
ATOM     31  H   UNL     1      28.067 -25.252 -13.837  0.00  0.00    +0.144 HD
ENDBRANCH  20  25
ENDBRANCH   4  21
TORSDOF 6
ENDMDL
MODEL 2
REMARK VINA RESULT:     -10.6      4.767     11.672
REMARK  Name = 24812718
REMARK  6 active torsions:
REMARK  status: ('A' for Active; 'I' for Inactive)
REMARK    1  A    between atoms: C_1  and  C_10
REMARK    2  A    between atoms: C_4  and  C_21
REMARK    3  A    between atoms: N_9  and  C_12
REMARK    4  A    between atoms: C_12  and  C_13
REMARK    5  A    between atoms: C_13  and  C_14
REMARK    6  A    between atoms: N_20  and  C_25
REMARK                            x       y       z     vdW  Elec       q    Type
REMARK                         _______ _______ _______ _____ _____    ______ ____
ROOT
ATOM      1  C   UNL     1      34.898 -16.283 -22.565  0.00  0.00    +0.053 C 
ATOM      2  C   UNL     1      34.455 -14.972 -22.392  0.00  0.00    +0.009 C 
ATOM      3  C   UNL     1      34.741 -16.915 -23.799  0.00  0.00    +0.004 C 
ATOM      4  C   UNL     1      33.856 -14.292 -23.452  0.00  0.00    +0.050 C 
ATOM      5  C   UNL     1      33.700 -14.924 -24.686  0.00  0.00    -0.017 C 
ATOM      6  C   UNL     1      34.142 -16.235 -24.860  0.00  0.00    -0.004 C 
ATOM      7  C   UNL     1      33.061 -14.219 -25.839  0.00  0.00    +0.031 C 
ENDROOT
BRANCH   1  10
ATOM      8  O   UNL     1      35.274 -16.673 -20.284  0.00  0.00    -0.270 OA
ATOM      9  N   UNL     1      36.384 -18.054 -21.781  0.00  0.00    -0.301 N 
ATOM     10  C   UNL     1      35.535 -17.008 -21.436  0.00  0.00    +0.246 C 
ATOM     11  H   UNL     1      36.531 -18.247 -22.735  0.00  0.00    +0.150 HD
BRANCH   9  12
ATOM     12  C   UNL     1      37.054 -18.865 -20.802  0.00  0.00    +0.090 C 
BRANCH  12  13
ATOM     13  C   UNL     1      36.491 -20.281 -20.739  0.00  0.00    +0.021 C 
BRANCH  13  14
ATOM     14  C   UNL     1      35.278 -20.393 -19.831  0.00  0.00    +0.002 C 
ATOM     15  C   UNL     1      35.072 -21.797 -19.273  0.00  0.00    +0.000 C 
ATOM     16  C   UNL     1      33.960 -20.134 -20.554  0.00  0.00    +0.000 C 
ATOM     17  C   UNL     1      33.623 -21.794 -18.794  0.00  0.00    +0.000 C 
ATOM     18  C   UNL     1      32.905 -20.731 -19.627  0.00  0.00    +0.000 C 
ENDBRANCH  13  14
ENDBRANCH  12  13
ENDBRANCH   9  12
ENDBRANCH   1  10
BRANCH   4  21
ATOM     19  O   UNL     1      32.334 -12.729 -22.646  0.00  0.00    -0.270 OA
ATOM     20  N   UNL     1      34.250 -11.920 -23.731  0.00  0.00    -0.279 N 
ATOM     21  C   UNL     1      33.403 -12.923 -23.245  0.00  0.00    +0.249 C 
ATOM     22  H   UNL     1      35.066 -12.232 -24.186  0.00  0.00    +0.155 HD
BRANCH  20  25
ATOM     23  N   UNL     1      32.598  -8.615 -23.527  0.00  0.00    -0.228 NA
ATOM     24  N   UNL     1      33.511  -6.416 -23.420  0.00  0.00    -0.343 N 
ATOM     25  C   UNL     1      34.087 -10.515 -23.653  0.00  0.00    +0.070 C 
ATOM     26  C   UNL     1      35.187  -9.664 -23.623  0.00  0.00    +0.019 C 
ATOM     27  C   UNL     1      32.824  -9.945 -23.604  0.00  0.00    +0.115 C 
ATOM     28  C   UNL     1      34.993  -8.290 -23.544  0.00  0.00    +0.035 C 
ATOM     29  C   UNL     1      33.690  -7.820 -23.500  0.00  0.00    +0.125 C 
ATOM     30  H   UNL     1      32.602  -6.038 -23.387  0.00  0.00    +0.144 HD
ATOM     31  H   UNL     1      34.293  -5.820 -23.399  0.00  0.00    +0.144 HD
ENDBRANCH  20  25
ENDBRANCH   4  21
TORSDOF 6
ENDMDL
MODEL 3
REMARK VINA RESULT:     -10.6      2.210      9.743
REMARK  Name = 24812718
REMARK  6 active torsions:
REMARK  status: ('A' for Active; 'I' for Inactive)
REMARK    1  A    between atoms: C_1  and  C_10
REMARK    2  A    between atoms: C_4  and  C_21
REMARK    3  A    between atoms: N_9  and  C_12
REMARK    4  A    between atoms: C_12  and  C_13
REMARK    5  A    between atoms: C_13  and  C_14
REMARK    6  A    between atoms: N_20  and  C_25
REMARK                            x       y       z     vdW  Elec       q    Type
REMARK                         _______ _______ _______ _____ _____    ______ ____
ROOT
ATOM      1  C   UNL     1      34.840 -21.094 -19.499  0.00  0.00    +0.053 C 
ATOM      2  C   UNL     1      34.470 -20.082 -20.385  0.00  0.00    +0.009 C 
ATOM      3  C   UNL     1      36.188 -21.313 -19.216  0.00  0.00    +0.004 C 
ATOM      4  C   UNL     1      35.447 -19.290 -20.987  0.00  0.00    +0.050 C 
ATOM      5  C   UNL     1      36.795 -19.509 -20.703  0.00  0.00    -0.017 C 
ATOM      6  C   UNL     1      37.166 -20.521 -19.818  0.00  0.00    -0.004 C 
ATOM      7  C   UNL     1      37.862 -18.675 -21.334  0.00  0.00    +0.031 C 
ENDROOT
BRANCH   1  10
ATOM      8  O   UNL     1      32.677 -21.989 -19.355  0.00  0.00    -0.270 OA
ATOM      9  N   UNL     1      34.195 -22.646 -17.728  0.00  0.00    -0.301 N 
ATOM     10  C   UNL     1      33.800 -21.939 -18.858  0.00  0.00    +0.246 C 
ATOM     11  H   UNL     1      35.120 -22.540 -17.405  0.00  0.00    +0.150 HD
BRANCH   9  12
ATOM     12  C   UNL     1      33.311 -23.524 -17.012  0.00  0.00    +0.090 C 
BRANCH  12  13
ATOM     13  C   UNL     1      33.254 -23.200 -15.523  0.00  0.00    +0.021 C 
BRANCH  13  14
ATOM     14  C   UNL     1      31.835 -23.014 -15.014  0.00  0.00    +0.002 C 
ATOM     15  C   UNL     1      31.270 -24.258 -14.337  0.00  0.00    +0.000 C 
ATOM     16  C   UNL     1      30.825 -22.761 -16.129  0.00  0.00    +0.000 C 
ATOM     17  C   UNL     1      29.764 -24.015 -14.322  0.00  0.00    +0.000 C 
ATOM     18  C   UNL     1      29.476 -23.061 -15.482  0.00  0.00    +0.000 C 
ENDBRANCH  13  14
ENDBRANCH  12  13
ENDBRANCH   9  12
ENDBRANCH   1  10
BRANCH   4  21
ATOM     19  O   UNL     1      34.649 -18.555 -23.045  0.00  0.00    -0.270 OA
ATOM     20  N   UNL     1      35.081 -16.933 -21.406  0.00  0.00    -0.279 N 
ATOM     21  C   UNL     1      35.032 -18.239 -21.908  0.00  0.00    +0.249 C 
ATOM     22  H   UNL     1      35.409 -16.842 -20.481  0.00  0.00    +0.155 HD
BRANCH  20  25
ATOM     23  N   UNL     1      34.233 -14.555 -24.111  0.00  0.00    -0.228 NA
ATOM     24  N   UNL     1      33.660 -12.243 -24.035  0.00  0.00    -0.343 N 
ATOM     25  C   UNL     1      34.719 -15.727 -22.053  0.00  0.00    +0.070 C 
ATOM     26  C   UNL     1      34.495 -14.562 -21.328  0.00  0.00    +0.019 C 
ATOM     27  C   UNL     1      34.577 -15.671 -23.431  0.00  0.00    +0.115 C 
ATOM     28  C   UNL     1      34.139 -13.393 -21.993  0.00  0.00    +0.035 C 
ATOM     29  C   UNL     1      34.023 -13.442 -23.373  0.00  0.00    +0.125 C 
ATOM     30  H   UNL     1      33.566 -12.232 -25.015  0.00  0.00    +0.144 HD
ATOM     31  H   UNL     1      33.503 -11.422 -23.516  0.00  0.00    +0.144 HD
ENDBRANCH  20  25
ENDBRANCH   4  21
TORSDOF 6
ENDMDL
MODEL 4
REMARK VINA RESULT:     -10.4      5.722     12.701
REMARK  Name = 24812718
REMARK  6 active torsions:
REMARK  status: ('A' for Active; 'I' for Inactive)
REMARK    1  A    between atoms: C_1  and  C_10
REMARK    2  A    between atoms: C_4  and  C_21
REMARK    3  A    between atoms: N_9  and  C_12
REMARK    4  A    between atoms: C_12  and  C_13
REMARK    5  A    between atoms: C_13  and  C_14
REMARK    6  A    between atoms: N_20  and  C_25
REMARK                            x       y       z     vdW  Elec       q    Type
REMARK                         _______ _______ _______ _____ _____    ______ ____
ROOT
ATOM      1  C   UNL     1      34.021 -14.502 -21.789  0.00  0.00    +0.053 C 
ATOM      2  C   UNL     1      34.015 -13.382 -22.620  0.00  0.00    +0.009 C 
ATOM      3  C   UNL     1      33.179 -14.550 -20.678  0.00  0.00    +0.004 C 
ATOM      4  C   UNL     1      33.167 -12.311 -22.341  0.00  0.00    +0.050 C 
ATOM      5  C   UNL     1      32.324 -12.360 -21.231  0.00  0.00    -0.017 C 
ATOM      6  C   UNL     1      32.330 -13.479 -20.398  0.00  0.00    -0.004 C 
ATOM      7  C   UNL     1      31.405 -11.226 -20.908  0.00  0.00    +0.031 C 
ENDROOT
BRANCH   1  10
ATOM      8  O   UNL     1      35.603 -15.622 -23.109  0.00  0.00    -0.270 OA
ATOM      9  N   UNL     1      34.953 -16.663 -21.141  0.00  0.00    -0.301 N 
ATOM     10  C   UNL     1      34.925 -15.643 -22.085  0.00  0.00    +0.246 C 
ATOM     11  H   UNL     1      34.371 -16.589 -20.349  0.00  0.00    +0.150 HD
BRANCH   9  12
ATOM     12  C   UNL     1      35.794 -17.821 -21.273  0.00  0.00    +0.090 C 
BRANCH  12  13
ATOM     13  C   UNL     1      34.992 -19.095 -21.517  0.00  0.00    +0.021 C 
BRANCH  13  14
ATOM     14  C   UNL     1      34.644 -19.828 -20.233  0.00  0.00    +0.002 C 
ATOM     15  C   UNL     1      35.546 -21.027 -19.960  0.00  0.00    +0.000 C 
ATOM     16  C   UNL     1      33.257 -20.464 -20.261  0.00  0.00    +0.000 C 
ATOM     17  C   UNL     1      34.771 -21.843 -18.931  0.00  0.00    +0.000 C 
ATOM     18  C   UNL     1      33.297 -21.489 -19.133  0.00  0.00    +0.000 C 
ENDBRANCH  13  14
ENDBRANCH  12  13
ENDBRANCH   9  12
ENDBRANCH   1  10
BRANCH   4  21
ATOM     19  O   UNL     1      32.920 -11.314 -24.429  0.00  0.00    -0.270 OA
ATOM     20  N   UNL     1      33.468  -9.924 -22.620  0.00  0.00    -0.279 N 
ATOM     21  C   UNL     1      33.180 -11.153 -23.226  0.00  0.00    +0.249 C 
ATOM     22  H   UNL     1      33.654  -9.958 -21.653  0.00  0.00    +0.155 HD
BRANCH  20  25
ATOM     23  N   UNL     1      32.357  -6.772 -24.207  0.00  0.00    -0.228 NA
ATOM     24  N   UNL     1      33.596  -4.882 -24.961  0.00  0.00    -0.343 N 
ATOM     25  C   UNL     1      33.526  -8.641 -23.215  0.00  0.00    +0.070 C 
ATOM     26  C   UNL     1      34.740  -7.987 -23.395  0.00  0.00    +0.019 C 
ATOM     27  C   UNL     1      32.372  -7.996 -23.634  0.00  0.00    +0.115 C 
ATOM     28  C   UNL     1      34.763  -6.725 -23.981  0.00  0.00    +0.035 C 
ATOM     29  C   UNL     1      33.555  -6.167 -24.366  0.00  0.00    +0.125 C 
ATOM     30  H   UNL     1      32.761  -4.447 -25.250  0.00  0.00    +0.144 HD
ATOM     31  H   UNL     1      34.459  -4.424 -25.086  0.00  0.00    +0.144 HD
ENDBRANCH  20  25
ENDBRANCH   4  21
TORSDOF 6
ENDMDL
MODEL 5
REMARK VINA RESULT:     -10.4      6.582     12.776
REMARK  Name = 24812718
REMARK  6 active torsions:
REMARK  status: ('A' for Active; 'I' for Inactive)
REMARK    1  A    between atoms: C_1  and  C_10
REMARK    2  A    between atoms: C_4  and  C_21
REMARK    3  A    between atoms: N_9  and  C_12
REMARK    4  A    between atoms: C_12  and  C_13
REMARK    5  A    between atoms: C_13  and  C_14
REMARK    6  A    between atoms: N_20  and  C_25
REMARK                            x       y       z     vdW  Elec       q    Type
REMARK                         _______ _______ _______ _____ _____    ______ ____
ROOT
ATOM      1  C   UNL     1      33.121 -13.564 -22.149  0.00  0.00    +0.053 C 
ATOM      2  C   UNL     1      32.678 -12.291 -22.507  0.00  0.00    +0.009 C 
ATOM      3  C   UNL     1      33.039 -13.982 -20.821  0.00  0.00    +0.004 C 
ATOM      4  C   UNL     1      32.153 -11.437 -21.538  0.00  0.00    +0.050 C 
ATOM      5  C   UNL     1      32.071 -11.856 -20.210  0.00  0.00    -0.017 C 
ATOM      6  C   UNL     1      32.514 -13.128 -19.851  0.00  0.00    -0.004 C 
ATOM      7  C   UNL     1      31.513 -10.960 -19.152  0.00  0.00    +0.031 C 
ENDROOT
BRANCH   1  10
ATOM      8  O   UNL     1      33.352 -14.326 -24.355  0.00  0.00    -0.270 OA
ATOM      9  N   UNL     1      34.577 -15.436 -22.728  0.00  0.00    -0.301 N 
ATOM     10  C   UNL     1      33.681 -14.475 -23.181  0.00  0.00    +0.246 C 
ATOM     11  H   UNL     1      34.778 -15.477 -21.765  0.00  0.00    +0.150 HD
BRANCH   9  12
ATOM     12  C   UNL     1      35.222 -16.372 -23.607  0.00  0.00    +0.090 C 
BRANCH  12  13
ATOM     13  C   UNL     1      34.834 -17.815 -23.301  0.00  0.00    +0.021 C 
BRANCH  13  14
ATOM     14  C   UNL     1      35.244 -18.253 -21.905  0.00  0.00    +0.002 C 
ATOM     15  C   UNL     1      36.750 -18.446 -21.753  0.00  0.00    +0.000 C 
ATOM     16  C   UNL     1      34.700 -19.625 -21.521  0.00  0.00    +0.000 C 
ATOM     17  C   UNL     1      36.886 -19.286 -20.487  0.00  0.00    +0.000 C 
ATOM     18  C   UNL     1      35.571 -20.054 -20.344  0.00  0.00    +0.000 C 
ENDBRANCH  13  14
ENDBRANCH  12  13
ENDBRANCH   9  12
ENDBRANCH   1  10
BRANCH   4  21
ATOM     19  O   UNL     1      30.572  -9.995 -22.451  0.00  0.00    -0.270 OA
ATOM     20  N   UNL     1      32.582  -9.058 -21.684  0.00  0.00    -0.279 N 
ATOM     21  C   UNL     1      31.697 -10.112 -21.940  0.00  0.00    +0.249 C 
ATOM     22  H   UNL     1      33.441  -9.311 -21.273  0.00  0.00    +0.155 HD
BRANCH  20  25
ATOM     23  N   UNL     1      32.603  -5.819 -23.473  0.00  0.00    -0.228 NA
ATOM     24  N   UNL     1      31.913  -3.647 -22.778  0.00  0.00    -0.343 N 
ATOM     25  C   UNL     1      32.404  -7.677 -21.939  0.00  0.00    +0.070 C 
ATOM     26  C   UNL     1      31.876  -6.830 -20.970  0.00  0.00    +0.019 C 
ATOM     27  C   UNL     1      32.749  -7.127 -23.163  0.00  0.00    +0.115 C 
ATOM     28  C   UNL     1      31.711  -5.478 -21.252  0.00  0.00    +0.035 C 
ATOM     29  C   UNL     1      32.087  -5.027 -22.507  0.00  0.00    +0.125 C 
ATOM     30  H   UNL     1      32.167  -3.282 -23.657  0.00  0.00    +0.144 HD
ATOM     31  H   UNL     1      31.539  -3.053 -22.088  0.00  0.00    +0.144 HD
ENDBRANCH  20  25
ENDBRANCH   4  21
TORSDOF 6
ENDMDL
MODEL 6
REMARK VINA RESULT:     -10.3      3.753     10.816
REMARK  Name = 24812718
REMARK  6 active torsions:
REMARK  status: ('A' for Active; 'I' for Inactive)
REMARK    1  A    between atoms: C_1  and  C_10
REMARK    2  A    between atoms: C_4  and  C_21
REMARK    3  A    between atoms: N_9  and  C_12
REMARK    4  A    between atoms: C_12  and  C_13
REMARK    5  A    between atoms: C_13  and  C_14
REMARK    6  A    between atoms: N_20  and  C_25
REMARK                            x       y       z     vdW  Elec       q    Type
REMARK                         _______ _______ _______ _____ _____    ______ ____
ROOT
ATOM      1  C   UNL     1      35.283 -17.915 -22.056  0.00  0.00    +0.053 C 
ATOM      2  C   UNL     1      35.041 -16.575 -21.757  0.00  0.00    +0.009 C 
ATOM      3  C   UNL     1      35.047 -18.396 -23.344  0.00  0.00    +0.004 C 
ATOM      4  C   UNL     1      34.565 -15.714 -22.745  0.00  0.00    +0.050 C 
ATOM      5  C   UNL     1      34.330 -16.195 -24.034  0.00  0.00    -0.017 C 
ATOM      6  C   UNL     1      34.571 -17.535 -24.334  0.00  0.00    -0.004 C 
ATOM      7  C   UNL     1      33.820 -15.295 -25.112  0.00  0.00    +0.031 C 
ENDROOT
BRANCH   1  10
ATOM      8  O   UNL     1      36.856 -18.579 -20.448  0.00  0.00    -0.270 OA
ATOM      9  N   UNL     1      34.983 -19.925 -20.703  0.00  0.00    -0.301 N 
ATOM     10  C   UNL     1      35.789 -18.833 -21.003  0.00  0.00    +0.246 C 
ATOM     11  H   UNL     1      34.143 -20.043 -21.204  0.00  0.00    +0.150 HD
BRANCH   9  12
ATOM     12  C   UNL     1      35.324 -20.887 -19.691  0.00  0.00    +0.090 C 
BRANCH  12  13
ATOM     13  C   UNL     1      34.110 -21.676 -19.209  0.00  0.00    +0.021 C 
BRANCH  13  14
ATOM     14  C   UNL     1      34.444 -22.646 -18.089  0.00  0.00    +0.002 C 
ATOM     15  C   UNL     1      33.283 -22.878 -17.128  0.00  0.00    +0.000 C 
ATOM     16  C   UNL     1      35.539 -22.135 -17.158  0.00  0.00    +0.000 C 
ATOM     17  C   UNL     1      33.943 -23.483 -15.893  0.00  0.00    +0.000 C 
ATOM     18  C   UNL     1      35.392 -22.994 -15.906  0.00  0.00    +0.000 C 
ENDBRANCH  13  14
ENDBRANCH  12  13
ENDBRANCH   9  12
ENDBRANCH   1  10
BRANCH   4  21
ATOM     19  O   UNL     1      35.103 -13.744 -21.632  0.00  0.00    -0.270 OA
ATOM     20  N   UNL     1      33.211 -13.726 -23.020  0.00  0.00    -0.279 N 
ATOM     21  C   UNL     1      34.321 -14.318 -22.406  0.00  0.00    +0.249 C 
ATOM     22  H   UNL     1      32.685 -14.313 -23.611  0.00  0.00    +0.155 HD
BRANCH  20  25
ATOM     23  N   UNL     1      31.257 -10.814 -21.840  0.00  0.00    -0.228 NA
ATOM     24  N   UNL     1      31.327  -8.521 -22.485  0.00  0.00    -0.343 N 
ATOM     25  C   UNL     1      32.747 -12.393 -22.903  0.00  0.00    +0.070 C 
ATOM     26  C   UNL     1      33.282 -11.374 -23.683  0.00  0.00    +0.019 C 
ATOM     27  C   UNL     1      31.744 -12.064 -22.004  0.00  0.00    +0.115 C 
ATOM     28  C   UNL     1      32.806 -10.075 -23.542  0.00  0.00    +0.035 C 
ATOM     29  C   UNL     1      31.801  -9.850 -22.615  0.00  0.00    +0.125 C 
ATOM     30  H   UNL     1      30.613  -8.315 -21.838  0.00  0.00    +0.144 HD
ATOM     31  H   UNL     1      31.710  -7.804 -23.040  0.00  0.00    +0.144 HD
ENDBRANCH  20  25
ENDBRANCH   4  21
TORSDOF 6
ENDMDL
MODEL 7
REMARK VINA RESULT:     -10.2      3.400     10.065
REMARK  Name = 24812718
REMARK  6 active torsions:
REMARK  status: ('A' for Active; 'I' for Inactive)
REMARK    1  A    between atoms: C_1  and  C_10
REMARK    2  A    between atoms: C_4  and  C_21
REMARK    3  A    between atoms: N_9  and  C_12
REMARK    4  A    between atoms: C_12  and  C_13
REMARK    5  A    between atoms: C_13  and  C_14
REMARK    6  A    between atoms: N_20  and  C_25
REMARK                            x       y       z     vdW  Elec       q    Type
REMARK                         _______ _______ _______ _____ _____    ______ ____
ROOT
ATOM      1  C   UNL     1      36.205 -22.749 -16.206  0.00  0.00    +0.053 C 
ATOM      2  C   UNL     1      36.523 -22.002 -17.340  0.00  0.00    +0.009 C 
ATOM      3  C   UNL     1      34.905 -23.223 -16.026  0.00  0.00    +0.004 C 
ATOM      4  C   UNL     1      35.544 -21.731 -18.295  0.00  0.00    +0.050 C 
ATOM      5  C   UNL     1      34.245 -22.207 -18.115  0.00  0.00    -0.017 C 
ATOM      6  C   UNL     1      33.925 -22.952 -16.981  0.00  0.00    -0.004 C 
ATOM      7  C   UNL     1      33.176 -21.931 -19.122  0.00  0.00    +0.031 C 
ENDROOT
BRANCH   1  10
ATOM      8  O   UNL     1      37.646 -22.129 -14.462  0.00  0.00    -0.270 OA
ATOM      9  N   UNL     1      37.688 -24.354 -15.118  0.00  0.00    -0.301 N 
ATOM     10  C   UNL     1      37.248 -23.037 -15.188  0.00  0.00    +0.246 C 
ATOM     11  H   UNL     1      37.308 -25.012 -15.744  0.00  0.00    +0.150 HD
BRANCH   9  12
ATOM     12  C   UNL     1      38.673 -24.794 -14.169  0.00  0.00    +0.090 C 
BRANCH  12  13
ATOM     13  C   UNL     1      38.126 -25.847 -13.211  0.00  0.00    +0.021 C 
BRANCH  13  14
ATOM     14  C   UNL     1      37.411 -25.242 -12.015  0.00  0.00    +0.002 C 
ATOM     15  C   UNL     1      35.957 -24.883 -12.301  0.00  0.00    +0.000 C 
ATOM     16  C   UNL     1      37.998 -23.903 -11.579  0.00  0.00    +0.000 C 
ATOM     17  C   UNL     1      35.589 -23.919 -11.177  0.00  0.00    +0.000 C 
ATOM     18  C   UNL     1      36.902 -23.280 -10.721  0.00  0.00    +0.000 C 
ENDBRANCH  13  14
ENDBRANCH  12  13
ENDBRANCH   9  12
ENDBRANCH   1  10
BRANCH   4  21
ATOM     19  O   UNL     1      36.996 -21.162 -20.021  0.00  0.00    -0.270 OA
ATOM     20  N   UNL     1      34.949 -20.022 -19.903  0.00  0.00    -0.279 N 
ATOM     21  C   UNL     1      35.904 -20.950 -19.471  0.00  0.00    +0.249 C 
ATOM     22  H   UNL     1      34.128 -19.968 -19.360  0.00  0.00    +0.155 HD
BRANCH  20  25
ATOM     23  N   UNL     1      35.491 -16.948 -21.892  0.00  0.00    -0.228 NA
ATOM     24  N   UNL     1      35.221 -16.528 -24.221  0.00  0.00    -0.343 N 
ATOM     25  C   UNL     1      35.009 -19.151 -21.018  0.00  0.00    +0.070 C 
ATOM     26  C   UNL     1      34.671 -19.590 -22.293  0.00  0.00    +0.019 C 
ATOM     27  C   UNL     1      35.409 -17.831 -20.871  0.00  0.00    +0.115 C 
ATOM     28  C   UNL     1      34.743 -18.710 -23.367  0.00  0.00    +0.035 C 
ATOM     29  C   UNL     1      35.154 -17.412 -23.116  0.00  0.00    +0.125 C 
ATOM     30  H   UNL     1      35.509 -15.596 -24.089  0.00  0.00    +0.144 HD
ATOM     31  H   UNL     1      34.980 -16.846 -25.121  0.00  0.00    +0.144 HD
ENDBRANCH  20  25
ENDBRANCH   4  21
TORSDOF 6
ENDMDL
MODEL 8
REMARK VINA RESULT:     -10.2      2.530      3.818
REMARK  Name = 24812718
REMARK  6 active torsions:
REMARK  status: ('A' for Active; 'I' for Inactive)
REMARK    1  A    between atoms: C_1  and  C_10
REMARK    2  A    between atoms: C_4  and  C_21
REMARK    3  A    between atoms: N_9  and  C_12
REMARK    4  A    between atoms: C_12  and  C_13
REMARK    5  A    between atoms: C_13  and  C_14
REMARK    6  A    between atoms: N_20  and  C_25
REMARK                            x       y       z     vdW  Elec       q    Type
REMARK                         _______ _______ _______ _____ _____    ______ ____
ROOT
ATOM      1  C   UNL     1      34.440 -20.228 -20.326  0.00  0.00    +0.053 C 
ATOM      2  C   UNL     1      35.338 -20.805 -19.428  0.00  0.00    +0.009 C 
ATOM      3  C   UNL     1      33.079 -20.521 -20.235  0.00  0.00    +0.004 C 
ATOM      4  C   UNL     1      34.876 -21.672 -18.439  0.00  0.00    +0.050 C 
ATOM      5  C   UNL     1      33.515 -21.963 -18.348  0.00  0.00    -0.017 C 
ATOM      6  C   UNL     1      32.616 -21.388 -19.246  0.00  0.00    -0.004 C 
ATOM      7  C   UNL     1      32.992 -22.890 -17.298  0.00  0.00    +0.031 C 
ENDROOT
BRANCH   1  10
ATOM      8  O   UNL     1      35.023 -19.708 -22.537  0.00  0.00    -0.270 OA
ATOM      9  N   UNL     1      35.238 -18.012 -20.969  0.00  0.00    -0.301 N 
ATOM     10  C   UNL     1      34.932 -19.305 -21.381  0.00  0.00    +0.246 C 
ATOM     11  H   UNL     1      35.133 -17.783 -20.017  0.00  0.00    +0.150 HD
BRANCH   9  12
ATOM     12  C   UNL     1      35.701 -16.998 -21.875  0.00  0.00    +0.090 C 
BRANCH  12  13
ATOM     13  C   UNL     1      34.926 -15.692 -21.728  0.00  0.00    +0.021 C 
BRANCH  13  14
ATOM     14  C   UNL     1      34.637 -15.025 -23.061  0.00  0.00    +0.002 C 
ATOM     15  C   UNL     1      33.458 -14.059 -23.008  0.00  0.00    +0.000 C 
ATOM     16  C   UNL     1      34.204 -16.008 -24.145  0.00  0.00    +0.000 C 
ATOM     17  C   UNL     1      33.072 -13.868 -24.471  0.00  0.00    +0.000 C 
ATOM     18  C   UNL     1      33.542 -15.128 -25.200  0.00  0.00    +0.000 C 
ENDBRANCH  13  14
ENDBRANCH  12  13
ENDBRANCH   9  12
ENDBRANCH   1  10
BRANCH   4  21
ATOM     19  O   UNL     1      37.038 -22.264 -17.818  0.00  0.00    -0.270 OA
ATOM     20  N   UNL     1      35.303 -22.758 -16.317  0.00  0.00    -0.279 N 
ATOM     21  C   UNL     1      35.835 -22.259 -17.513  0.00  0.00    +0.249 C 
ATOM     22  H   UNL     1      34.325 -22.683 -16.220  0.00  0.00    +0.155 HD
BRANCH  20  25
ATOM     23  N   UNL     1      37.805 -23.270 -13.639  0.00  0.00    -0.228 NA
ATOM     24  N   UNL     1      38.049 -25.025 -12.046  0.00  0.00    -0.343 N 
ATOM     25  C   UNL     1      35.987 -23.355 -15.231  0.00  0.00    +0.070 C 
ATOM     26  C   UNL     1      35.555 -24.559 -14.684  0.00  0.00    +0.019 C 
ATOM     27  C   UNL     1      37.107 -22.756 -14.677  0.00  0.00    +0.115 C 
ATOM     28  C   UNL     1      36.247 -25.118 -13.616  0.00  0.00    +0.035 C 
ATOM     29  C   UNL     1      37.355 -24.441 -13.135  0.00  0.00    +0.125 C 
ATOM     30  H   UNL     1      38.843 -24.578 -11.672  0.00  0.00    +0.144 HD
ATOM     31  H   UNL     1      37.738 -25.877 -11.664  0.00  0.00    +0.144 HD
ENDBRANCH  20  25
ENDBRANCH   4  21
TORSDOF 6
ENDMDL
MODEL 9
REMARK VINA RESULT:     -10.1      2.612      3.841
REMARK  Name = 24812718
REMARK  6 active torsions:
REMARK  status: ('A' for Active; 'I' for Inactive)
REMARK    1  A    between atoms: C_1  and  C_10
REMARK    2  A    between atoms: C_4  and  C_21
REMARK    3  A    between atoms: N_9  and  C_12
REMARK    4  A    between atoms: C_12  and  C_13
REMARK    5  A    between atoms: C_13  and  C_14
REMARK    6  A    between atoms: N_20  and  C_25
REMARK                            x       y       z     vdW  Elec       q    Type
REMARK                         _______ _______ _______ _____ _____    ______ ____
ROOT
ATOM      1  C   UNL     1      35.409 -20.702 -19.497  0.00  0.00    +0.053 C 
ATOM      2  C   UNL     1      35.992 -21.176 -18.322  0.00  0.00    +0.009 C 
ATOM      3  C   UNL     1      34.152 -21.163 -19.887  0.00  0.00    +0.004 C 
ATOM      4  C   UNL     1      35.319 -22.111 -17.537  0.00  0.00    +0.050 C 
ATOM      5  C   UNL     1      34.061 -22.572 -17.926  0.00  0.00    -0.017 C 
ATOM      6  C   UNL     1      33.477 -22.099 -19.102  0.00  0.00    -0.004 C 
ATOM      7  C   UNL     1      33.318 -23.574 -17.104  0.00  0.00    +0.031 C 
ENDROOT
BRANCH   1  10
ATOM      8  O   UNL     1      37.205 -19.263 -19.948  0.00  0.00    -0.270 OA
ATOM      9  N   UNL     1      35.515 -19.361 -21.535  0.00  0.00    -0.301 N 
ATOM     10  C   UNL     1      36.127 -19.706 -20.334  0.00  0.00    +0.246 C 
ATOM     11  H   UNL     1      34.648 -19.771 -21.757  0.00  0.00    +0.150 HD
BRANCH   9  12
ATOM     12  C   UNL     1      36.097 -18.432 -22.464  0.00  0.00    +0.090 C 
BRANCH  12  13
ATOM     13  C   UNL     1      35.089 -17.399 -22.957  0.00  0.00    +0.021 C 
BRANCH  13  14
ATOM     14  C   UNL     1      35.251 -16.047 -22.283  0.00  0.00    +0.002 C 
ATOM     15  C   UNL     1      34.822 -16.049 -20.820  0.00  0.00    +0.000 C 
ATOM     16  C   UNL     1      34.359 -14.965 -22.883  0.00  0.00    +0.000 C 
ATOM     17  C   UNL     1      34.638 -14.571 -20.489  0.00  0.00    +0.000 C 
ATOM     18  C   UNL     1      34.329 -13.876 -21.816  0.00  0.00    +0.000 C 
ENDBRANCH  13  14
ENDBRANCH  12  13
ENDBRANCH   9  12
ENDBRANCH   1  10
BRANCH   4  21
ATOM     19  O   UNL     1      37.172 -22.810 -16.316  0.00  0.00    -0.270 OA
ATOM     20  N   UNL     1      35.105 -22.737 -15.208  0.00  0.00    -0.279 N 
ATOM     21  C   UNL     1      35.951 -22.589 -16.314  0.00  0.00    +0.249 C 
ATOM     22  H   UNL     1      34.155 -22.523 -15.363  0.00  0.00    +0.155 HD
BRANCH  20  25
ATOM     23  N   UNL     1      34.749 -24.208 -11.831  0.00  0.00    -0.228 NA
ATOM     24  N   UNL     1      36.313 -24.417 -10.046  0.00  0.00    -0.343 N 
ATOM     25  C   UNL     1      35.435 -23.155 -13.896  0.00  0.00    +0.070 C 
ATOM     26  C   UNL     1      36.709 -22.950 -13.376  0.00  0.00    +0.019 C 
ATOM     27  C   UNL     1      34.499 -23.782 -13.090  0.00  0.00    +0.115 C 
ATOM     28  C   UNL     1      37.003 -23.374 -12.085  0.00  0.00    +0.035 C 
ATOM     29  C   UNL     1      35.997 -23.992 -11.360  0.00  0.00    +0.125 C 
ATOM     30  H   UNL     1      35.628 -24.860  -9.494  0.00  0.00    +0.144 HD
ATOM     31  H   UNL     1      37.216 -24.269  -9.684  0.00  0.00    +0.144 HD
ENDBRANCH  20  25
ENDBRANCH   4  21
TORSDOF 6
ENDMDL
