MODEL 1
REMARK VINA RESULT:     -11.4      0.000      0.000
REMARK  Name = 10275777
REMARK  5 active torsions:
REMARK  status: ('A' for Active; 'I' for Inactive)
REMARK    1  A    between atoms: C_1  and  N_19
REMARK    2  A    between atoms: C_2  and  C_11
REMARK    3  A    between atoms: C_5  and  O_34
REMARK    4  A    between atoms: C_20  and  C_22
REMARK    5  A    between atoms: C_23  and  C_30
REMARK                            x       y       z     vdW  Elec       q    Type
REMARK                         _______ _______ _______ _____ _____    ______ ____
ROOT
ATOM      1  C   UNL     1      31.841 -23.132 -16.126  0.00  0.00    +0.055 C 
ATOM      2  C   UNL     1      32.591 -23.736 -15.131  0.00  0.00    +0.070 C 
ATOM      3  C   UNL     1      30.465 -23.286 -16.186  0.00  0.00    +0.018 C 
ATOM      4  C   UNL     1      31.949 -24.518 -14.170  0.00  0.00    +0.043 C 
ATOM      5  C   UNL     1      30.565 -24.683 -14.216  0.00  0.00    +0.139 C 
ATOM      6  C   UNL     1      29.823 -24.067 -15.225  0.00  0.00    +0.038 C 
ENDROOT
BRANCH   2  11
ATOM      7 CL   UNL     1      40.543 -25.383 -14.231  0.00  0.00    -0.081 Cl
ATOM      8  O   UNL     1      34.527 -22.447 -15.157  0.00  0.00    -0.270 OA
ATOM      9  N   UNL     1      34.765 -24.758 -14.832  0.00  0.00    -0.266 N 
ATOM     10  N   UNL     1      36.643 -26.153 -14.481  0.00  0.00    -0.228 NA
ATOM     11  C   UNL     1      34.038 -23.581 -15.051  0.00  0.00    +0.252 C 
ATOM     12  C   UNL     1      36.166 -24.913 -14.687  0.00  0.00    +0.134 C 
ATOM     13  C   UNL     1      36.930 -23.769 -14.767  0.00  0.00    +0.035 C 
ATOM     14  C   UNL     1      38.306 -23.910 -14.626  0.00  0.00    +0.016 C 
ATOM     15  C   UNL     1      37.985 -26.251 -14.348  0.00  0.00    +0.112 C 
ATOM     16  C   UNL     1      38.852 -25.171 -14.412  0.00  0.00    +0.077 C 
ATOM     17  H   UNL     1      34.234 -25.585 -14.770  0.00  0.00    +0.157 HD
ENDBRANCH   2  11
BRANCH   1  19
ATOM     18  O   UNL     1      33.661 -23.911 -18.377  0.00  0.00    -0.270 OA
ATOM     19  N   UNL     1      32.471 -22.334 -17.112  0.00  0.00    -0.280 N 
ATOM     20  C   UNL     1      33.318 -22.740 -18.152  0.00  0.00    +0.249 C 
ATOM     21  H   UNL     1      32.290 -21.367 -17.060  0.00  0.00    +0.155 HD
BRANCH  20  22
ATOM     22  C   UNL     1      33.839 -21.677 -18.998  0.00  0.00    +0.054 C 
ATOM     23  C   UNL     1      34.824 -19.662 -20.598  0.00  0.00    +0.031 C 
ATOM     24  C   UNL     1      32.966 -20.753 -19.573  0.00  0.00    +0.005 C 
ATOM     25  C   UNL     1      35.210 -21.581 -19.233  0.00  0.00    +0.005 C 
ATOM     26  C   UNL     1      33.466 -19.733 -20.383  0.00  0.00    +0.003 C 
ATOM     27  C   UNL     1      35.709 -20.560 -20.043  0.00  0.00    +0.003 C 
BRANCH  23  30
ATOM     28  N   UNL     1      34.932 -18.459 -22.790  0.00  0.00    -0.290 N 
ATOM     29  N   UNL     1      36.206 -17.777 -20.877  0.00  0.00    -0.285 NA
ATOM     30  C   UNL     1      35.356 -18.573 -21.461  0.00  0.00    +0.123 C 
ATOM     31  C   UNL     1      35.497 -17.452 -23.684  0.00  0.00    +0.114 C 
ATOM     32  C   UNL     1      33.968 -19.366 -23.406  0.00  0.00    +0.114 C 
ATOM     33  H   UNL     1      36.606 -17.031 -21.378  0.00  0.00    +0.188 HD
ENDBRANCH  23  30
ENDBRANCH  20  22
ENDBRANCH   1  19
BRANCH   5  34
ATOM     34  O   UNL     1      29.938 -25.444 -13.279  0.00  0.00    -0.471 OA
ATOM     35  C   UNL     1      28.687 -26.024 -13.644  0.00  0.00    +0.252 C 
ENDBRANCH   5  34
TORSDOF 5
ENDMDL
MODEL 2
REMARK VINA RESULT:      -9.7     12.434     18.166
REMARK  Name = 10275777
REMARK  5 active torsions:
REMARK  status: ('A' for Active; 'I' for Inactive)
REMARK    1  A    between atoms: C_1  and  N_19
REMARK    2  A    between atoms: C_2  and  C_11
REMARK    3  A    between atoms: C_5  and  O_34
REMARK    4  A    between atoms: C_20  and  C_22
REMARK    5  A    between atoms: C_23  and  C_30
REMARK                            x       y       z     vdW  Elec       q    Type
REMARK                         _______ _______ _______ _____ _____    ______ ____
ROOT
ATOM      1  C   UNL     1      32.293  -6.148 -22.755  0.00  0.00    +0.055 C 
ATOM      2  C   UNL     1      32.621  -5.288 -23.791  0.00  0.00    +0.070 C 
ATOM      3  C   UNL     1      31.649  -5.692 -21.616  0.00  0.00    +0.018 C 
ATOM      4  C   UNL     1      32.298  -3.935 -23.684  0.00  0.00    +0.043 C 
ATOM      5  C   UNL     1      31.650  -3.461 -22.544  0.00  0.00    +0.139 C 
ATOM      6  C   UNL     1      31.326  -4.339 -21.510  0.00  0.00    +0.038 C 
ENDROOT
BRANCH   2  11
ATOM      7 CL   UNL     1      37.960  -5.953 -29.939  0.00  0.00    -0.081 Cl
ATOM      8  O   UNL     1      32.787  -6.675 -25.651  0.00  0.00    -0.270 OA
ATOM      9  N   UNL     1      34.476  -5.078 -25.332  0.00  0.00    -0.266 N 
ATOM     10  N   UNL     1      36.415  -4.512 -26.564  0.00  0.00    -0.228 NA
ATOM     11  C   UNL     1      33.294  -5.752 -24.997  0.00  0.00    +0.252 C 
ATOM     12  C   UNL     1      35.323  -5.289 -26.448  0.00  0.00    +0.134 C 
ATOM     13  C   UNL     1      34.954  -6.280 -27.330  0.00  0.00    +0.035 C 
ATOM     14  C   UNL     1      35.779  -6.495 -28.429  0.00  0.00    +0.016 C 
ATOM     15  C   UNL     1      37.191  -4.749 -27.644  0.00  0.00    +0.112 C 
ATOM     16  C   UNL     1      36.921  -5.719 -28.597  0.00  0.00    +0.077 C 
ATOM     17  H   UNL     1      34.753  -4.364 -24.712  0.00  0.00    +0.157 HD
ENDBRANCH   2  11
BRANCH   1  19
ATOM     18  O   UNL     1      30.523  -8.517 -23.246  0.00  0.00    -0.270 OA
ATOM     19  N   UNL     1      32.611  -7.525 -22.841  0.00  0.00    -0.280 N 
ATOM     20  C   UNL     1      31.749  -8.606 -23.074  0.00  0.00    +0.249 C 
ATOM     21  H   UNL     1      33.561  -7.753 -22.722  0.00  0.00    +0.155 HD
BRANCH  20  22
ATOM     22  C   UNL     1      32.369  -9.922 -23.080  0.00  0.00    +0.054 C 
ATOM     23  C   UNL     1      33.542 -12.415 -23.093  0.00  0.00    +0.031 C 
ATOM     24  C   UNL     1      31.755 -10.985 -22.419  0.00  0.00    +0.005 C 
ATOM     25  C   UNL     1      33.578 -10.120 -23.747  0.00  0.00    +0.005 C 
ATOM     26  C   UNL     1      32.349 -12.248 -22.427  0.00  0.00    +0.003 C 
ATOM     27  C   UNL     1      34.172 -11.383 -23.755  0.00  0.00    +0.003 C 
BRANCH  23  30
ATOM     28  N   UNL     1      33.911 -14.656 -24.144  0.00  0.00    -0.290 N 
ATOM     29  N   UNL     1      34.965 -14.001 -22.094  0.00  0.00    -0.285 NA
ATOM     30  C   UNL     1      34.175 -13.762 -23.101  0.00  0.00    +0.123 C 
ATOM     31  C   UNL     1      34.453 -16.012 -24.139  0.00  0.00    +0.114 C 
ATOM     32  C   UNL     1      33.026 -14.346 -25.264  0.00  0.00    +0.114 C 
ATOM     33  H   UNL     1      35.424 -14.869 -22.023  0.00  0.00    +0.188 HD
ENDBRANCH  23  30
ENDBRANCH  20  22
ENDBRANCH   1  19
BRANCH   5  34
ATOM     34  O   UNL     1      31.334  -2.141 -22.440  0.00  0.00    -0.471 OA
ATOM     35  C   UNL     1      30.034  -1.822 -21.945  0.00  0.00    +0.252 C 
ENDBRANCH   5  34
TORSDOF 5
ENDMDL
