MODEL 1
REMARK VINA RESULT:     -11.2      0.000      0.000
REMARK  Name = 60195662
REMARK  7 active torsions:
REMARK  status: ('A' for Active; 'I' for Inactive)
REMARK    1  A    between atoms: N_2  and  C_14
REMARK    2  A    between atoms: N_2  and  C_23
REMARK    3  A    between atoms: C_3  and  C_5
REMARK    4  A    between atoms: C_14  and  C_17
REMARK    5  A    between atoms: C_23  and  C_24
REMARK    6  A    between atoms: C_27  and  C_31
REMARK    7  A    between atoms: C_31  and  O_32
REMARK                            x       y       z     vdW  Elec       q    Type
REMARK                         _______ _______ _______ _____ _____    ______ ____
ROOT
ATOM      1  O   UNL     1      33.242 -23.935 -17.188  0.00  0.00    -0.270 OA
ATOM      2  N   UNL     1      34.550 -23.233 -15.382  0.00  0.00    -0.270 N 
ATOM      3  C   UNL     1      34.141 -23.215 -16.729  0.00  0.00    +0.251 C 
ENDROOT
BRANCH   3   5
ATOM      4  N   UNL     1      36.840 -21.239 -18.386  0.00  0.00    -0.248 NA
ATOM      5  C   UNL     1      34.808 -22.318 -17.657  0.00  0.00    +0.072 C 
ATOM      6  C   UNL     1      34.109 -21.688 -18.676  0.00  0.00    +0.003 C 
ATOM      7  C   UNL     1      34.776 -20.827 -19.559  0.00  0.00    -0.004 C 
ATOM      8  C   UNL     1      36.159 -22.062 -17.556  0.00  0.00    +0.103 C 
ATOM      9  C   UNL     1      36.160 -20.629 -19.375  0.00  0.00    +0.060 C 
ATOM     10  C   UNL     1      34.097 -20.173 -20.601  0.00  0.00    +0.053 C 
ATOM     11  C   UNL     1      36.821 -19.773 -20.251  0.00  0.00    +0.071 C 
ATOM     12  C   UNL     1      34.783 -19.322 -21.464  0.00  0.00    -0.026 C 
ATOM     13  C   UNL     1      36.147 -19.122 -21.289  0.00  0.00    -0.024 C 
ENDBRANCH   3   5
BRANCH   2  14
ATOM     14  C   UNL     1      33.937 -24.118 -14.394  0.00  0.00    +0.099 C 
ATOM     15  C   UNL     1      34.446 -25.546 -14.580  0.00  0.00    +0.026 C 
BRANCH  14  17
ATOM     16  F   UNL     1      28.305 -23.795 -14.544  0.00  0.00    -0.204 F 
ATOM     17  C   UNL     1      32.426 -24.032 -14.433  0.00  0.00    -0.004 C 
ATOM     18  C   UNL     1      31.659 -25.196 -14.387  0.00  0.00    -0.000 C 
ATOM     19  C   UNL     1      31.801 -22.787 -14.517  0.00  0.00    -0.000 C 
ATOM     20  C   UNL     1      30.267 -25.116 -14.425  0.00  0.00    +0.029 C 
ATOM     21  C   UNL     1      30.409 -22.708 -14.554  0.00  0.00    +0.029 C 
ATOM     22  C   UNL     1      29.642 -23.872 -14.508  0.00  0.00    +0.140 C 
ENDBRANCH  14  17
ENDBRANCH   2  14
BRANCH   2  23
ATOM     23  C   UNL     1      35.610 -22.370 -14.883  0.00  0.00    +0.121 C 
BRANCH  23  24
ATOM     24  C   UNL     1      36.588 -23.120 -14.023  0.00  0.00    -0.002 C 
ATOM     25  C   UNL     1      37.670 -23.776 -14.609  0.00  0.00    +0.004 C 
ATOM     26  C   UNL     1      36.414 -23.159 -12.640  0.00  0.00    -0.003 C 
ATOM     27  C   UNL     1      38.579 -24.471 -13.811  0.00  0.00    +0.075 C 
ATOM     28  C   UNL     1      37.322 -23.854 -11.842  0.00  0.00    -0.000 C 
ATOM     29  C   UNL     1      38.405 -24.510 -12.428  0.00  0.00    +0.006 C 
BRANCH  27  31
ATOM     30  O   UNL     1      40.898 -24.932 -14.174  0.00  0.00    -0.245 OA
ATOM     31  C   UNL     1      39.708 -25.155 -14.421  0.00  0.00    +0.338 C 
BRANCH  31  32
ATOM     32  O   UNL     1      39.321 -26.098 -15.322  0.00  0.00    -0.477 OA
ATOM     33  H   UNL     1      39.938 -26.433 -15.944  0.00  0.00    +0.295 HD
ENDBRANCH  31  32
ENDBRANCH  27  31
ENDBRANCH  23  24
ENDBRANCH   2  23
TORSDOF 7
ENDMDL
MODEL 2
REMARK VINA RESULT:     -11.2      2.946      6.453
REMARK  Name = 60195662
REMARK  7 active torsions:
REMARK  status: ('A' for Active; 'I' for Inactive)
REMARK    1  A    between atoms: N_2  and  C_14
REMARK    2  A    between atoms: N_2  and  C_23
REMARK    3  A    between atoms: C_3  and  C_5
REMARK    4  A    between atoms: C_14  and  C_17
REMARK    5  A    between atoms: C_23  and  C_24
REMARK    6  A    between atoms: C_27  and  C_31
REMARK    7  A    between atoms: C_31  and  O_32
REMARK                            x       y       z     vdW  Elec       q    Type
REMARK                         _______ _______ _______ _____ _____    ______ ____
ROOT
ATOM      1  O   UNL     1      35.798 -24.743 -15.691  0.00  0.00    -0.270 OA
ATOM      2  N   UNL     1      34.206 -23.785 -14.272  0.00  0.00    -0.270 N 
ATOM      3  C   UNL     1      34.856 -23.958 -15.510  0.00  0.00    +0.251 C 
ENDROOT
BRANCH   3   5
ATOM      4  N   UNL     1      32.629 -22.414 -18.077  0.00  0.00    -0.248 NA
ATOM      5  C   UNL     1      34.423 -23.170 -16.650  0.00  0.00    +0.072 C 
ATOM      6  C   UNL     1      35.328 -22.435 -17.401  0.00  0.00    +0.003 C 
ATOM      7  C   UNL     1      34.886 -21.682 -18.497  0.00  0.00    -0.004 C 
ATOM      8  C   UNL     1      33.097 -23.127 -17.027  0.00  0.00    +0.103 C 
ATOM      9  C   UNL     1      33.510 -21.701 -18.804  0.00  0.00    +0.060 C 
ATOM     10  C   UNL     1      35.777 -20.926 -19.278  0.00  0.00    +0.053 C 
ATOM     11  C   UNL     1      33.071 -20.953 -19.893  0.00  0.00    +0.071 C 
ATOM     12  C   UNL     1      35.311 -20.187 -20.363  0.00  0.00    -0.026 C 
ATOM     13  C   UNL     1      33.956 -20.201 -20.670  0.00  0.00    -0.024 C 
ENDBRANCH   3   5
BRANCH   2  14
ATOM     14  C   UNL     1      34.595 -24.531 -13.077  0.00  0.00    +0.099 C 
ATOM     15  C   UNL     1      34.238 -23.737 -11.822  0.00  0.00    +0.026 C 
BRANCH  14  17
ATOM     16  F   UNL     1      40.043 -25.990 -13.233  0.00  0.00    -0.204 F 
ATOM     17  C   UNL     1      36.056 -24.922 -13.119  0.00  0.00    -0.004 C 
ATOM     18  C   UNL     1      36.419 -26.233 -13.429  0.00  0.00    -0.000 C 
ATOM     19  C   UNL     1      37.041 -23.971 -12.848  0.00  0.00    -0.000 C 
ATOM     20  C   UNL     1      37.766 -26.594 -13.467  0.00  0.00    +0.029 C 
ATOM     21  C   UNL     1      38.388 -24.332 -12.887  0.00  0.00    +0.029 C 
ATOM     22  C   UNL     1      38.751 -25.643 -13.196  0.00  0.00    +0.140 C 
ENDBRANCH  14  17
ENDBRANCH   2  14
BRANCH   2  23
ATOM     23  C   UNL     1      33.102 -22.851 -14.101  0.00  0.00    +0.121 C 
BRANCH  23  24
ATOM     24  C   UNL     1      31.768 -23.528 -14.230  0.00  0.00    -0.002 C 
ATOM     25  C   UNL     1      30.687 -22.838 -14.779  0.00  0.00    +0.004 C 
ATOM     26  C   UNL     1      31.610 -24.846 -13.803  0.00  0.00    -0.003 C 
ATOM     27  C   UNL     1      29.447 -23.467 -14.900  0.00  0.00    +0.075 C 
ATOM     28  C   UNL     1      30.370 -25.474 -13.924  0.00  0.00    -0.000 C 
ATOM     29  C   UNL     1      29.289 -24.785 -14.473  0.00  0.00    +0.006 C 
BRANCH  27  31
ATOM     30  O   UNL     1      27.175 -22.727 -15.011  0.00  0.00    -0.245 OA
ATOM     31  C   UNL     1      28.321 -22.748 -15.473  0.00  0.00    +0.338 C 
BRANCH  31  32
ATOM     32  O   UNL     1      28.655 -22.074 -16.608  0.00  0.00    -0.477 OA
ATOM     33  H   UNL     1      27.991 -21.840 -17.227  0.00  0.00    +0.295 HD
ENDBRANCH  31  32
ENDBRANCH  27  31
ENDBRANCH  23  24
ENDBRANCH   2  23
TORSDOF 7
ENDMDL
MODEL 3
REMARK VINA RESULT:     -11.0      1.788      2.337
REMARK  Name = 60195662
REMARK  7 active torsions:
REMARK  status: ('A' for Active; 'I' for Inactive)
REMARK    1  A    between atoms: N_2  and  C_14
REMARK    2  A    between atoms: N_2  and  C_23
REMARK    3  A    between atoms: C_3  and  C_5
REMARK    4  A    between atoms: C_14  and  C_17
REMARK    5  A    between atoms: C_23  and  C_24
REMARK    6  A    between atoms: C_27  and  C_31
REMARK    7  A    between atoms: C_31  and  O_32
REMARK                            x       y       z     vdW  Elec       q    Type
REMARK                         _______ _______ _______ _____ _____    ______ ____
ROOT
ATOM      1  O   UNL     1      32.703 -23.894 -17.271  0.00  0.00    -0.270 OA
ATOM      2  N   UNL     1      33.900 -23.232 -15.375  0.00  0.00    -0.270 N 
ATOM      3  C   UNL     1      33.606 -23.222 -16.753  0.00  0.00    +0.251 C 
ENDROOT
BRANCH   3   5
ATOM      4  N   UNL     1      36.573 -21.537 -18.266  0.00  0.00    -0.248 NA
ATOM      5  C   UNL     1      34.406 -22.395 -17.638  0.00  0.00    +0.072 C 
ATOM      6  C   UNL     1      33.825 -21.682 -18.677  0.00  0.00    +0.003 C 
ATOM      7  C   UNL     1      34.619 -20.891 -19.518  0.00  0.00    -0.004 C 
ATOM      8  C   UNL     1      35.772 -22.289 -17.477  0.00  0.00    +0.103 C 
ATOM      9  C   UNL     1      36.006 -20.846 -19.273  0.00  0.00    +0.060 C 
ATOM     10  C   UNL     1      34.060 -20.157 -20.579  0.00  0.00    +0.053 C 
ATOM     11  C   UNL     1      36.794 -20.059 -20.109  0.00  0.00    +0.071 C 
ATOM     12  C   UNL     1      34.872 -19.378 -21.400  0.00  0.00    -0.026 C 
ATOM     13  C   UNL     1      36.241 -19.330 -21.165  0.00  0.00    -0.024 C 
ENDBRANCH   3   5
BRANCH   2  14
ATOM     14  C   UNL     1      33.149 -24.050 -14.425  0.00  0.00    +0.099 C 
ATOM     15  C   UNL     1      33.578 -25.512 -14.537  0.00  0.00    +0.026 C 
BRANCH  14  17
ATOM     16  F   UNL     1      27.583 -23.371 -15.055  0.00  0.00    -0.204 F 
ATOM     17  C   UNL     1      31.656 -23.868 -14.595  0.00  0.00    -0.004 C 
ATOM     18  C   UNL     1      31.095 -22.594 -14.508  0.00  0.00    -0.000 C 
ATOM     19  C   UNL     1      30.841 -24.975 -14.836  0.00  0.00    -0.000 C 
ATOM     20  C   UNL     1      29.719 -22.426 -14.664  0.00  0.00    +0.029 C 
ATOM     21  C   UNL     1      29.466 -24.807 -14.992  0.00  0.00    +0.029 C 
ATOM     22  C   UNL     1      28.904 -23.533 -14.906  0.00  0.00    +0.140 C 
ENDBRANCH  14  17
ENDBRANCH   2  14
BRANCH   2  23
ATOM     23  C   UNL     1      34.970 -22.426 -14.806  0.00  0.00    +0.121 C 
BRANCH  23  24
ATOM     24  C   UNL     1      35.888 -23.242 -13.941  0.00  0.00    -0.002 C 
ATOM     25  C   UNL     1      35.601 -23.411 -12.586  0.00  0.00    +0.004 C 
ATOM     26  C   UNL     1      37.026 -23.831 -14.491  0.00  0.00    -0.003 C 
ATOM     27  C   UNL     1      36.453 -24.170 -11.782  0.00  0.00    +0.075 C 
ATOM     28  C   UNL     1      37.877 -24.589 -13.688  0.00  0.00    -0.000 C 
ATOM     29  C   UNL     1      37.591 -24.759 -12.333  0.00  0.00    +0.006 C 
BRANCH  27  31
ATOM     30  O   UNL     1      36.575 -23.635  -9.454  0.00  0.00    -0.245 OA
ATOM     31  C   UNL     1      36.153 -24.348 -10.371  0.00  0.00    +0.338 C 
BRANCH  31  32
ATOM     32  O   UNL     1      35.334 -25.411 -10.142  0.00  0.00    -0.477 OA
ATOM     33  H   UNL     1      35.287 -26.109 -10.765  0.00  0.00    +0.295 HD
ENDBRANCH  31  32
ENDBRANCH  27  31
ENDBRANCH  23  24
ENDBRANCH   2  23
TORSDOF 7
ENDMDL
MODEL 4
REMARK VINA RESULT:     -10.2     11.545     15.255
REMARK  Name = 60195662
REMARK  7 active torsions:
REMARK  status: ('A' for Active; 'I' for Inactive)
REMARK    1  A    between atoms: N_2  and  C_14
REMARK    2  A    between atoms: N_2  and  C_23
REMARK    3  A    between atoms: C_3  and  C_5
REMARK    4  A    between atoms: C_14  and  C_17
REMARK    5  A    between atoms: C_23  and  C_24
REMARK    6  A    between atoms: C_27  and  C_31
REMARK    7  A    between atoms: C_31  and  O_32
REMARK                            x       y       z     vdW  Elec       q    Type
REMARK                         _______ _______ _______ _____ _____    ______ ____
ROOT
ATOM      1  O   UNL     1      34.491 -11.932 -23.385  0.00  0.00    -0.270 OA
ATOM      2  N   UNL     1      32.395 -11.861 -22.353  0.00  0.00    -0.270 N 
ATOM      3  C   UNL     1      33.441 -11.325 -23.129  0.00  0.00    +0.251 C 
ENDROOT
BRANCH   3   5
ATOM      4  N   UNL     1      31.971  -8.335 -24.810  0.00  0.00    -0.248 NA
ATOM      5  C   UNL     1      33.310  -9.980 -23.658  0.00  0.00    +0.072 C 
ATOM      6  C   UNL     1      34.339  -9.057 -23.541  0.00  0.00    +0.003 C 
ATOM      7  C   UNL     1      34.188  -7.764 -24.060  0.00  0.00    -0.004 C 
ATOM      8  C   UNL     1      32.157  -9.573 -24.296  0.00  0.00    +0.103 C 
ATOM      9  C   UNL     1      32.971  -7.442 -24.695  0.00  0.00    +0.060 C 
ATOM     10  C   UNL     1      35.212  -6.806 -23.958  0.00  0.00    +0.053 C 
ATOM     11  C   UNL     1      32.823  -6.157 -25.211  0.00  0.00    +0.071 C 
ATOM     12  C   UNL     1      35.036  -5.528 -24.483  0.00  0.00    -0.026 C 
ATOM     13  C   UNL     1      33.839  -5.204 -25.110  0.00  0.00    -0.024 C 
ENDBRANCH   3   5
BRANCH   2  14
ATOM     14  C   UNL     1      32.461 -13.201 -21.774  0.00  0.00    +0.099 C 
ATOM     15  C   UNL     1      33.048 -13.137 -20.366  0.00  0.00    +0.026 C 
BRANCH  14  17
ATOM     16  F   UNL     1      35.269 -16.765 -25.129  0.00  0.00    -0.204 F 
ATOM     17  C   UNL     1      33.215 -14.156 -22.674  0.00  0.00    -0.004 C 
ATOM     18  C   UNL     1      32.848 -14.290 -24.013  0.00  0.00    -0.000 C 
ATOM     19  C   UNL     1      34.276 -14.905 -22.164  0.00  0.00    -0.000 C 
ATOM     20  C   UNL     1      33.541 -15.170 -24.843  0.00  0.00    +0.029 C 
ATOM     21  C   UNL     1      34.970 -15.786 -22.994  0.00  0.00    +0.029 C 
ATOM     22  C   UNL     1      34.603 -15.919 -24.333  0.00  0.00    +0.140 C 
ENDBRANCH  14  17
ENDBRANCH   2  14
BRANCH   2  23
ATOM     23  C   UNL     1      31.177 -11.114 -22.075  0.00  0.00    +0.121 C 
BRANCH  23  24
ATOM     24  C   UNL     1      31.308 -10.262 -20.844  0.00  0.00    -0.002 C 
ATOM     25  C   UNL     1      31.940  -9.022 -20.920  0.00  0.00    +0.004 C 
ATOM     26  C   UNL     1      30.796 -10.711 -19.628  0.00  0.00    -0.003 C 
ATOM     27  C   UNL     1      32.061  -8.230 -19.777  0.00  0.00    +0.075 C 
ATOM     28  C   UNL     1      30.916  -9.920 -18.486  0.00  0.00    -0.000 C 
ATOM     29  C   UNL     1      31.549  -8.679 -18.560  0.00  0.00    +0.006 C 
BRANCH  27  31
ATOM     30  O   UNL     1      32.361  -5.992 -20.568  0.00  0.00    -0.245 OA
ATOM     31  C   UNL     1      32.720  -6.936 -19.856  0.00  0.00    +0.338 C 
BRANCH  31  32
ATOM     32  O   UNL     1      33.808  -6.855 -19.042  0.00  0.00    -0.477 OA
ATOM     33  H   UNL     1      34.516  -7.460 -19.145  0.00  0.00    +0.295 HD
ENDBRANCH  31  32
ENDBRANCH  27  31
ENDBRANCH  23  24
ENDBRANCH   2  23
TORSDOF 7
ENDMDL
MODEL 5
REMARK VINA RESULT:      -9.9     11.993     16.614
REMARK  Name = 60195662
REMARK  7 active torsions:
REMARK  status: ('A' for Active; 'I' for Inactive)
REMARK    1  A    between atoms: N_2  and  C_14
REMARK    2  A    between atoms: N_2  and  C_23
REMARK    3  A    between atoms: C_3  and  C_5
REMARK    4  A    between atoms: C_14  and  C_17
REMARK    5  A    between atoms: C_23  and  C_24
REMARK    6  A    between atoms: C_27  and  C_31
REMARK    7  A    between atoms: C_31  and  O_32
REMARK                            x       y       z     vdW  Elec       q    Type
REMARK                         _______ _______ _______ _____ _____    ______ ____
ROOT
ATOM      1  O   UNL     1      30.755 -11.047 -21.074  0.00  0.00    -0.270 OA
ATOM      2  N   UNL     1      31.597  -9.848 -22.897  0.00  0.00    -0.270 N 
ATOM      3  C   UNL     1      31.515 -10.971 -22.051  0.00  0.00    +0.251 C 
ENDROOT
BRANCH   3   5
ATOM      4  N   UNL     1      33.572 -13.478 -23.900  0.00  0.00    -0.248 NA
ATOM      5  C   UNL     1      32.373 -12.114 -22.309  0.00  0.00    +0.072 C 
ATOM      6  C   UNL     1      32.818 -12.928 -21.278  0.00  0.00    +0.003 C 
ATOM      7  C   UNL     1      33.646 -14.025 -21.554  0.00  0.00    -0.004 C 
ATOM      8  C   UNL     1      32.775 -12.430 -23.591  0.00  0.00    +0.103 C 
ATOM      9  C   UNL     1      34.003 -14.266 -22.897  0.00  0.00    +0.060 C 
ATOM     10  C   UNL     1      34.114 -14.868 -20.532  0.00  0.00    +0.053 C 
ATOM     11  C   UNL     1      34.825 -15.356 -23.170  0.00  0.00    +0.071 C 
ATOM     12  C   UNL     1      34.935 -15.952 -20.834  0.00  0.00    -0.026 C 
ATOM     13  C   UNL     1      35.291 -16.196 -22.155  0.00  0.00    -0.024 C 
ENDBRANCH   3   5
BRANCH   2  14
ATOM     14  C   UNL     1      30.777  -8.656 -22.690  0.00  0.00    +0.099 C 
ATOM     15  C   UNL     1      30.360  -8.066 -24.036  0.00  0.00    +0.026 C 
BRANCH  14  17
ATOM     16  F   UNL     1      33.394  -4.896 -19.396  0.00  0.00    -0.204 F 
ATOM     17  C   UNL     1      31.479  -7.648 -21.806  0.00  0.00    -0.004 C 
ATOM     18  C   UNL     1      31.377  -6.285 -22.086  0.00  0.00    -0.000 C 
ATOM     19  C   UNL     1      32.228  -8.081 -20.711  0.00  0.00    -0.000 C 
ATOM     20  C   UNL     1      32.024  -5.355 -21.272  0.00  0.00    +0.029 C 
ATOM     21  C   UNL     1      32.874  -7.151 -19.897  0.00  0.00    +0.029 C 
ATOM     22  C   UNL     1      32.773  -5.788 -20.177  0.00  0.00    +0.140 C 
ENDBRANCH  14  17
ENDBRANCH   2  14
BRANCH   2  23
ATOM     23  C   UNL     1      32.505  -9.800 -24.034  0.00  0.00    +0.121 C 
BRANCH  23  24
ATOM     24  C   UNL     1      33.443  -8.630 -23.955  0.00  0.00    -0.002 C 
ATOM     25  C   UNL     1      33.224  -7.507 -24.752  0.00  0.00    +0.004 C 
ATOM     26  C   UNL     1      34.532  -8.666 -23.084  0.00  0.00    -0.003 C 
ATOM     27  C   UNL     1      34.095  -6.419 -24.679  0.00  0.00    +0.075 C 
ATOM     28  C   UNL     1      35.402  -7.579 -23.011  0.00  0.00    -0.000 C 
ATOM     29  C   UNL     1      35.184  -6.455 -23.808  0.00  0.00    +0.006 C 
BRANCH  27  31
ATOM     30  O   UNL     1      34.743  -4.478 -25.918  0.00  0.00    -0.245 OA
ATOM     31  C   UNL     1      33.867  -5.247 -25.509  0.00  0.00    +0.338 C 
BRANCH  31  32
ATOM     32  O   UNL     1      32.551  -5.068 -25.806  0.00  0.00    -0.477 OA
ATOM     33  H   UNL     1      32.243  -5.213 -26.680  0.00  0.00    +0.295 HD
ENDBRANCH  31  32
ENDBRANCH  27  31
ENDBRANCH  23  24
ENDBRANCH   2  23
TORSDOF 7
ENDMDL
MODEL 6
REMARK VINA RESULT:      -9.8     12.846     17.447
REMARK  Name = 60195662
REMARK  7 active torsions:
REMARK  status: ('A' for Active; 'I' for Inactive)
REMARK    1  A    between atoms: N_2  and  C_14
REMARK    2  A    between atoms: N_2  and  C_23
REMARK    3  A    between atoms: C_3  and  C_5
REMARK    4  A    between atoms: C_14  and  C_17
REMARK    5  A    between atoms: C_23  and  C_24
REMARK    6  A    between atoms: C_27  and  C_31
REMARK    7  A    between atoms: C_31  and  O_32
REMARK                            x       y       z     vdW  Elec       q    Type
REMARK                         _______ _______ _______ _____ _____    ______ ____
ROOT
ATOM      1  O   UNL     1      31.713  -8.817 -25.635  0.00  0.00    -0.270 OA
ATOM      2  N   UNL     1      33.357  -7.774 -24.342  0.00  0.00    -0.270 N 
ATOM      3  C   UNL     1      32.450  -8.810 -24.639  0.00  0.00    +0.251 C 
ENDROOT
BRANCH   3   5
ATOM      4  N   UNL     1      31.111 -11.097 -22.011  0.00  0.00    -0.248 NA
ATOM      5  C   UNL     1      32.346  -9.938 -23.731  0.00  0.00    +0.072 C 
ATOM      6  C   UNL     1      33.325 -10.919 -23.687  0.00  0.00    +0.003 C 
ATOM      7  C   UNL     1      33.200 -11.999 -22.802  0.00  0.00    -0.004 C 
ATOM      8  C   UNL     1      31.269 -10.071 -22.879  0.00  0.00    +0.103 C 
ATOM      9  C   UNL     1      32.062 -12.048 -21.971  0.00  0.00    +0.060 C 
ATOM     10  C   UNL     1      34.174 -13.010 -22.734  0.00  0.00    +0.053 C 
ATOM     11  C   UNL     1      31.940 -13.121 -21.091  0.00  0.00    +0.071 C 
ATOM     12  C   UNL     1      34.026 -14.072 -21.845  0.00  0.00    -0.026 C 
ATOM     13  C   UNL     1      32.907 -14.127 -21.023  0.00  0.00    -0.024 C 
ENDBRANCH   3   5
BRANCH   2  14
ATOM     14  C   UNL     1      33.507  -6.600 -25.199  0.00  0.00    +0.099 C 
ATOM     15  C   UNL     1      34.970  -6.161 -25.240  0.00  0.00    +0.026 C 
BRANCH  14  17
ATOM     16  F   UNL     1      30.043  -2.435 -23.622  0.00  0.00    -0.204 F 
ATOM     17  C   UNL     1      32.578  -5.483 -24.777  0.00  0.00    -0.004 C 
ATOM     18  C   UNL     1      33.052  -4.173 -24.699  0.00  0.00    -0.000 C 
ATOM     19  C   UNL     1      31.247  -5.763 -24.464  0.00  0.00    -0.000 C 
ATOM     20  C   UNL     1      32.196  -3.143 -24.309  0.00  0.00    +0.029 C 
ATOM     21  C   UNL     1      30.391  -4.733 -24.074  0.00  0.00    +0.029 C 
ATOM     22  C   UNL     1      30.865  -3.423 -23.996  0.00  0.00    +0.140 C 
ENDBRANCH  14  17
ENDBRANCH   2  14
BRANCH   2  23
ATOM     23  C   UNL     1      34.206  -7.803 -23.159  0.00  0.00    +0.121 C 
BRANCH  23  24
ATOM     24  C   UNL     1      33.436  -7.495 -21.907  0.00  0.00    -0.002 C 
ATOM     25  C   UNL     1      33.077  -8.526 -21.039  0.00  0.00    +0.004 C 
ATOM     26  C   UNL     1      33.082  -6.179 -21.611  0.00  0.00    -0.003 C 
ATOM     27  C   UNL     1      32.363  -8.240 -19.874  0.00  0.00    +0.075 C 
ATOM     28  C   UNL     1      32.368  -5.893 -20.448  0.00  0.00    -0.000 C 
ATOM     29  C   UNL     1      32.009  -6.924 -19.579  0.00  0.00    +0.006 C 
BRANCH  27  31
ATOM     30  O   UNL     1      32.642  -9.683 -17.987  0.00  0.00    -0.245 OA
ATOM     31  C   UNL     1      31.989  -9.314 -18.969  0.00  0.00    +0.338 C 
BRANCH  31  32
ATOM     32  O   UNL     1      30.808  -9.899 -19.312  0.00  0.00    -0.477 OA
ATOM     33  H   UNL     1      30.396 -10.502 -18.726  0.00  0.00    +0.295 HD
ENDBRANCH  31  32
ENDBRANCH  27  31
ENDBRANCH  23  24
ENDBRANCH   2  23
TORSDOF 7
ENDMDL
MODEL 7
REMARK VINA RESULT:      -9.7     14.016     18.682
REMARK  Name = 60195662
REMARK  7 active torsions:
REMARK  status: ('A' for Active; 'I' for Inactive)
REMARK    1  A    between atoms: N_2  and  C_14
REMARK    2  A    between atoms: N_2  and  C_23
REMARK    3  A    between atoms: C_3  and  C_5
REMARK    4  A    between atoms: C_14  and  C_17
REMARK    5  A    between atoms: C_23  and  C_24
REMARK    6  A    between atoms: C_27  and  C_31
REMARK    7  A    between atoms: C_31  and  O_32
REMARK                            x       y       z     vdW  Elec       q    Type
REMARK                         _______ _______ _______ _____ _____    ______ ____
ROOT
ATOM      1  O   UNL     1      31.629  -8.426 -25.827  0.00  0.00    -0.270 OA
ATOM      2  N   UNL     1      33.343  -7.347 -24.658  0.00  0.00    -0.270 N 
ATOM      3  C   UNL     1      32.380  -8.358 -24.843  0.00  0.00    +0.251 C 
ENDROOT
BRANCH   3   5
ATOM      4  N   UNL     1      31.081 -10.196 -21.865  0.00  0.00    -0.248 NA
ATOM      5  C   UNL     1      32.230  -9.384 -23.826  0.00  0.00    +0.072 C 
ATOM      6  C   UNL     1      33.045 -10.506 -23.811  0.00  0.00    +0.003 C 
ATOM      7  C   UNL     1      32.881 -11.483 -22.819  0.00  0.00    -0.004 C 
ATOM      8  C   UNL     1      31.272  -9.277 -22.839  0.00  0.00    +0.103 C 
ATOM      9  C   UNL     1      31.873 -11.284 -21.852  0.00  0.00    +0.060 C 
ATOM     10  C   UNL     1      33.690 -12.631 -22.776  0.00  0.00    +0.053 C 
ATOM     11  C   UNL     1      31.711 -12.254 -20.867  0.00  0.00    +0.071 C 
ATOM     12  C   UNL     1      33.506 -13.586 -21.778  0.00  0.00    -0.026 C 
ATOM     13  C   UNL     1      32.514 -13.396 -20.823  0.00  0.00    -0.024 C 
ENDBRANCH   3   5
BRANCH   2  14
ATOM     14  C   UNL     1      33.541  -6.274 -25.630  0.00  0.00    +0.099 C 
ATOM     15  C   UNL     1      35.024  -5.924 -25.733  0.00  0.00    +0.026 C 
BRANCH  14  17
ATOM     16  F   UNL     1      30.339  -1.786 -24.427  0.00  0.00    -0.204 F 
ATOM     17  C   UNL     1      32.682  -5.070 -25.308  0.00  0.00    -0.004 C 
ATOM     18  C   UNL     1      33.263  -3.806 -25.203  0.00  0.00    -0.000 C 
ATOM     19  C   UNL     1      31.308  -5.224 -25.116  0.00  0.00    -0.000 C 
ATOM     20  C   UNL     1      32.472  -2.697 -24.905  0.00  0.00    +0.029 C 
ATOM     21  C   UNL     1      30.517  -4.115 -24.819  0.00  0.00    +0.029 C 
ATOM     22  C   UNL     1      31.099  -2.851 -24.713  0.00  0.00    +0.140 C 
ENDBRANCH  14  17
ENDBRANCH   2  14
BRANCH   2  23
ATOM     23  C   UNL     1      34.206  -7.305 -23.487  0.00  0.00    +0.121 C 
BRANCH  23  24
ATOM     24  C   UNL     1      33.459  -6.885 -22.253  0.00  0.00    -0.002 C 
ATOM     25  C   UNL     1      32.480  -5.895 -22.335  0.00  0.00    +0.004 C 
ATOM     26  C   UNL     1      33.742  -7.487 -21.028  0.00  0.00    -0.003 C 
ATOM     27  C   UNL     1      31.785  -5.506 -21.189  0.00  0.00    +0.075 C 
ATOM     28  C   UNL     1      33.047  -7.098 -19.883  0.00  0.00    -0.000 C 
ATOM     29  C   UNL     1      32.068  -6.107 -19.963  0.00  0.00    +0.006 C 
BRANCH  27  31
ATOM     30  O   UNL     1      29.547  -4.675 -21.354  0.00  0.00    -0.245 OA
ATOM     31  C   UNL     1      30.764  -4.474 -21.274  0.00  0.00    +0.338 C 
BRANCH  31  32
ATOM     32  O   UNL     1      31.289  -3.218 -21.255  0.00  0.00    -0.477 OA
ATOM     33  H   UNL     1      31.575  -2.818 -22.052  0.00  0.00    +0.295 HD
ENDBRANCH  31  32
ENDBRANCH  27  31
ENDBRANCH  23  24
ENDBRANCH   2  23
TORSDOF 7
ENDMDL
MODEL 8
REMARK VINA RESULT:      -9.7      3.732      7.061
REMARK  Name = 60195662
REMARK  7 active torsions:
REMARK  status: ('A' for Active; 'I' for Inactive)
REMARK    1  A    between atoms: N_2  and  C_14
REMARK    2  A    between atoms: N_2  and  C_23
REMARK    3  A    between atoms: C_3  and  C_5
REMARK    4  A    between atoms: C_14  and  C_17
REMARK    5  A    between atoms: C_23  and  C_24
REMARK    6  A    between atoms: C_27  and  C_31
REMARK    7  A    between atoms: C_31  and  O_32
REMARK                            x       y       z     vdW  Elec       q    Type
REMARK                         _______ _______ _______ _____ _____    ______ ____
ROOT
ATOM      1  O   UNL     1      33.920 -23.519 -11.204  0.00  0.00    -0.270 OA
ATOM      2  N   UNL     1      35.301 -24.408 -12.867  0.00  0.00    -0.270 N 
ATOM      3  C   UNL     1      34.060 -24.011 -12.333  0.00  0.00    +0.251 C 
ENDROOT
BRANCH   3   5
ATOM      4  N   UNL     1      31.089 -25.642 -13.895  0.00  0.00    -0.248 NA
ATOM      5  C   UNL     1      32.859 -24.191 -13.129  0.00  0.00    +0.072 C 
ATOM      6  C   UNL     1      32.323 -23.149 -13.870  0.00  0.00    +0.003 C 
ATOM      7  C   UNL     1      31.163 -23.348 -14.630  0.00  0.00    -0.004 C 
ATOM      8  C   UNL     1      32.210 -25.408 -13.176  0.00  0.00    +0.103 C 
ATOM      9  C   UNL     1      30.571 -24.628 -14.614  0.00  0.00    +0.060 C 
ATOM     10  C   UNL     1      30.595 -22.312 -15.391  0.00  0.00    +0.053 C 
ATOM     11  C   UNL     1      29.418 -24.826 -15.370  0.00  0.00    +0.071 C 
ATOM     12  C   UNL     1      29.441 -22.538 -16.138  0.00  0.00    -0.026 C 
ATOM     13  C   UNL     1      28.852 -23.797 -16.127  0.00  0.00    -0.024 C 
ENDBRANCH   3   5
BRANCH   2  14
ATOM     14  C   UNL     1      36.550 -24.272 -12.120  0.00  0.00    +0.099 C 
ATOM     15  C   UNL     1      36.854 -22.796 -11.870  0.00  0.00    +0.026 C 
BRANCH  14  17
ATOM     16  F   UNL     1      40.800 -26.950 -14.690  0.00  0.00    -0.204 F 
ATOM     17  C   UNL     1      37.690 -24.990 -12.810  0.00  0.00    -0.004 C 
ATOM     18  C   UNL     1      37.519 -26.300 -13.259  0.00  0.00    -0.000 C 
ATOM     19  C   UNL     1      38.912 -24.342 -12.997  0.00  0.00    -0.000 C 
ATOM     20  C   UNL     1      38.569 -26.962 -13.894  0.00  0.00    +0.029 C 
ATOM     21  C   UNL     1      39.962 -25.004 -13.633  0.00  0.00    +0.029 C 
ATOM     22  C   UNL     1      39.791 -26.315 -14.081  0.00  0.00    +0.140 C 
ENDBRANCH  14  17
ENDBRANCH   2  14
BRANCH   2  23
ATOM     23  C   UNL     1      35.422 -24.982 -14.199  0.00  0.00    +0.121 C 
BRANCH  23  24
ATOM     24  C   UNL     1      35.506 -23.924 -15.262  0.00  0.00    -0.002 C 
ATOM     25  C   UNL     1      34.531 -23.859 -16.258  0.00  0.00    +0.004 C 
ATOM     26  C   UNL     1      36.556 -23.007 -15.253  0.00  0.00    -0.003 C 
ATOM     27  C   UNL     1      34.607 -22.875 -17.245  0.00  0.00    +0.075 C 
ATOM     28  C   UNL     1      36.632 -22.024 -16.239  0.00  0.00    -0.000 C 
ATOM     29  C   UNL     1      35.658 -21.958 -17.235  0.00  0.00    +0.006 C 
BRANCH  27  31
ATOM     30  O   UNL     1      32.626 -22.034 -18.289  0.00  0.00    -0.245 OA
ATOM     31  C   UNL     1      33.591 -22.806 -18.282  0.00  0.00    +0.338 C 
BRANCH  31  32
ATOM     32  O   UNL     1      33.807 -23.701 -19.284  0.00  0.00    -0.477 OA
ATOM     33  H   UNL     1      34.019 -23.398 -20.146  0.00  0.00    +0.295 HD
ENDBRANCH  31  32
ENDBRANCH  27  31
ENDBRANCH  23  24
ENDBRANCH   2  23
TORSDOF 7
ENDMDL
MODEL 9
REMARK VINA RESULT:      -9.4     10.626     14.735
REMARK  Name = 60195662
REMARK  7 active torsions:
REMARK  status: ('A' for Active; 'I' for Inactive)
REMARK    1  A    between atoms: N_2  and  C_14
REMARK    2  A    between atoms: N_2  and  C_23
REMARK    3  A    between atoms: C_3  and  C_5
REMARK    4  A    between atoms: C_14  and  C_17
REMARK    5  A    between atoms: C_23  and  C_24
REMARK    6  A    between atoms: C_27  and  C_31
REMARK    7  A    between atoms: C_31  and  O_32
REMARK                            x       y       z     vdW  Elec       q    Type
REMARK                         _______ _______ _______ _____ _____    ______ ____
ROOT
ATOM      1  O   UNL     1      32.630  -8.715 -19.384  0.00  0.00    -0.270 OA
ATOM      2  N   UNL     1      31.683 -10.347 -20.766  0.00  0.00    -0.270 N 
ATOM      3  C   UNL     1      32.248  -9.084 -20.505  0.00  0.00    +0.251 C 
ENDROOT
BRANCH   3   5
ATOM      4  N   UNL     1      31.353  -6.602 -23.145  0.00  0.00    -0.248 NA
ATOM      5  C   UNL     1      32.389  -8.135 -21.595  0.00  0.00    +0.072 C 
ATOM      6  C   UNL     1      33.632  -7.840 -22.137  0.00  0.00    +0.003 C 
ATOM      7  C   UNL     1      33.741  -6.921 -23.188  0.00  0.00    -0.004 C 
ATOM      8  C   UNL     1      31.291  -7.495 -22.131  0.00  0.00    +0.103 C 
ATOM      9  C   UNL     1      32.561  -6.317 -23.668  0.00  0.00    +0.060 C 
ATOM     10  C   UNL     1      34.985  -6.600 -23.758  0.00  0.00    +0.053 C 
ATOM     11  C   UNL     1      32.670  -5.404 -24.714  0.00  0.00    +0.071 C 
ATOM     12  C   UNL     1      35.066  -5.683 -24.803  0.00  0.00    -0.026 C 
ATOM     13  C   UNL     1      33.906  -5.084 -25.281  0.00  0.00    -0.024 C 
ENDBRANCH   3   5
BRANCH   2  14
ATOM     14  C   UNL     1      31.495 -11.348 -19.717  0.00  0.00    +0.099 C 
ATOM     15  C   UNL     1      31.677 -10.708 -18.342  0.00  0.00    +0.026 C 
BRANCH  14  17
ATOM     16  F   UNL     1      34.863 -15.809 -20.488  0.00  0.00    -0.204 F 
ATOM     17  C   UNL     1      32.398 -12.544 -19.925  0.00  0.00    -0.004 C 
ATOM     18  C   UNL     1      31.864 -13.833 -19.908  0.00  0.00    -0.000 C 
ATOM     19  C   UNL     1      33.766 -12.359 -20.132  0.00  0.00    -0.000 C 
ATOM     20  C   UNL     1      32.696 -14.936 -20.099  0.00  0.00    +0.029 C 
ATOM     21  C   UNL     1      34.598 -13.462 -20.322  0.00  0.00    +0.029 C 
ATOM     22  C   UNL     1      34.064 -14.750 -20.306  0.00  0.00    +0.140 C 
ENDBRANCH  14  17
ENDBRANCH   2  14
BRANCH   2  23
ATOM     23  C   UNL     1      31.247 -10.740 -22.098  0.00  0.00    +0.121 C 
BRANCH  23  24
ATOM     24  C   UNL     1      32.364 -11.345 -22.899  0.00  0.00    -0.002 C 
ATOM     25  C   UNL     1      32.321 -12.696 -23.245  0.00  0.00    +0.004 C 
ATOM     26  C   UNL     1      33.443 -10.557 -23.298  0.00  0.00    -0.003 C 
ATOM     27  C   UNL     1      33.358 -13.258 -23.990  0.00  0.00    +0.075 C 
ATOM     28  C   UNL     1      34.480 -11.119 -24.043  0.00  0.00    -0.000 C 
ATOM     29  C   UNL     1      34.437 -12.470 -24.389  0.00  0.00    +0.006 C 
BRANCH  27  31
ATOM     30  O   UNL     1      33.876 -15.580 -23.741  0.00  0.00    -0.245 OA
ATOM     31  C   UNL     1      33.313 -14.666 -24.352  0.00  0.00    +0.338 C 
BRANCH  31  32
ATOM     32  O   UNL     1      32.565 -14.894 -25.466  0.00  0.00    -0.477 OA
ATOM     33  H   UNL     1      32.524 -14.247 -26.144  0.00  0.00    +0.295 HD
ENDBRANCH  31  32
ENDBRANCH  27  31
ENDBRANCH  23  24
ENDBRANCH   2  23
TORSDOF 7
ENDMDL
