MODEL 1
REMARK VINA RESULT:     -11.1      0.000      0.000
REMARK  Name = 11291932
REMARK  3 active torsions:
REMARK  status: ('A' for Active; 'I' for Inactive)
REMARK    1  A    between atoms: C_2  and  C_16
REMARK    2  A    between atoms: C_3  and  C_19
REMARK    3  A    between atoms: C_19  and  C_23
REMARK                            x       y       z     vdW  Elec       q    Type
REMARK                         _______ _______ _______ _____ _____    ______ ____
ROOT
ATOM      1  F   UNL     1      34.842  -7.484 -22.980  0.00  0.00    -0.204 F 
ATOM      2  C   UNL     1      32.985  -8.738 -22.193  0.00  0.00    +0.081 C 
ATOM      3  C   UNL     1      32.763 -11.050 -22.835  0.00  0.00    -0.016 C 
ATOM      4  C   UNL     1      32.284  -9.938 -22.143  0.00  0.00    +0.003 C 
ATOM      5  C   UNL     1      34.163  -8.639 -22.928  0.00  0.00    +0.144 C 
ATOM      6  C   UNL     1      33.943 -10.956 -23.573  0.00  0.00    -0.002 C 
ATOM      7  C   UNL     1      34.642  -9.751 -23.620  0.00  0.00    +0.029 C 
ENDROOT
BRANCH   2  16
ATOM      8  O   UNL     1      32.958  -7.372 -20.349  0.00  0.00    -0.270 OA
ATOM      9  N   UNL     1      31.508  -6.776 -22.085  0.00  0.00    -0.278 N 
ATOM     10  N   UNL     1      32.557  -4.954 -24.054  0.00  0.00    +0.385 N 
ATOM     11  C   UNL     1      30.995  -5.599 -21.386  0.00  0.00    +0.091 C 
ATOM     12  C   UNL     1      31.691  -4.308 -21.811  0.00  0.00    -0.002 C 
ATOM     13  C   UNL     1      31.052  -6.934 -23.471  0.00  0.00    +0.070 C 
ATOM     14  C   UNL     1      31.676  -4.047 -23.321  0.00  0.00    -0.080 C 
ATOM     15  C   UNL     1      31.926  -6.197 -24.489  0.00  0.00    -0.060 C 
ATOM     16  C   UNL     1      32.478  -7.570 -21.463  0.00  0.00    +0.251 C 
ATOM     17  H   UNL     1      33.343  -5.192 -23.449  0.00  0.00    -0.084 HD
ATOM     18  H   UNL     1      32.836  -4.462 -24.903  0.00  0.00    -0.084 HD
ENDBRANCH   2  16
BRANCH   3  19
ATOM     19  C   UNL     1      32.015 -12.340 -22.787  0.00  0.00    +0.074 C 
BRANCH  19  23
ATOM     20  O   UNL     1      34.947 -16.448 -24.967  0.00  0.00    -0.266 OA
ATOM     21  N   UNL     1      32.812 -13.636 -24.627  0.00  0.00    -0.174 NA
ATOM     22  N   UNL     1      33.537 -14.650 -25.154  0.00  0.00    -0.242 N 
ATOM     23  C   UNL     1      32.825 -13.467 -23.342  0.00  0.00    +0.083 A 
ATOM     24  C   UNL     1      33.591 -14.327 -22.418  0.00  0.00    +0.020 A 
ATOM     25  C   UNL     1      34.331 -15.363 -22.981  0.00  0.00    +0.059 A 
ATOM     26  C   UNL     1      33.598 -14.138 -21.034  0.00  0.00    +0.001 C 
ATOM     27  C   UNL     1      34.306 -15.544 -24.441  0.00  0.00    +0.273 A 
ATOM     28  C   UNL     1      35.081 -16.219 -22.169  0.00  0.00    +0.005 C 
ATOM     29  C   UNL     1      34.348 -14.991 -20.222  0.00  0.00    +0.000 C 
ATOM     30  C   UNL     1      35.088 -16.029 -20.787  0.00  0.00    +0.000 C 
ATOM     31  H   UNL     1      33.513 -14.758 -26.132  0.00  0.00    +0.192 HD
ENDBRANCH  19  23
ENDBRANCH   3  19
TORSDOF 3
ENDMDL
MODEL 2
REMARK VINA RESULT:     -11.0      1.537      2.136
REMARK  Name = 11291932
REMARK  3 active torsions:
REMARK  status: ('A' for Active; 'I' for Inactive)
REMARK    1  A    between atoms: C_2  and  C_16
REMARK    2  A    between atoms: C_3  and  C_19
REMARK    3  A    between atoms: C_19  and  C_23
REMARK                            x       y       z     vdW  Elec       q    Type
REMARK                         _______ _______ _______ _____ _____    ______ ____
ROOT
ATOM      1  F   UNL     1      34.727  -7.144 -22.956  0.00  0.00    -0.204 F 
ATOM      2  C   UNL     1      32.892  -8.452 -22.204  0.00  0.00    +0.081 C 
ATOM      3  C   UNL     1      32.760 -10.775 -22.835  0.00  0.00    -0.016 C 
ATOM      4  C   UNL     1      32.229  -9.674 -22.163  0.00  0.00    +0.003 C 
ATOM      5  C   UNL     1      34.083  -8.320 -22.912  0.00  0.00    +0.144 C 
ATOM      6  C   UNL     1      33.953 -10.647 -23.545  0.00  0.00    -0.002 C 
ATOM      7  C   UNL     1      34.615  -9.420 -23.584  0.00  0.00    +0.029 C 
ENDROOT
BRANCH   2  16
ATOM      8  O   UNL     1      32.758  -7.091 -20.362  0.00  0.00    -0.270 OA
ATOM      9  N   UNL     1      31.371  -6.522 -22.158  0.00  0.00    -0.278 N 
ATOM     10  N   UNL     1      32.462  -4.675 -24.079  0.00  0.00    +0.385 N 
ATOM     11  C   UNL     1      30.804  -5.357 -21.480  0.00  0.00    +0.091 C 
ATOM     12  C   UNL     1      31.490  -4.051 -21.873  0.00  0.00    -0.002 C 
ATOM     13  C   UNL     1      30.977  -6.687 -23.561  0.00  0.00    +0.070 C 
ATOM     14  C   UNL     1      31.532  -3.788 -23.383  0.00  0.00    -0.080 C 
ATOM     15  C   UNL     1      31.877  -5.930 -24.541  0.00  0.00    -0.060 C 
ATOM     16  C   UNL     1      32.329  -7.297 -21.496  0.00  0.00    +0.251 C 
ATOM     17  H   UNL     1      33.227  -4.897 -23.442  0.00  0.00    -0.084 HD
ATOM     18  H   UNL     1      32.766  -4.175 -24.914  0.00  0.00    -0.084 HD
ENDBRANCH   2  16
BRANCH   3  19
ATOM     19  C   UNL     1      32.052 -12.087 -22.796  0.00  0.00    +0.074 C 
BRANCH  19  23
ATOM     20  O   UNL     1      35.109 -15.913 -20.296  0.00  0.00    -0.266 OA
ATOM     21  N   UNL     1      33.068 -13.070 -20.871  0.00  0.00    -0.174 NA
ATOM     22  N   UNL     1      33.822 -14.016 -20.265  0.00  0.00    -0.242 N 
ATOM     23  C   UNL     1      32.889 -13.145 -22.152  0.00  0.00    +0.083 A 
ATOM     24  C   UNL     1      33.468 -14.214 -22.991  0.00  0.00    +0.020 A 
ATOM     25  C   UNL     1      34.239 -15.178 -22.347  0.00  0.00    +0.059 A 
ATOM     26  C   UNL     1      33.271 -14.288 -24.372  0.00  0.00    +0.001 C 
ATOM     27  C   UNL     1      34.434 -15.080 -20.892  0.00  0.00    +0.273 A 
ATOM     28  C   UNL     1      34.820 -16.221 -23.075  0.00  0.00    +0.005 C 
ATOM     29  C   UNL     1      33.849 -15.329 -25.100  0.00  0.00    +0.000 C 
ATOM     30  C   UNL     1      34.622 -16.293 -24.454  0.00  0.00    +0.000 C 
ATOM     31  H   UNL     1      33.943 -13.938 -19.291  0.00  0.00    +0.192 HD
ENDBRANCH  19  23
ENDBRANCH   3  19
TORSDOF 3
ENDMDL
MODEL 3
REMARK VINA RESULT:     -10.5      2.223      3.041
REMARK  Name = 11291932
REMARK  3 active torsions:
REMARK  status: ('A' for Active; 'I' for Inactive)
REMARK    1  A    between atoms: C_2  and  C_16
REMARK    2  A    between atoms: C_3  and  C_19
REMARK    3  A    between atoms: C_19  and  C_23
REMARK                            x       y       z     vdW  Elec       q    Type
REMARK                         _______ _______ _______ _____ _____    ______ ____
ROOT
ATOM      1  F   UNL     1      31.591  -7.965 -18.934  0.00  0.00    -0.204 F 
ATOM      2  C   UNL     1      32.309  -8.882 -21.004  0.00  0.00    +0.081 C 
ATOM      3  C   UNL     1      31.833 -11.192 -21.501  0.00  0.00    -0.016 C 
ATOM      4  C   UNL     1      32.391  -9.968 -21.869  0.00  0.00    +0.003 C 
ATOM      5  C   UNL     1      31.673  -9.008 -19.772  0.00  0.00    +0.144 C 
ATOM      6  C   UNL     1      31.195 -11.323 -20.267  0.00  0.00    -0.002 C 
ATOM      7  C   UNL     1      31.115 -10.232 -19.403  0.00  0.00    +0.029 C 
ENDROOT
BRANCH   2  16
ATOM      8  O   UNL     1      34.045  -7.381 -21.007  0.00  0.00    -0.270 OA
ATOM      9  N   UNL     1      32.126  -6.729 -22.176  0.00  0.00    -0.278 N 
ATOM     10  N   UNL     1      32.041  -7.416 -24.971  0.00  0.00    +0.385 N 
ATOM     11  C   UNL     1      32.693  -5.447 -22.590  0.00  0.00    +0.091 C 
ATOM     12  C   UNL     1      33.279  -5.487 -24.000  0.00  0.00    -0.002 C 
ATOM     13  C   UNL     1      30.819  -7.058 -22.757  0.00  0.00    +0.070 C 
ATOM     14  C   UNL     1      32.307  -5.982 -25.076  0.00  0.00    -0.080 C 
ATOM     15  C   UNL     1      30.914  -7.765 -24.111  0.00  0.00    -0.060 C 
ATOM     16  C   UNL     1      32.898  -7.596 -21.395  0.00  0.00    +0.251 C 
ATOM     17  H   UNL     1      32.876  -7.868 -24.600  0.00  0.00    -0.084 HD
ATOM     18  H   UNL     1      31.795  -7.732 -25.910  0.00  0.00    -0.084 HD
ENDBRANCH   2  16
BRANCH   3  19
ATOM     19  C   UNL     1      31.920 -12.360 -22.423  0.00  0.00    +0.074 C 
BRANCH  19  23
ATOM     20  O   UNL     1      35.321 -16.158 -20.363  0.00  0.00    -0.266 OA
ATOM     21  N   UNL     1      33.079 -13.421 -20.625  0.00  0.00    -0.174 NA
ATOM     22  N   UNL     1      33.917 -14.360 -20.128  0.00  0.00    -0.242 N 
ATOM     23  C   UNL     1      32.850 -13.407 -21.900  0.00  0.00    +0.083 A 
ATOM     24  C   UNL     1      33.459 -14.365 -22.845  0.00  0.00    +0.020 A 
ATOM     25  C   UNL     1      34.318 -15.323 -22.312  0.00  0.00    +0.059 A 
ATOM     26  C   UNL     1      33.208 -14.343 -24.219  0.00  0.00    +0.001 C 
ATOM     27  C   UNL     1      34.569 -15.327 -20.862  0.00  0.00    +0.273 A 
ATOM     28  C   UNL     1      34.932 -16.264 -23.144  0.00  0.00    +0.005 C 
ATOM     29  C   UNL     1      33.820 -15.282 -25.051  0.00  0.00    +0.000 C 
ATOM     30  C   UNL     1      34.679 -16.240 -24.516  0.00  0.00    +0.000 C 
ATOM     31  H   UNL     1      34.075 -14.352 -19.156  0.00  0.00    +0.192 HD
ENDBRANCH  19  23
ENDBRANCH   3  19
TORSDOF 3
ENDMDL
MODEL 4
REMARK VINA RESULT:     -10.3      2.447      3.467
REMARK  Name = 11291932
REMARK  3 active torsions:
REMARK  status: ('A' for Active; 'I' for Inactive)
REMARK    1  A    between atoms: C_2  and  C_16
REMARK    2  A    between atoms: C_3  and  C_19
REMARK    3  A    between atoms: C_19  and  C_23
REMARK                            x       y       z     vdW  Elec       q    Type
REMARK                         _______ _______ _______ _____ _____    ______ ____
ROOT
ATOM      1  F   UNL     1      32.766  -6.816 -20.050  0.00  0.00    -0.204 F 
ATOM      2  C   UNL     1      31.827  -8.407 -21.542  0.00  0.00    +0.081 C 
ATOM      3  C   UNL     1      31.406 -10.650 -20.766  0.00  0.00    -0.016 C 
ATOM      4  C   UNL     1      31.369  -9.698 -21.784  0.00  0.00    +0.003 C 
ATOM      5  C   UNL     1      32.323  -8.058 -20.289  0.00  0.00    +0.144 C 
ATOM      6  C   UNL     1      31.902 -10.305 -19.509  0.00  0.00    -0.002 C 
ATOM      7  C   UNL     1      32.360  -9.010 -19.270  0.00  0.00    +0.029 C 
ENDROOT
BRANCH   2  16
ATOM      8  O   UNL     1      30.987  -6.485 -22.472  0.00  0.00    -0.270 OA
ATOM      9  N   UNL     1      32.653  -7.573 -23.702  0.00  0.00    -0.278 N 
ATOM     10  N   UNL     1      35.364  -6.748 -23.187  0.00  0.00    +0.385 N 
ATOM     11  C   UNL     1      32.642  -6.586 -24.780  0.00  0.00    +0.091 C 
ATOM     12  C   UNL     1      33.738  -5.534 -24.630  0.00  0.00    -0.002 C 
ATOM     13  C   UNL     1      33.704  -8.593 -23.793  0.00  0.00    +0.070 C 
ATOM     14  C   UNL     1      35.152  -6.109 -24.484  0.00  0.00    -0.080 C 
ATOM     15  C   UNL     1      35.024  -8.168 -23.145  0.00  0.00    -0.060 C 
ATOM     16  C   UNL     1      31.786  -7.408 -22.617  0.00  0.00    +0.251 C 
ATOM     17  H   UNL     1      34.790  -6.264 -22.497  0.00  0.00    -0.084 HD
ATOM     18  H   UNL     1      36.364  -6.686 -22.996  0.00  0.00    -0.084 HD
ENDBRANCH   2  16
BRANCH   3  19
ATOM     19  C   UNL     1      30.918 -12.036 -21.020  0.00  0.00    +0.074 C 
BRANCH  19  23
ATOM     20  O   UNL     1      34.885 -15.754 -20.200  0.00  0.00    -0.266 OA
ATOM     21  N   UNL     1      32.202 -13.502 -19.640  0.00  0.00    -0.174 NA
ATOM     22  N   UNL     1      33.180 -14.417 -19.449  0.00  0.00    -0.242 N 
ATOM     23  C   UNL     1      32.006 -13.045 -20.837  0.00  0.00    +0.083 A 
ATOM     24  C   UNL     1      32.797 -13.471 -22.008  0.00  0.00    +0.020 A 
ATOM     25  C   UNL     1      33.798 -14.414 -21.789  0.00  0.00    +0.059 A 
ATOM     26  C   UNL     1      32.580 -12.973 -23.295  0.00  0.00    +0.001 C 
ATOM     27  C   UNL     1      34.010 -14.923 -20.425  0.00  0.00    +0.273 A 
ATOM     28  C   UNL     1      34.589 -14.865 -22.850  0.00  0.00    +0.005 C 
ATOM     29  C   UNL     1      33.368 -13.424 -24.355  0.00  0.00    +0.000 C 
ATOM     30  C   UNL     1      34.370 -14.367 -24.134  0.00  0.00    +0.000 C 
ATOM     31  H   UNL     1      33.310 -14.750 -18.532  0.00  0.00    +0.192 HD
ENDBRANCH  19  23
ENDBRANCH   3  19
TORSDOF 3
ENDMDL
MODEL 5
REMARK VINA RESULT:     -10.3      1.952      2.813
REMARK  Name = 11291932
REMARK  3 active torsions:
REMARK  status: ('A' for Active; 'I' for Inactive)
REMARK    1  A    between atoms: C_2  and  C_16
REMARK    2  A    between atoms: C_3  and  C_19
REMARK    3  A    between atoms: C_19  and  C_23
REMARK                            x       y       z     vdW  Elec       q    Type
REMARK                         _______ _______ _______ _____ _____    ______ ____
ROOT
ATOM      1  F   UNL     1      32.441  -6.634 -20.161  0.00  0.00    -0.204 F 
ATOM      2  C   UNL     1      31.808  -8.551 -21.413  0.00  0.00    +0.081 C 
ATOM      3  C   UNL     1      31.757 -10.704 -20.332  0.00  0.00    -0.016 C 
ATOM      4  C   UNL     1      31.577  -9.921 -21.472  0.00  0.00    +0.003 C 
ATOM      5  C   UNL     1      32.217  -7.954 -20.223  0.00  0.00    +0.144 C 
ATOM      6  C   UNL     1      32.166 -10.111 -19.137  0.00  0.00    -0.002 C 
ATOM      7  C   UNL     1      32.396  -8.737 -19.083  0.00  0.00    +0.029 C 
ENDROOT
BRANCH   2  16
ATOM      8  O   UNL     1      30.675  -6.941 -22.593  0.00  0.00    -0.270 OA
ATOM      9  N   UNL     1      32.516  -7.897 -23.674  0.00  0.00    -0.278 N 
ATOM     10  N   UNL     1      35.045  -6.570 -23.301  0.00  0.00    +0.385 N 
ATOM     11  C   UNL     1      32.358  -7.083 -24.878  0.00  0.00    +0.091 C 
ATOM     12  C   UNL     1      33.262  -5.853 -24.885  0.00  0.00    -0.002 C 
ATOM     13  C   UNL     1      33.723  -8.731 -23.632  0.00  0.00    +0.070 C 
ATOM     14  C   UNL     1      34.749  -6.159 -24.672  0.00  0.00    -0.080 C 
ATOM     15  C   UNL     1      34.945  -8.007 -23.060  0.00  0.00    -0.060 C 
ATOM     16  C   UNL     1      31.618  -7.730 -22.615  0.00  0.00    +0.251 C 
ATOM     17  H   UNL     1      34.389  -6.098 -22.679  0.00  0.00    -0.084 HD
ATOM     18  H   UNL     1      36.018  -6.317 -23.128  0.00  0.00    -0.084 HD
ENDBRANCH   2  16
BRANCH   3  19
ATOM     19  C   UNL     1      31.513 -12.174 -20.389  0.00  0.00    +0.074 C 
BRANCH  19  23
ATOM     20  O   UNL     1      33.773 -14.355 -24.902  0.00  0.00    -0.266 OA
ATOM     21  N   UNL     1      31.781 -12.354 -22.755  0.00  0.00    -0.174 NA
ATOM     22  N   UNL     1      32.343 -12.897 -23.860  0.00  0.00    -0.242 N 
ATOM     23  C   UNL     1      32.149 -12.792 -21.593  0.00  0.00    +0.083 A 
ATOM     24  C   UNL     1      33.154 -13.858 -21.408  0.00  0.00    +0.020 A 
ATOM     25  C   UNL     1      33.721 -14.402 -22.558  0.00  0.00    +0.059 A 
ATOM     26  C   UNL     1      33.546 -14.325 -20.151  0.00  0.00    +0.001 C 
ATOM     27  C   UNL     1      33.292 -13.896 -23.871  0.00  0.00    +0.273 A 
ATOM     28  C   UNL     1      34.679 -15.415 -22.462  0.00  0.00    +0.005 C 
ATOM     29  C   UNL     1      34.504 -15.335 -20.054  0.00  0.00    +0.000 C 
ATOM     30  C   UNL     1      35.069 -15.879 -21.206  0.00  0.00    +0.000 C 
ATOM     31  H   UNL     1      32.048 -12.548 -24.732  0.00  0.00    +0.192 HD
ENDBRANCH  19  23
ENDBRANCH   3  19
TORSDOF 3
ENDMDL
MODEL 6
REMARK VINA RESULT:     -10.1     11.124     15.525
REMARK  Name = 11291932
REMARK  3 active torsions:
REMARK  status: ('A' for Active; 'I' for Inactive)
REMARK    1  A    between atoms: C_2  and  C_16
REMARK    2  A    between atoms: C_3  and  C_19
REMARK    3  A    between atoms: C_19  and  C_23
REMARK                            x       y       z     vdW  Elec       q    Type
REMARK                         _______ _______ _______ _____ _____    ______ ____
ROOT
ATOM      1  F   UNL     1      32.110 -22.838 -12.377  0.00  0.00    -0.204 F 
ATOM      2  C   UNL     1      33.705 -23.656 -13.935  0.00  0.00    +0.081 C 
ATOM      3  C   UNL     1      33.286 -23.408 -16.295  0.00  0.00    -0.016 C 
ATOM      4  C   UNL     1      34.102 -23.848 -15.254  0.00  0.00    +0.003 C 
ATOM      5  C   UNL     1      32.498 -23.026 -13.647  0.00  0.00    +0.144 C 
ATOM      6  C   UNL     1      32.075 -22.776 -16.012  0.00  0.00    -0.002 C 
ATOM      7  C   UNL     1      31.681 -22.585 -14.688  0.00  0.00    +0.029 C 
ENDROOT
BRANCH   2  16
ATOM      8  O   UNL     1      34.053 -24.892 -12.033  0.00  0.00    -0.270 OA
ATOM      9  N   UNL     1      35.890 -23.668 -12.809  0.00  0.00    -0.278 N 
ATOM     10  N   UNL     1      37.653 -25.031 -14.632  0.00  0.00    +0.385 N 
ATOM     11  C   UNL     1      36.774 -24.126 -11.737  0.00  0.00    +0.091 C 
ATOM     12  C   UNL     1      37.651 -25.303 -12.157  0.00  0.00    -0.002 C 
ATOM     13  C   UNL     1      36.533 -22.870 -13.858  0.00  0.00    +0.070 C 
ATOM     14  C   UNL     1      38.477 -25.056 -13.425  0.00  0.00    -0.080 C 
ATOM     15  C   UNL     1      37.132 -23.714 -14.986  0.00  0.00    -0.060 C 
ATOM     16  C   UNL     1      34.567 -24.121 -12.842  0.00  0.00    +0.251 C 
ATOM     17  H   UNL     1      36.862 -25.658 -14.490  0.00  0.00    -0.084 HD
ATOM     18  H   UNL     1      38.260 -25.316 -15.401  0.00  0.00    -0.084 HD
ENDBRANCH   2  16
BRANCH   3  19
ATOM     19  C   UNL     1      33.706 -23.613 -17.712  0.00  0.00    +0.074 C 
BRANCH  19  23
ATOM     20  O   UNL     1      37.323 -19.782 -19.281  0.00  0.00    -0.266 OA
ATOM     21  N   UNL     1      35.859 -22.581 -17.669  0.00  0.00    -0.174 NA
ATOM     22  N   UNL     1      36.742 -21.634 -18.061  0.00  0.00    -0.242 N 
ATOM     23  C   UNL     1      34.661 -22.555 -18.162  0.00  0.00    +0.083 A 
ATOM     24  C   UNL     1      34.205 -21.541 -19.134  0.00  0.00    +0.020 A 
ATOM     25  C   UNL     1      35.130 -20.577 -19.526  0.00  0.00    +0.059 A 
ATOM     26  C   UNL     1      32.912 -21.519 -19.661  0.00  0.00    +0.001 C 
ATOM     27  C   UNL     1      36.487 -20.618 -18.957  0.00  0.00    +0.273 A 
ATOM     28  C   UNL     1      34.772 -19.584 -20.442  0.00  0.00    +0.005 C 
ATOM     29  C   UNL     1      32.553 -20.529 -20.577  0.00  0.00    +0.000 C 
ATOM     30  C   UNL     1      33.480 -19.564 -20.967  0.00  0.00    +0.000 C 
ATOM     31  H   UNL     1      37.646 -21.675 -17.674  0.00  0.00    +0.192 HD
ENDBRANCH  19  23
ENDBRANCH   3  19
TORSDOF 3
ENDMDL
MODEL 7
REMARK VINA RESULT:      -9.9      3.349      4.702
REMARK  Name = 11291932
REMARK  3 active torsions:
REMARK  status: ('A' for Active; 'I' for Inactive)
REMARK    1  A    between atoms: C_2  and  C_16
REMARK    2  A    between atoms: C_3  and  C_19
REMARK    3  A    between atoms: C_19  and  C_23
REMARK                            x       y       z     vdW  Elec       q    Type
REMARK                         _______ _______ _______ _____ _____    ______ ____
ROOT
ATOM      1  F   UNL     1      35.872  -5.626 -24.507  0.00  0.00    -0.204 F 
ATOM      2  C   UNL     1      33.624  -6.352 -24.762  0.00  0.00    +0.081 C 
ATOM      3  C   UNL     1      32.893  -8.349 -23.628  0.00  0.00    -0.016 C 
ATOM      4  C   UNL     1      32.621  -7.268 -24.467  0.00  0.00    +0.003 C 
ATOM      5  C   UNL     1      34.900  -6.506 -24.225  0.00  0.00    +0.144 C 
ATOM      6  C   UNL     1      34.169  -8.507 -23.088  0.00  0.00    -0.002 C 
ATOM      7  C   UNL     1      35.172  -7.586 -23.387  0.00  0.00    +0.029 C 
ENDROOT
BRANCH   2  16
ATOM      8  O   UNL     1      33.500  -5.406 -26.849  0.00  0.00    -0.270 OA
ATOM      9  N   UNL     1      32.888  -4.026 -25.062  0.00  0.00    -0.278 N 
ATOM     10  N   UNL     1      30.101  -4.035 -24.339  0.00  0.00    +0.385 N 
ATOM     11  C   UNL     1      32.580  -2.883 -25.920  0.00  0.00    +0.091 C 
ATOM     12  C   UNL     1      31.091  -2.768 -26.240  0.00  0.00    -0.002 C 
ATOM     13  C   UNL     1      32.552  -3.858 -23.643  0.00  0.00    +0.070 C 
ATOM     14  C   UNL     1      30.179  -2.738 -25.008  0.00  0.00    -0.080 C 
ATOM     15  C   UNL     1      31.111  -4.251 -23.308  0.00  0.00    -0.060 C 
ATOM     16  C   UNL     1      33.335  -5.217 -25.645  0.00  0.00    +0.251 C 
ATOM     17  H   UNL     1      30.207  -4.764 -25.045  0.00  0.00    -0.084 HD
ATOM     18  H   UNL     1      29.197  -4.061 -23.866  0.00  0.00    -0.084 HD
ENDBRANCH   2  16
BRANCH   3  19
ATOM     19  C   UNL     1      31.821  -9.336 -23.310  0.00  0.00    +0.074 C 
BRANCH  19  23
ATOM     20  O   UNL     1      31.764 -10.496 -17.935  0.00  0.00    -0.266 OA
ATOM     21  N   UNL     1      31.623  -8.729 -21.008  0.00  0.00    -0.174 NA
ATOM     22  N   UNL     1      31.611  -9.025 -19.688  0.00  0.00    -0.242 N 
ATOM     23  C   UNL     1      31.812  -9.690 -21.857  0.00  0.00    +0.083 A 
ATOM     24  C   UNL     1      32.016 -11.097 -21.459  0.00  0.00    +0.020 A 
ATOM     25  C   UNL     1      31.998 -11.380 -20.096  0.00  0.00    +0.059 A 
ATOM     26  C   UNL     1      32.219 -12.127 -22.381  0.00  0.00    +0.001 C 
ATOM     27  C   UNL     1      31.784 -10.279 -19.143  0.00  0.00    +0.273 A 
ATOM     28  C   UNL     1      32.185 -12.689 -19.642  0.00  0.00    +0.005 C 
ATOM     29  C   UNL     1      32.404 -13.435 -21.929  0.00  0.00    +0.000 C 
ATOM     30  C   UNL     1      32.387 -13.716 -20.564  0.00  0.00    +0.000 C 
ATOM     31  H   UNL     1      31.465  -8.279 -19.062  0.00  0.00    +0.192 HD
ENDBRANCH  19  23
ENDBRANCH   3  19
TORSDOF 3
ENDMDL
MODEL 8
REMARK VINA RESULT:      -9.8      2.258      3.294
REMARK  Name = 11291932
REMARK  3 active torsions:
REMARK  status: ('A' for Active; 'I' for Inactive)
REMARK    1  A    between atoms: C_2  and  C_16
REMARK    2  A    between atoms: C_3  and  C_19
REMARK    3  A    between atoms: C_19  and  C_23
REMARK                            x       y       z     vdW  Elec       q    Type
REMARK                         _______ _______ _______ _____ _____    ______ ____
ROOT
ATOM      1  F   UNL     1      30.416  -9.249 -21.912  0.00  0.00    -0.204 F 
ATOM      2  C   UNL     1      32.241  -9.751 -23.346  0.00  0.00    +0.081 C 
ATOM      3  C   UNL     1      33.096 -12.003 -23.427  0.00  0.00    -0.016 C 
ATOM      4  C   UNL     1      33.144 -10.678 -23.857  0.00  0.00    +0.003 C 
ATOM      5  C   UNL     1      31.289 -10.138 -22.408  0.00  0.00    +0.144 C 
ATOM      6  C   UNL     1      32.143 -12.396 -22.486  0.00  0.00    -0.002 C 
ATOM      7  C   UNL     1      31.240 -11.464 -21.977  0.00  0.00    +0.029 C 
ENDROOT
BRANCH   2  16
ATOM      8  O   UNL     1      31.636  -8.085 -24.803  0.00  0.00    -0.270 OA
ATOM      9  N   UNL     1      33.072  -7.455 -23.068  0.00  0.00    -0.278 N 
ATOM     10  N   UNL     1      31.820  -6.503 -20.656  0.00  0.00    +0.385 N 
ATOM     11  C   UNL     1      33.134  -6.057 -23.492  0.00  0.00    +0.091 C 
ATOM     12  C   UNL     1      32.162  -5.163 -22.726  0.00  0.00    -0.002 C 
ATOM     13  C   UNL     1      33.734  -7.755 -21.793  0.00  0.00    +0.070 C 
ATOM     14  C   UNL     1      32.302  -5.236 -21.201  0.00  0.00    -0.080 C 
ATOM     15  C   UNL     1      32.829  -7.555 -20.574  0.00  0.00    -0.060 C 
ATOM     16  C   UNL     1      32.295  -8.357 -23.801  0.00  0.00    +0.251 C 
ATOM     17  H   UNL     1      31.061  -6.837 -21.249  0.00  0.00    -0.084 HD
ATOM     18  H   UNL     1      31.527  -6.312 -19.697  0.00  0.00    -0.084 HD
ENDBRANCH   2  16
BRANCH   3  19
ATOM     19  C   UNL     1      34.063 -13.001 -23.969  0.00  0.00    +0.074 C 
BRANCH  19  23
ATOM     20  O   UNL     1      35.314 -16.749 -20.146  0.00  0.00    -0.266 OA
ATOM     21  N   UNL     1      34.654 -13.655 -21.749  0.00  0.00    -0.174 NA
ATOM     22  N   UNL     1      34.960 -14.585 -20.816  0.00  0.00    -0.242 N 
ATOM     23  C   UNL     1      34.399 -14.049 -22.957  0.00  0.00    +0.083 A 
ATOM     24  C   UNL     1      34.427 -15.466 -23.372  0.00  0.00    +0.020 A 
ATOM     25  C   UNL     1      34.744 -16.407 -22.396  0.00  0.00    +0.059 A 
ATOM     26  C   UNL     1      34.153 -15.882 -24.677  0.00  0.00    +0.001 C 
ATOM     27  C   UNL     1      35.031 -15.945 -21.028  0.00  0.00    +0.273 A 
ATOM     28  C   UNL     1      34.790 -17.767 -22.713  0.00  0.00    +0.005 C 
ATOM     29  C   UNL     1      34.197 -17.241 -24.995  0.00  0.00    +0.000 C 
ATOM     30  C   UNL     1      34.515 -18.181 -24.016  0.00  0.00    +0.000 C 
ATOM     31  H   UNL     1      35.149 -14.262 -19.905  0.00  0.00    +0.192 HD
ENDBRANCH  19  23
ENDBRANCH   3  19
TORSDOF 3
ENDMDL
MODEL 9
REMARK VINA RESULT:      -9.6      1.857      2.642
REMARK  Name = 11291932
REMARK  3 active torsions:
REMARK  status: ('A' for Active; 'I' for Inactive)
REMARK    1  A    between atoms: C_2  and  C_16
REMARK    2  A    between atoms: C_3  and  C_19
REMARK    3  A    between atoms: C_19  and  C_23
REMARK                            x       y       z     vdW  Elec       q    Type
REMARK                         _______ _______ _______ _____ _____    ______ ____
ROOT
ATOM      1  F   UNL     1      30.060  -9.073 -22.523  0.00  0.00    -0.204 F 
ATOM      2  C   UNL     1      32.294  -9.695 -23.037  0.00  0.00    +0.081 C 
ATOM      3  C   UNL     1      33.099 -11.865 -22.366  0.00  0.00    -0.016 C 
ATOM      4  C   UNL     1      33.318 -10.635 -22.985  0.00  0.00    +0.003 C 
ATOM      5  C   UNL     1      31.050  -9.975 -22.476  0.00  0.00    +0.144 C 
ATOM      6  C   UNL     1      31.856 -12.150 -21.802  0.00  0.00    -0.002 C 
ATOM      7  C   UNL     1      30.832 -11.206 -21.857  0.00  0.00    +0.029 C 
ENDROOT
BRANCH   2  16
ATOM      8  O   UNL     1      32.156  -8.305 -24.858  0.00  0.00    -0.270 OA
ATOM      9  N   UNL     1      33.136  -7.388 -22.941  0.00  0.00    -0.278 N 
ATOM     10  N   UNL     1      31.361  -6.029 -21.126  0.00  0.00    +0.385 N 
ATOM     11  C   UNL     1      33.369  -6.085 -23.563  0.00  0.00    +0.091 C 
ATOM     12  C   UNL     1      32.278  -5.069 -23.232  0.00  0.00    -0.002 C 
ATOM     13  C   UNL     1      33.438  -7.465 -21.508  0.00  0.00    +0.070 C 
ATOM     14  C   UNL     1      32.025  -4.877 -21.732  0.00  0.00    -0.080 C 
ATOM     15  C   UNL     1      32.265  -7.054 -20.614  0.00  0.00    -0.060 C 
ATOM     16  C   UNL     1      32.527  -8.402 -23.689  0.00  0.00    +0.251 C 
ATOM     17  H   UNL     1      30.761  -6.458 -21.831  0.00  0.00    -0.084 HD
ATOM     18  H   UNL     1      30.844  -5.673 -20.322  0.00  0.00    -0.084 HD
ENDBRANCH   2  16
BRANCH   3  19
ATOM     19  C   UNL     1      34.194 -12.876 -22.305  0.00  0.00    +0.074 C 
BRANCH  19  23
ATOM     20  O   UNL     1      33.220 -16.959 -25.857  0.00  0.00    -0.266 OA
ATOM     21  N   UNL     1      33.291 -13.756 -24.334  0.00  0.00    -0.174 NA
ATOM     22  N   UNL     1      33.057 -14.767 -25.201  0.00  0.00    -0.242 N 
ATOM     23  C   UNL     1      33.949 -14.012 -23.247  0.00  0.00    +0.083 A 
ATOM     24  C   UNL     1      34.458 -15.354 -22.902  0.00  0.00    +0.020 A 
ATOM     25  C   UNL     1      34.207 -16.380 -23.809  0.00  0.00    +0.059 A 
ATOM     26  C   UNL     1      35.165 -15.621 -21.727  0.00  0.00    +0.001 C 
ATOM     27  C   UNL     1      33.458 -16.076 -25.039  0.00  0.00    +0.273 A 
ATOM     28  C   UNL     1      34.657 -17.678 -23.552  0.00  0.00    +0.005 C 
ATOM     29  C   UNL     1      35.617 -16.917 -21.470  0.00  0.00    +0.000 C 
ATOM     30  C   UNL     1      35.363 -17.943 -22.379  0.00  0.00    +0.000 C 
ATOM     31  H   UNL     1      32.556 -14.549 -26.021  0.00  0.00    +0.192 HD
ENDBRANCH  19  23
ENDBRANCH   3  19
TORSDOF 3
ENDMDL
