MODEL 1
REMARK VINA RESULT:     -11.5      0.000      0.000
REMARK  Name = 3351
REMARK  5 active torsions:
REMARK  status: ('A' for Active; 'I' for Inactive)
REMARK    1  A    between atoms: N_2  and  C_10
REMARK    2  A    between atoms: C_8  and  C_20
REMARK    3  A    between atoms: C_10  and  C_13
REMARK    4  A    between atoms: C_20  and  O_21
REMARK    5  A    between atoms: O_21  and  C_23
REMARK                            x       y       z     vdW  Elec       q    Type
REMARK                         _______ _______ _______ _____ _____    ______ ____
ROOT
ATOM      1  O   UNL     1      35.483 -17.179 -23.360  0.00  0.00    -0.271 OA
ATOM      2  N   UNL     1      33.015 -13.434 -21.169  0.00  0.00    +0.392 N 
ATOM      3  N   UNL     1      34.767 -15.610 -21.803  0.00  0.00    -0.281 N 
ATOM      4  C   UNL     1      33.054 -13.988 -22.530  0.00  0.00    -0.055 C 
ATOM      5  C   UNL     1      33.283 -14.486 -20.178  0.00  0.00    -0.055 C 
ATOM      6  C   UNL     1      34.415 -14.619 -22.820  0.00  0.00    +0.071 C 
ATOM      7  C   UNL     1      34.648 -15.134 -20.423  0.00  0.00    +0.071 C 
ATOM      8  C   UNL     1      35.287 -16.845 -22.188  0.00  0.00    +0.270 C 
ATOM      9  H   UNL     1      33.743 -12.722 -21.090  0.00  0.00    -0.079 HD
ENDROOT
BRANCH   2  10
ATOM     10  C   UNL     1      31.723 -12.800 -20.909  0.00  0.00    -0.050 C 
BRANCH  10  13
ATOM     11  O   UNL     1      32.082  -7.918 -21.548  0.00  0.00    -0.435 OA
ATOM     12  O   UNL     1      32.304  -7.508 -19.183  0.00  0.00    -0.435 OA
ATOM     13  C   UNL     1      31.881 -11.389 -20.409  0.00  0.00    -0.040 C 
ATOM     14  C   UNL     1      31.896 -10.341 -21.324  0.00  0.00    +0.034 C 
ATOM     15  C   UNL     1      32.010 -11.163 -19.034  0.00  0.00    -0.003 C 
ATOM     16  C   UNL     1      32.043  -9.065 -20.818  0.00  0.00    +0.176 C 
ATOM     17  C   UNL     1      32.170  -8.832 -19.468  0.00  0.00    +0.176 C 
ATOM     18  C   UNL     1      32.157  -9.860 -18.549  0.00  0.00    +0.040 C 
ATOM     19  C   UNL     1      32.247  -6.935 -20.506  0.00  0.00    +0.429 C 
ENDBRANCH  10  13
ENDBRANCH   2  10
BRANCH   8  20
ATOM     20  C   UNL     1      35.619 -17.812 -21.080  0.00  0.00    +0.290 C 
BRANCH  20  21
ATOM     21  O   UNL     1      35.272 -19.093 -21.546  0.00  0.00    -0.466 OA
BRANCH  21  23
ATOM     22 CL   UNL     1      33.553 -23.048 -17.561  0.00  0.00    -0.082 Cl
ATOM     23  C   UNL     1      34.869 -20.019 -20.610  0.00  0.00    +0.139 C 
ATOM     24  C   UNL     1      35.823 -20.768 -19.939  0.00  0.00    +0.038 C 
ATOM     25  C   UNL     1      33.516 -20.187 -20.357  0.00  0.00    +0.038 C 
ATOM     26  C   UNL     1      35.415 -21.708 -18.993  0.00  0.00    +0.015 C 
ATOM     27  C   UNL     1      33.108 -21.127 -19.410  0.00  0.00    +0.015 C 
ATOM     28  C   UNL     1      34.056 -21.888 -18.728  0.00  0.00    +0.058 C 
ENDBRANCH  21  23
ENDBRANCH  20  21
ENDBRANCH   8  20
TORSDOF 5
ENDMDL
MODEL 2
REMARK VINA RESULT:     -11.1      5.383      7.886
REMARK  Name = 3351
REMARK  5 active torsions:
REMARK  status: ('A' for Active; 'I' for Inactive)
REMARK    1  A    between atoms: N_2  and  C_10
REMARK    2  A    between atoms: C_8  and  C_20
REMARK    3  A    between atoms: C_10  and  C_13
REMARK    4  A    between atoms: C_20  and  O_21
REMARK    5  A    between atoms: O_21  and  C_23
REMARK                            x       y       z     vdW  Elec       q    Type
REMARK                         _______ _______ _______ _____ _____    ______ ____
ROOT
ATOM      1  O   UNL     1      31.684 -22.326 -17.365  0.00  0.00    -0.271 OA
ATOM      2  N   UNL     1      35.108 -20.500 -20.504  0.00  0.00    +0.392 N 
ATOM      3  N   UNL     1      33.565 -22.117 -18.713  0.00  0.00    -0.281 N 
ATOM      4  C   UNL     1      33.799 -20.037 -20.022  0.00  0.00    -0.055 C 
ATOM      5  C   UNL     1      35.774 -21.318 -19.481  0.00  0.00    -0.055 C 
ATOM      6  C   UNL     1      32.904 -21.223 -19.663  0.00  0.00    +0.071 C 
ATOM      7  C   UNL     1      34.916 -22.528 -19.104  0.00  0.00    +0.071 C 
ATOM      8  C   UNL     1      32.862 -22.601 -17.611  0.00  0.00    +0.270 C 
ATOM      9  H   UNL     1      34.961 -21.077 -21.333  0.00  0.00    -0.079 HD
ENDROOT
BRANCH   2  10
ATOM     10  C   UNL     1      35.948 -19.364 -20.880  0.00  0.00    -0.050 C 
BRANCH  10  13
ATOM     11  O   UNL     1      34.813 -15.236 -23.340  0.00  0.00    -0.435 OA
ATOM     12  O   UNL     1      33.892 -16.461 -25.201  0.00  0.00    -0.435 OA
ATOM     13  C   UNL     1      35.387 -18.616 -22.060  0.00  0.00    -0.040 C 
ATOM     14  C   UNL     1      35.410 -17.225 -22.056  0.00  0.00    +0.034 C 
ATOM     15  C   UNL     1      34.854 -19.337 -23.134  0.00  0.00    -0.003 C 
ATOM     16  C   UNL     1      34.883 -16.583 -23.159  0.00  0.00    +0.176 C 
ATOM     17  C   UNL     1      34.358 -17.283 -24.220  0.00  0.00    +0.176 C 
ATOM     18  C   UNL     1      34.328 -18.662 -24.239  0.00  0.00    +0.040 C 
ATOM     19  C   UNL     1      34.185 -15.166 -24.636  0.00  0.00    +0.429 C 
ENDBRANCH  10  13
ENDBRANCH   2  10
BRANCH   8  20
ATOM     20  C   UNL     1      33.616 -23.513 -16.677  0.00  0.00    +0.290 C 
BRANCH  20  21
ATOM     21  O   UNL     1      34.493 -22.698 -15.939  0.00  0.00    -0.466 OA
BRANCH  21  23
ATOM     22 CL   UNL     1      39.306 -25.234 -13.728  0.00  0.00    -0.082 Cl
ATOM     23  C   UNL     1      35.622 -23.291 -15.419  0.00  0.00    +0.139 C 
ATOM     24  C   UNL     1      36.855 -22.684 -15.598  0.00  0.00    +0.038 C 
ATOM     25  C   UNL     1      35.505 -24.488 -14.726  0.00  0.00    +0.038 C 
ATOM     26  C   UNL     1      37.999 -23.286 -15.073  0.00  0.00    +0.015 C 
ATOM     27  C   UNL     1      36.649 -25.090 -14.202  0.00  0.00    +0.015 C 
ATOM     28  C   UNL     1      37.895 -24.490 -14.374  0.00  0.00    +0.058 C 
ENDBRANCH  21  23
ENDBRANCH  20  21
ENDBRANCH   8  20
TORSDOF 5
ENDMDL
MODEL 3
REMARK VINA RESULT:     -10.7      3.691      6.026
REMARK  Name = 3351
REMARK  5 active torsions:
REMARK  status: ('A' for Active; 'I' for Inactive)
REMARK    1  A    between atoms: N_2  and  C_10
REMARK    2  A    between atoms: C_8  and  C_20
REMARK    3  A    between atoms: C_10  and  C_13
REMARK    4  A    between atoms: C_20  and  O_21
REMARK    5  A    between atoms: O_21  and  C_23
REMARK                            x       y       z     vdW  Elec       q    Type
REMARK                         _______ _______ _______ _____ _____    ______ ____
ROOT
ATOM      1  O   UNL     1      36.849 -21.698 -18.513  0.00  0.00    -0.271 OA
ATOM      2  N   UNL     1      35.322 -18.492 -22.020  0.00  0.00    +0.392 N 
ATOM      3  N   UNL     1      35.511 -20.338 -19.838  0.00  0.00    -0.281 N 
ATOM      4  C   UNL     1      36.634 -18.965 -21.555  0.00  0.00    -0.055 C 
ATOM      5  C   UNL     1      34.305 -19.538 -21.841  0.00  0.00    -0.055 C 
ATOM      6  C   UNL     1      36.573 -19.363 -20.080  0.00  0.00    +0.071 C 
ATOM      7  C   UNL     1      34.201 -19.955 -20.372  0.00  0.00    +0.071 C 
ATOM      8  C   UNL     1      35.763 -21.457 -19.045  0.00  0.00    +0.270 C 
ATOM      9  H   UNL     1      35.053 -17.682 -21.460  0.00  0.00    -0.079 HD
ENDROOT
BRANCH   2  10
ATOM     10  C   UNL     1      35.392 -18.079 -23.421  0.00  0.00    -0.050 C 
BRANCH  10  13
ATOM     11  O   UNL     1      34.506 -13.402 -22.112  0.00  0.00    -0.435 OA
ATOM     12  O   UNL     1      33.204 -12.972 -24.094  0.00  0.00    -0.435 OA
ATOM     13  C   UNL     1      34.788 -16.717 -23.635  0.00  0.00    -0.040 C 
ATOM     14  C   UNL     1      34.994 -15.725 -22.682  0.00  0.00    +0.034 C 
ATOM     15  C   UNL     1      34.034 -16.478 -24.789  0.00  0.00    -0.003 C 
ATOM     16  C   UNL     1      34.421 -14.492 -22.921  0.00  0.00    +0.176 C 
ATOM     17  C   UNL     1      33.677 -14.247 -24.053  0.00  0.00    +0.176 C 
ATOM     18  C   UNL     1      33.465 -15.220 -25.007  0.00  0.00    +0.040 C 
ATOM     19  C   UNL     1      33.733 -12.442 -22.861  0.00  0.00    +0.429 C 
ENDBRANCH  10  13
ENDBRANCH   2  10
BRANCH   8  20
ATOM     20  C   UNL     1      34.616 -22.416 -18.848  0.00  0.00    +0.290 C 
BRANCH  20  21
ATOM     21  O   UNL     1      34.852 -23.081 -17.632  0.00  0.00    -0.466 OA
BRANCH  21  23
ATOM     22 CL   UNL     1      30.437 -23.282 -13.765  0.00  0.00    -0.082 Cl
ATOM     23  C   UNL     1      33.817 -23.127 -16.724  0.00  0.00    +0.139 C 
ATOM     24  C   UNL     1      34.076 -23.499 -15.414  0.00  0.00    +0.038 C 
ATOM     25  C   UNL     1      32.534 -22.800 -17.137  0.00  0.00    +0.038 C 
ATOM     26  C   UNL     1      33.027 -23.547 -14.495  0.00  0.00    +0.015 C 
ATOM     27  C   UNL     1      31.485 -22.849 -16.219  0.00  0.00    +0.015 C 
ATOM     28  C   UNL     1      31.731 -23.222 -14.898  0.00  0.00    +0.058 C 
ENDBRANCH  21  23
ENDBRANCH  20  21
ENDBRANCH   8  20
TORSDOF 5
ENDMDL
MODEL 4
REMARK VINA RESULT:     -10.5      3.879     10.207
REMARK  Name = 3351
REMARK  5 active torsions:
REMARK  status: ('A' for Active; 'I' for Inactive)
REMARK    1  A    between atoms: N_2  and  C_10
REMARK    2  A    between atoms: C_8  and  C_20
REMARK    3  A    between atoms: C_10  and  C_13
REMARK    4  A    between atoms: C_20  and  O_21
REMARK    5  A    between atoms: O_21  and  C_23
REMARK                            x       y       z     vdW  Elec       q    Type
REMARK                         _______ _______ _______ _____ _____    ______ ____
ROOT
ATOM      1  O   UNL     1      32.464 -13.168 -19.550  0.00  0.00    -0.271 OA
ATOM      2  N   UNL     1      35.315 -16.222 -22.280  0.00  0.00    +0.392 N 
ATOM      3  N   UNL     1      33.795 -14.023 -21.251  0.00  0.00    -0.281 N 
ATOM      4  C   UNL     1      34.733 -16.285 -20.932  0.00  0.00    -0.055 C 
ATOM      5  C   UNL     1      34.461 -15.426 -23.173  0.00  0.00    -0.055 C 
ATOM      6  C   UNL     1      34.564 -14.882 -20.350  0.00  0.00    +0.071 C 
ATOM      7  C   UNL     1      34.279 -14.006 -22.634  0.00  0.00    +0.071 C 
ATOM      8  C   UNL     1      32.778 -13.217 -20.742  0.00  0.00    +0.270 C 
ATOM      9  H   UNL     1      36.227 -15.769 -22.218  0.00  0.00    -0.079 HD
ENDROOT
BRANCH   2  10
ATOM     10  C   UNL     1      35.508 -17.568 -22.819  0.00  0.00    -0.050 C 
BRANCH  10  13
ATOM     11  O   UNL     1      33.984 -21.189 -19.829  0.00  0.00    -0.435 OA
ATOM     12  O   UNL     1      36.145 -21.388 -18.779  0.00  0.00    -0.435 OA
ATOM     13  C   UNL     1      35.716 -18.585 -21.729  0.00  0.00    -0.040 C 
ATOM     14  C   UNL     1      34.653 -19.396 -21.345  0.00  0.00    +0.034 C 
ATOM     15  C   UNL     1      36.974 -18.692 -21.126  0.00  0.00    -0.003 C 
ATOM     16  C   UNL     1      34.891 -20.313 -20.341  0.00  0.00    +0.176 C 
ATOM     17  C   UNL     1      36.124 -20.426 -19.742  0.00  0.00    +0.176 C 
ATOM     18  C   UNL     1      37.188 -19.629 -20.112  0.00  0.00    +0.040 C 
ATOM     19  C   UNL     1      34.785 -21.867 -18.840  0.00  0.00    +0.429 C 
ENDBRANCH  10  13
ENDBRANCH   2  10
BRANCH   8  20
ATOM     20  C   UNL     1      32.030 -12.366 -21.737  0.00  0.00    +0.290 C 
BRANCH  20  21
ATOM     21  O   UNL     1      31.164 -11.544 -20.994  0.00  0.00    -0.466 OA
BRANCH  21  23
ATOM     22 CL   UNL     1      32.513  -5.840 -20.637  0.00  0.00    -0.082 Cl
ATOM     23  C   UNL     1      31.479 -10.206 -20.911  0.00  0.00    +0.139 C 
ATOM     24  C   UNL     1      31.631  -9.469 -22.074  0.00  0.00    +0.038 C 
ATOM     25  C   UNL     1      31.639  -9.620 -19.663  0.00  0.00    +0.038 C 
ATOM     26  C   UNL     1      31.952  -8.114 -21.990  0.00  0.00    +0.015 C 
ATOM     27  C   UNL     1      31.960  -8.265 -19.579  0.00  0.00    +0.015 C 
ATOM     28  C   UNL     1      32.116  -7.512 -20.741  0.00  0.00    +0.058 C 
ENDBRANCH  21  23
ENDBRANCH  20  21
ENDBRANCH   8  20
TORSDOF 5
ENDMDL
MODEL 5
REMARK VINA RESULT:     -10.5      4.623      6.789
REMARK  Name = 3351
REMARK  5 active torsions:
REMARK  status: ('A' for Active; 'I' for Inactive)
REMARK    1  A    between atoms: N_2  and  C_10
REMARK    2  A    between atoms: C_8  and  C_20
REMARK    3  A    between atoms: C_10  and  C_13
REMARK    4  A    between atoms: C_20  and  O_21
REMARK    5  A    between atoms: O_21  and  C_23
REMARK                            x       y       z     vdW  Elec       q    Type
REMARK                         _______ _______ _______ _____ _____    ______ ____
ROOT
ATOM      1  O   UNL     1      36.196 -22.409 -17.861  0.00  0.00    -0.271 OA
ATOM      2  N   UNL     1      35.568 -18.973 -21.426  0.00  0.00    +0.392 N 
ATOM      3  N   UNL     1      35.233 -20.846 -19.285  0.00  0.00    -0.281 N 
ATOM      4  C   UNL     1      36.734 -19.647 -20.836  0.00  0.00    -0.055 C 
ATOM      5  C   UNL     1      34.390 -19.851 -21.383  0.00  0.00    -0.055 C 
ATOM      6  C   UNL     1      36.453 -20.045 -19.388  0.00  0.00    +0.071 C 
ATOM      7  C   UNL     1      34.064 -20.261 -19.945  0.00  0.00    +0.071 C 
ATOM      8  C   UNL     1      35.224 -21.998 -18.499  0.00  0.00    +0.270 C 
ATOM      9  H   UNL     1      35.367 -18.137 -20.877  0.00  0.00    -0.079 HD
ENDROOT
BRANCH   2  10
ATOM     10  C   UNL     1      35.853 -18.563 -22.800  0.00  0.00    -0.050 C 
BRANCH  10  13
ATOM     11  O   UNL     1      33.360 -15.553 -25.818  0.00  0.00    -0.435 OA
ATOM     12  O   UNL     1      33.350 -13.759 -24.209  0.00  0.00    -0.435 OA
ATOM     13  C   UNL     1      35.188 -17.257 -23.145  0.00  0.00    -0.040 C 
ATOM     14  C   UNL     1      34.589 -17.107 -24.392  0.00  0.00    +0.034 C 
ATOM     15  C   UNL     1      35.188 -16.221 -22.203  0.00  0.00    -0.003 C 
ATOM     16  C   UNL     1      33.993 -15.892 -24.662  0.00  0.00    +0.176 C 
ATOM     17  C   UNL     1      33.988 -14.868 -23.743  0.00  0.00    +0.176 C 
ATOM     18  C   UNL     1      34.578 -15.001 -22.504  0.00  0.00    +0.040 C 
ATOM     19  C   UNL     1      32.955 -14.201 -25.525  0.00  0.00    +0.429 C 
ENDBRANCH  10  13
ENDBRANCH   2  10
BRANCH   8  20
ATOM     20  C   UNL     1      33.930 -22.770 -18.450  0.00  0.00    +0.290 C 
BRANCH  20  21
ATOM     21  O   UNL     1      34.090 -23.763 -17.468  0.00  0.00    -0.466 OA
BRANCH  21  23
ATOM     22 CL   UNL     1      30.987 -23.183 -12.516  0.00  0.00    -0.082 Cl
ATOM     23  C   UNL     1      33.362 -23.629 -16.307  0.00  0.00    +0.139 C 
ATOM     24  C   UNL     1      32.043 -23.207 -16.375  0.00  0.00    +0.038 C 
ATOM     25  C   UNL     1      33.961 -23.916 -15.089  0.00  0.00    +0.038 C 
ATOM     26  C   UNL     1      31.305 -23.069 -15.199  0.00  0.00    +0.015 C 
ATOM     27  C   UNL     1      33.224 -23.777 -13.913  0.00  0.00    +0.015 C 
ATOM     28  C   UNL     1      31.897 -23.354 -13.967  0.00  0.00    +0.058 C 
ENDBRANCH  21  23
ENDBRANCH  20  21
ENDBRANCH   8  20
TORSDOF 5
ENDMDL
MODEL 6
REMARK VINA RESULT:     -10.4      8.502     11.492
REMARK  Name = 3351
REMARK  5 active torsions:
REMARK  status: ('A' for Active; 'I' for Inactive)
REMARK    1  A    between atoms: N_2  and  C_10
REMARK    2  A    between atoms: C_8  and  C_20
REMARK    3  A    between atoms: C_10  and  C_13
REMARK    4  A    between atoms: C_20  and  O_21
REMARK    5  A    between atoms: O_21  and  C_23
REMARK                            x       y       z     vdW  Elec       q    Type
REMARK                         _______ _______ _______ _____ _____    ______ ____
ROOT
ATOM      1  O   UNL     1      37.808 -22.845 -14.314  0.00  0.00    -0.271 OA
ATOM      2  N   UNL     1      33.007 -24.187 -14.065  0.00  0.00    +0.392 N 
ATOM      3  N   UNL     1      35.620 -23.363 -14.900  0.00  0.00    -0.281 N 
ATOM      4  C   UNL     1      34.119 -24.149 -13.104  0.00  0.00    -0.055 C 
ATOM      5  C   UNL     1      33.166 -23.135 -15.078  0.00  0.00    -0.055 C 
ATOM      6  C   UNL     1      35.458 -24.334 -13.818  0.00  0.00    +0.071 C 
ATOM      7  C   UNL     1      34.490 -23.293 -15.830  0.00  0.00    +0.071 C 
ATOM      8  C   UNL     1      36.829 -22.685 -15.048  0.00  0.00    +0.270 C 
ATOM      9  H   UNL     1      33.018 -25.093 -14.536  0.00  0.00    -0.079 HD
ENDROOT
BRANCH   2  10
ATOM     10  C   UNL     1      31.726 -24.045 -13.374  0.00  0.00    -0.050 C 
BRANCH  10  13
ATOM     11  O   UNL     1      28.192 -21.849 -16.033  0.00  0.00    -0.435 OA
ATOM     12  O   UNL     1      27.406 -23.943 -16.931  0.00  0.00    -0.435 OA
ATOM     13  C   UNL     1      30.567 -24.055 -14.334  0.00  0.00    -0.040 C 
ATOM     14  C   UNL     1      29.966 -22.851 -14.688  0.00  0.00    +0.034 C 
ATOM     15  C   UNL     1      30.118 -25.277 -14.849  0.00  0.00    -0.003 C 
ATOM     16  C   UNL     1      28.906 -22.911 -15.570  0.00  0.00    +0.176 C 
ATOM     17  C   UNL     1      28.458 -24.106 -16.083  0.00  0.00    +0.176 C 
ATOM     18  C   UNL     1      29.043 -25.308 -15.742  0.00  0.00    +0.040 C 
ATOM     19  C   UNL     1      27.244 -22.510 -16.895  0.00  0.00    +0.429 C 
ENDBRANCH  10  13
ENDBRANCH   2  10
BRANCH   8  20
ATOM     20  C   UNL     1      36.914 -21.697 -16.184  0.00  0.00    +0.290 C 
BRANCH  20  21
ATOM     21  O   UNL     1      36.544 -22.391 -17.350  0.00  0.00    -0.466 OA
BRANCH  21  23
ATOM     22 CL   UNL     1      34.672 -19.206 -21.914  0.00  0.00    -0.082 Cl
ATOM     23  C   UNL     1      36.104 -21.643 -18.419  0.00  0.00    +0.139 C 
ATOM     24  C   UNL     1      34.789 -21.767 -18.842  0.00  0.00    +0.038 C 
ATOM     25  C   UNL     1      36.984 -20.780 -19.055  0.00  0.00    +0.038 C 
ATOM     26  C   UNL     1      34.344 -21.011 -19.927  0.00  0.00    +0.015 C 
ATOM     27  C   UNL     1      36.539 -20.024 -20.140  0.00  0.00    +0.015 C 
ATOM     28  C   UNL     1      35.220 -20.139 -20.576  0.00  0.00    +0.058 C 
ENDBRANCH  21  23
ENDBRANCH  20  21
ENDBRANCH   8  20
TORSDOF 5
ENDMDL
MODEL 7
REMARK VINA RESULT:     -10.3      3.774      9.757
REMARK  Name = 3351
REMARK  5 active torsions:
REMARK  status: ('A' for Active; 'I' for Inactive)
REMARK    1  A    between atoms: N_2  and  C_10
REMARK    2  A    between atoms: C_8  and  C_20
REMARK    3  A    between atoms: C_10  and  C_13
REMARK    4  A    between atoms: C_20  and  O_21
REMARK    5  A    between atoms: O_21  and  C_23
REMARK                            x       y       z     vdW  Elec       q    Type
REMARK                         _______ _______ _______ _____ _____    ______ ____
ROOT
ATOM      1  O   UNL     1      34.392 -16.375 -25.122  0.00  0.00    -0.271 OA
ATOM      2  N   UNL     1      35.615 -19.105 -21.127  0.00  0.00    +0.392 N 
ATOM      3  N   UNL     1      34.646 -17.102 -22.930  0.00  0.00    -0.281 N 
ATOM      4  C   UNL     1      35.675 -19.319 -22.580  0.00  0.00    -0.055 C 
ATOM      5  C   UNL     1      35.774 -17.679 -20.809  0.00  0.00    -0.055 C 
ATOM      6  C   UNL     1      34.583 -18.518 -23.290  0.00  0.00    +0.071 C 
ATOM      7  C   UNL     1      34.689 -16.842 -21.489  0.00  0.00    +0.071 C 
ATOM      8  C   UNL     1      34.540 -16.128 -23.922  0.00  0.00    +0.270 C 
ATOM      9  H   UNL     1      34.700 -19.410 -20.793  0.00  0.00    -0.079 HD
ENDROOT
BRANCH   2  10
ATOM     10  C   UNL     1      36.638 -19.900 -20.449  0.00  0.00    -0.050 C 
BRANCH  10  13
ATOM     11  O   UNL     1      32.950 -22.509 -18.456  0.00  0.00    -0.435 OA
ATOM     12  O   UNL     1      34.310 -23.234 -16.603  0.00  0.00    -0.435 OA
ATOM     13  C   UNL     1      36.045 -20.797 -19.396  0.00  0.00    -0.040 C 
ATOM     14  C   UNL     1      34.717 -21.195 -19.511  0.00  0.00    +0.034 C 
ATOM     15  C   UNL     1      36.843 -21.212 -18.323  0.00  0.00    -0.003 C 
ATOM     16  C   UNL     1      34.217 -22.018 -18.521  0.00  0.00    +0.176 C 
ATOM     17  C   UNL     1      34.994 -22.431 -17.463  0.00  0.00    +0.176 C 
ATOM     18  C   UNL     1      36.312 -22.045 -17.335  0.00  0.00    +0.040 C 
ATOM     19  C   UNL     1      33.015 -23.279 -17.239  0.00  0.00    +0.429 C 
ENDBRANCH  10  13
ENDBRANCH   2  10
BRANCH   8  20
ATOM     20  C   UNL     1      34.619 -14.692 -23.470  0.00  0.00    +0.290 C 
BRANCH  20  21
ATOM     21  O   UNL     1      33.331 -14.150 -23.621  0.00  0.00    -0.466 OA
BRANCH  21  23
ATOM     22 CL   UNL     1      31.353 -10.669 -19.326  0.00  0.00    -0.082 Cl
ATOM     23  C   UNL     1      32.865 -13.334 -22.615  0.00  0.00    +0.139 C 
ATOM     24  C   UNL     1      32.540 -12.017 -22.901  0.00  0.00    +0.038 C 
ATOM     25  C   UNL     1      32.731 -13.844 -21.332  0.00  0.00    +0.038 C 
ATOM     26  C   UNL     1      32.071 -11.189 -21.881  0.00  0.00    +0.015 C 
ATOM     27  C   UNL     1      32.262 -13.016 -20.311  0.00  0.00    +0.015 C 
ATOM     28  C   UNL     1      31.931 -11.690 -20.585  0.00  0.00    +0.058 C 
ENDBRANCH  21  23
ENDBRANCH  20  21
ENDBRANCH   8  20
TORSDOF 5
ENDMDL
MODEL 8
REMARK VINA RESULT:     -10.3      7.845     13.077
REMARK  Name = 3351
REMARK  5 active torsions:
REMARK  status: ('A' for Active; 'I' for Inactive)
REMARK    1  A    between atoms: N_2  and  C_10
REMARK    2  A    between atoms: C_8  and  C_20
REMARK    3  A    between atoms: C_10  and  C_13
REMARK    4  A    between atoms: C_20  and  O_21
REMARK    5  A    between atoms: O_21  and  C_23
REMARK                            x       y       z     vdW  Elec       q    Type
REMARK                         _______ _______ _______ _____ _____    ______ ____
ROOT
ATOM      1  O   UNL     1      31.410 -23.329 -16.873  0.00  0.00    -0.271 OA
ATOM      2  N   UNL     1      34.769 -23.382 -13.181  0.00  0.00    +0.392 N 
ATOM      3  N   UNL     1      33.338 -22.967 -15.628  0.00  0.00    -0.281 N 
ATOM      4  C   UNL     1      33.376 -23.833 -13.316  0.00  0.00    -0.055 C 
ATOM      5  C   UNL     1      35.464 -23.468 -14.473  0.00  0.00    -0.055 C 
ATOM      6  C   UNL     1      32.631 -22.986 -14.348  0.00  0.00    +0.071 C 
ATOM      7  C   UNL     1      34.758 -22.620 -15.533  0.00  0.00    +0.071 C 
ATOM      8  C   UNL     1      32.629 -23.149 -16.815  0.00  0.00    +0.270 C 
ATOM      9  H   UNL     1      34.765 -22.407 -12.881  0.00  0.00    -0.079 HD
ENDROOT
BRANCH   2  10
ATOM     10  C   UNL     1      35.468 -24.171 -12.169  0.00  0.00    -0.050 C 
BRANCH  10  13
ATOM     11  O   UNL     1      40.217 -24.894 -13.313  0.00  0.00    -0.435 OA
ATOM     12  O   UNL     1      39.765 -27.030 -14.334  0.00  0.00    -0.435 OA
ATOM     13  C   UNL     1      36.600 -24.968 -12.761  0.00  0.00    -0.040 C 
ATOM     14  C   UNL     1      37.893 -24.456 -12.708  0.00  0.00    +0.034 C 
ATOM     15  C   UNL     1      36.327 -26.207 -13.352  0.00  0.00    -0.003 C 
ATOM     16  C   UNL     1      38.897 -25.222 -13.265  0.00  0.00    +0.176 C 
ATOM     17  C   UNL     1      38.639 -26.441 -13.848  0.00  0.00    +0.176 C 
ATOM     18  C   UNL     1      37.363 -26.962 -13.908  0.00  0.00    +0.040 C 
ATOM     19  C   UNL     1      40.761 -26.044 -13.991  0.00  0.00    +0.429 C 
ENDBRANCH  10  13
ENDBRANCH   2  10
BRANCH   8  20
ATOM     20  C   UNL     1      33.432 -23.121 -18.091  0.00  0.00    +0.290 C 
BRANCH  20  21
ATOM     21  O   UNL     1      32.984 -22.008 -18.825  0.00  0.00    -0.466 OA
BRANCH  21  23
ATOM     22 CL   UNL     1      37.057 -18.636 -21.378  0.00  0.00    -0.082 Cl
ATOM     23  C   UNL     1      33.939 -21.219 -19.424  0.00  0.00    +0.139 C 
ATOM     24  C   UNL     1      35.278 -21.424 -19.126  0.00  0.00    +0.038 C 
ATOM     25  C   UNL     1      33.546 -20.231 -20.316  0.00  0.00    +0.038 C 
ATOM     26  C   UNL     1      36.246 -20.622 -19.732  0.00  0.00    +0.015 C 
ATOM     27  C   UNL     1      34.514 -19.430 -20.921  0.00  0.00    +0.015 C 
ATOM     28  C   UNL     1      35.863 -19.625 -20.630  0.00  0.00    +0.058 C 
ENDBRANCH  21  23
ENDBRANCH  20  21
ENDBRANCH   8  20
TORSDOF 5
ENDMDL
MODEL 9
REMARK VINA RESULT:     -10.1      3.919     10.171
REMARK  Name = 3351
REMARK  5 active torsions:
REMARK  status: ('A' for Active; 'I' for Inactive)
REMARK    1  A    between atoms: N_2  and  C_10
REMARK    2  A    between atoms: C_8  and  C_20
REMARK    3  A    between atoms: C_10  and  C_13
REMARK    4  A    between atoms: C_20  and  O_21
REMARK    5  A    between atoms: O_21  and  C_23
REMARK                            x       y       z     vdW  Elec       q    Type
REMARK                         _______ _______ _______ _____ _____    ______ ____
ROOT
ATOM      1  O   UNL     1      32.449 -13.397 -19.644  0.00  0.00    -0.271 OA
ATOM      2  N   UNL     1      35.498 -16.438 -22.168  0.00  0.00    +0.392 N 
ATOM      3  N   UNL     1      33.891 -14.250 -21.254  0.00  0.00    -0.281 N 
ATOM      4  C   UNL     1      34.837 -16.495 -20.857  0.00  0.00    -0.055 C 
ATOM      5  C   UNL     1      34.689 -15.661 -23.119  0.00  0.00    -0.055 C 
ATOM      6  C   UNL     1      34.615 -15.090 -20.300  0.00  0.00    +0.071 C 
ATOM      7  C   UNL     1      34.457 -14.238 -22.605  0.00  0.00    +0.071 C 
ATOM      8  C   UNL     1      32.835 -13.453 -20.815  0.00  0.00    +0.270 C 
ATOM      9  H   UNL     1      36.399 -15.971 -22.056  0.00  0.00    -0.079 HD
ENDROOT
BRANCH   2  10
ATOM     10  C   UNL     1      35.740 -17.785 -22.682  0.00  0.00    -0.050 C 
BRANCH  10  13
ATOM     11  O   UNL     1      37.027 -20.711 -18.918  0.00  0.00    -0.435 OA
ATOM     12  O   UNL     1      34.832 -21.696 -18.783  0.00  0.00    -0.435 OA
ATOM     13  C   UNL     1      35.460 -18.840 -21.645  0.00  0.00    -0.040 C 
ATOM     14  C   UNL     1      36.477 -19.229 -20.779  0.00  0.00    +0.034 C 
ATOM     15  C   UNL     1      34.182 -19.406 -21.575  0.00  0.00    -0.003 C 
ATOM     16  C   UNL     1      36.173 -20.199 -19.845  0.00  0.00    +0.176 C 
ATOM     17  C   UNL     1      34.919 -20.762 -19.768  0.00  0.00    +0.176 C 
ATOM     18  C   UNL     1      33.901 -20.386 -20.620  0.00  0.00    +0.040 C 
ATOM     19  C   UNL     1      36.171 -21.658 -18.248  0.00  0.00    +0.429 C 
ENDBRANCH  10  13
ENDBRANCH   2  10
BRANCH   8  20
ATOM     20  C   UNL     1      32.137 -12.621 -21.861  0.00  0.00    +0.290 C 
BRANCH  20  21
ATOM     21  O   UNL     1      31.193 -11.830 -21.183  0.00  0.00    -0.466 OA
BRANCH  21  23
ATOM     22 CL   UNL     1      32.305  -6.080 -20.758  0.00  0.00    -0.082 Cl
ATOM     23  C   UNL     1      31.452 -10.482 -21.084  0.00  0.00    +0.139 C 
ATOM     24  C   UNL     1      31.460  -9.703 -22.231  0.00  0.00    +0.038 C 
ATOM     25  C   UNL     1      31.701  -9.926 -19.837  0.00  0.00    +0.038 C 
ATOM     26  C   UNL     1      31.725  -8.337 -22.130  0.00  0.00    +0.015 C 
ATOM     27  C   UNL     1      31.966  -8.560 -19.737  0.00  0.00    +0.015 C 
ATOM     28  C   UNL     1      31.978  -7.765 -20.882  0.00  0.00    +0.058 C 
ENDBRANCH  21  23
ENDBRANCH  20  21
ENDBRANCH   8  20
TORSDOF 5
ENDMDL
