MODEL 1
REMARK VINA RESULT:     -10.8      0.000      0.000
REMARK  Name = 448202
REMARK  4 active torsions:
REMARK  status: ('A' for Active; 'I' for Inactive)
REMARK    1  A    between atoms: C_3  and  C_20
REMARK    2  A    between atoms: C_8  and  C_31
REMARK    3  A    between atoms: C_14  and  N_23
REMARK    4  A    between atoms: C_34  and  N_37
REMARK                            x       y       z     vdW  Elec       q    Type
REMARK                         _______ _______ _______ _____ _____    ______ ____
ROOT
ATOM      1  N   UNL     1      34.838 -15.701 -21.341  0.00  0.00    -0.315 N 
ATOM      2  N   UNL     1      34.442 -16.810 -23.226  0.00  0.00    -0.315 N 
ATOM      3  C   UNL     1      34.153 -12.671 -23.383  0.00  0.00    +0.016 C 
ATOM      4  C   UNL     1      34.550 -14.740 -22.276  0.00  0.00    +0.059 C 
ATOM      5  C   UNL     1      34.484 -13.349 -22.204  0.00  0.00    +0.015 C 
ATOM      6  C   UNL     1      34.307 -15.458 -23.445  0.00  0.00    +0.059 C 
ATOM      7  C   UNL     1      33.903 -13.364 -24.570  0.00  0.00    +0.000 C 
ATOM      8  C   UNL     1      34.761 -16.920 -21.955  0.00  0.00    +0.168 C 
ATOM      9  C   UNL     1      33.976 -14.762 -24.620  0.00  0.00    +0.015 C 
ATOM     10  H   UNL     1      35.061 -15.541 -20.395  0.00  0.00    +0.149 HD
ATOM     11  H   UNL     1      34.326 -17.537 -23.879  0.00  0.00    +0.149 HD
ENDROOT
BRANCH   3  20
ATOM     12  N   UNL     1      32.918 -10.576 -23.030  0.00  0.00    -0.314 N 
ATOM     13  N   UNL     1      35.038 -10.396 -23.670  0.00  0.00    -0.315 N 
ATOM     14  C   UNL     1      32.932  -6.834 -23.070  0.00  0.00    +0.049 C 
ATOM     15  C   UNL     1      32.357  -8.113 -22.884  0.00  0.00    +0.030 C 
ATOM     16  C   UNL     1      33.161  -9.229 -23.117  0.00  0.00    +0.061 C 
ATOM     17  C   UNL     1      34.282  -6.742 -23.477  0.00  0.00    +0.016 C 
ATOM     18  C   UNL     1      34.492  -9.143 -23.517  0.00  0.00    +0.059 C 
ATOM     19  C   UNL     1      35.071  -7.876 -23.704  0.00  0.00    +0.017 C 
ATOM     20  C   UNL     1      34.069 -11.231 -23.370  0.00  0.00    +0.168 C 
ATOM     21  H   UNL     1      32.066 -10.995 -22.770  0.00  0.00    +0.149 HD
ATOM     22  H   UNL     1      35.957 -10.620 -23.944  0.00  0.00    +0.149 HD
BRANCH  14  23
ATOM     23  N   UNL     1      32.174  -5.678 -22.853  0.00  0.00    -0.312 N 
ATOM     24  N   UNL     1      30.495  -3.377 -22.628  0.00  0.00    +0.388 N 
ATOM     25  C   UNL     1      30.889  -5.772 -22.152  0.00  0.00    +0.068 C 
ATOM     26  C   UNL     1      32.287  -4.585 -23.828  0.00  0.00    +0.068 C 
ATOM     27  C   UNL     1      30.486  -4.409 -21.583  0.00  0.00    -0.056 C 
ATOM     28  C   UNL     1      31.841  -3.261 -23.203  0.00  0.00    -0.056 C 
ATOM     29  C   UNL     1      30.057  -2.092 -22.084  0.00  0.00    -0.101 C 
ATOM     30  H   UNL     1      29.845  -3.649 -23.364  0.00  0.00    -0.080 HD
ENDBRANCH  14  23
ENDBRANCH   3  20
BRANCH   8  31
ATOM     31  C   UNL     1      35.008 -18.151 -21.245  0.00  0.00    +0.014 C 
ATOM     32  C   UNL     1      33.943 -18.984 -20.905  0.00  0.00    +0.000 C 
ATOM     33  C   UNL     1      36.311 -18.508 -20.899  0.00  0.00    +0.000 C 
ATOM     34  C   UNL     1      35.484 -20.530 -19.870  0.00  0.00    +0.048 C 
ATOM     35  C   UNL     1      34.181 -20.174 -20.217  0.00  0.00    +0.014 C 
ATOM     36  C   UNL     1      36.549 -19.697 -20.210  0.00  0.00    +0.014 C 
BRANCH  34  37
ATOM     37  N   UNL     1      35.725 -21.734 -19.176  0.00  0.00    -0.304 N 
ATOM     38  C   UNL     1      36.784 -21.813 -18.189  0.00  0.00    +0.112 C 
ATOM     39  C   UNL     1      34.907 -22.904 -19.430  0.00  0.00    +0.112 C 
ENDBRANCH  34  37
ENDBRANCH   8  31
TORSDOF 4
ENDMDL
MODEL 2
REMARK VINA RESULT:     -10.7      1.991     13.072
REMARK  Name = 448202
REMARK  4 active torsions:
REMARK  status: ('A' for Active; 'I' for Inactive)
REMARK    1  A    between atoms: C_3  and  C_20
REMARK    2  A    between atoms: C_8  and  C_31
REMARK    3  A    between atoms: C_14  and  N_23
REMARK    4  A    between atoms: C_34  and  N_37
REMARK                            x       y       z     vdW  Elec       q    Type
REMARK                         _______ _______ _______ _____ _____    ______ ____
ROOT
ATOM      1  N   UNL     1      32.624  -8.494 -24.353  0.00  0.00    -0.315 N 
ATOM      2  N   UNL     1      31.358  -7.873 -22.635  0.00  0.00    -0.315 N 
ATOM      3  C   UNL     1      32.871 -11.738 -22.555  0.00  0.00    +0.016 C 
ATOM      4  C   UNL     1      32.574  -9.584 -23.523  0.00  0.00    +0.059 C 
ATOM      5  C   UNL     1      33.139 -10.857 -23.609  0.00  0.00    +0.015 C 
ATOM      6  C   UNL     1      31.777  -9.172 -22.458  0.00  0.00    +0.059 C 
ATOM      7  C   UNL     1      32.075 -11.352 -21.473  0.00  0.00    +0.000 C 
ATOM      8  C   UNL     1      31.883  -7.498 -23.780  0.00  0.00    +0.168 C 
ATOM      9  C   UNL     1      31.518 -10.068 -21.408  0.00  0.00    +0.015 C 
ATOM     10  H   UNL     1      33.108  -8.439 -25.209  0.00  0.00    +0.149 HD
ATOM     11  H   UNL     1      30.787  -7.340 -22.035  0.00  0.00    +0.149 HD
ENDROOT
BRANCH   3  20
ATOM     12  N   UNL     1      33.614 -13.804 -21.451  0.00  0.00    -0.314 N 
ATOM     13  N   UNL     1      33.812 -13.720 -23.662  0.00  0.00    -0.315 N 
ATOM     14  C   UNL     1      35.077 -17.233 -21.779  0.00  0.00    +0.049 C 
ATOM     15  C   UNL     1      34.542 -16.128 -21.076  0.00  0.00    +0.030 C 
ATOM     16  C   UNL     1      34.155 -15.011 -21.815  0.00  0.00    +0.061 C 
ATOM     17  C   UNL     1      35.194 -17.159 -23.185  0.00  0.00    +0.016 C 
ATOM     18  C   UNL     1      34.269 -14.933 -23.201  0.00  0.00    +0.059 C 
ATOM     19  C   UNL     1      34.799 -16.027 -23.907  0.00  0.00    +0.017 C 
ATOM     20  C   UNL     1      33.427 -13.069 -22.588  0.00  0.00    +0.168 C 
ATOM     21  H   UNL     1      33.399 -13.519 -20.533  0.00  0.00    +0.149 HD
ATOM     22  H   UNL     1      33.781 -13.407 -24.595  0.00  0.00    +0.149 HD
BRANCH  14  23
ATOM     23  N   UNL     1      35.483 -18.381 -21.090  0.00  0.00    -0.312 N 
ATOM     24  N   UNL     1      36.313 -20.848 -19.913  0.00  0.00    +0.388 N 
ATOM     25  C   UNL     1      36.910 -18.709 -21.001  0.00  0.00    +0.068 C 
ATOM     26  C   UNL     1      34.565 -19.526 -21.055  0.00  0.00    +0.068 C 
ATOM     27  C   UNL     1      37.171 -19.660 -19.830  0.00  0.00    -0.056 C 
ATOM     28  C   UNL     1      34.900 -20.448 -19.881  0.00  0.00    -0.056 C 
ATOM     29  C   UNL     1      36.610 -21.773 -18.819  0.00  0.00    -0.101 C 
ATOM     30  H   UNL     1      36.500 -21.328 -20.793  0.00  0.00    -0.080 HD
ENDBRANCH  14  23
ENDBRANCH   3  20
BRANCH   8  31
ATOM     31  C   UNL     1      31.728  -6.206 -24.404  0.00  0.00    +0.014 C 
ATOM     32  C   UNL     1      32.496  -5.875 -25.520  0.00  0.00    +0.000 C 
ATOM     33  C   UNL     1      30.811  -5.289 -23.891  0.00  0.00    +0.000 C 
ATOM     34  C   UNL     1      31.430  -3.709 -25.610  0.00  0.00    +0.048 C 
ATOM     35  C   UNL     1      32.347  -4.626 -26.123  0.00  0.00    +0.014 C 
ATOM     36  C   UNL     1      30.663  -4.040 -24.494  0.00  0.00    +0.014 C 
BRANCH  34  37
ATOM     37  N   UNL     1      31.278  -2.446 -26.220  0.00  0.00    -0.304 N 
ATOM     38  C   UNL     1      29.988  -1.786 -26.231  0.00  0.00    +0.112 C 
ATOM     39  C   UNL     1      32.414  -1.786 -26.832  0.00  0.00    +0.112 C 
ENDBRANCH  34  37
ENDBRANCH   8  31
TORSDOF 4
ENDMDL
MODEL 3
REMARK VINA RESULT:      -8.6      1.327      2.126
REMARK  Name = 448202
REMARK  4 active torsions:
REMARK  status: ('A' for Active; 'I' for Inactive)
REMARK    1  A    between atoms: C_3  and  C_20
REMARK    2  A    between atoms: C_8  and  C_31
REMARK    3  A    between atoms: C_14  and  N_23
REMARK    4  A    between atoms: C_34  and  N_37
REMARK                            x       y       z     vdW  Elec       q    Type
REMARK                         _______ _______ _______ _____ _____    ______ ____
ROOT
ATOM      1  N   UNL     1      34.341 -15.541 -21.224  0.00  0.00    -0.315 N 
ATOM      2  N   UNL     1      34.614 -16.475 -23.223  0.00  0.00    -0.315 N 
ATOM      3  C   UNL     1      33.479 -12.482 -23.152  0.00  0.00    +0.016 C 
ATOM      4  C   UNL     1      34.063 -14.551 -22.131  0.00  0.00    +0.059 C 
ATOM      5  C   UNL     1      33.684 -13.217 -21.979  0.00  0.00    +0.015 C 
ATOM      6  C   UNL     1      34.240 -15.159 -23.372  0.00  0.00    +0.059 C 
ATOM      7  C   UNL     1      33.649 -13.065 -24.411  0.00  0.00    +0.000 C 
ATOM      8  C   UNL     1      34.664 -16.671 -21.924  0.00  0.00    +0.168 C 
ATOM      9  C   UNL     1      34.031 -14.406 -24.540  0.00  0.00    +0.015 C 
ATOM     10  H   UNL     1      34.313 -15.454 -20.244  0.00  0.00    +0.149 HD
ATOM     11  H   UNL     1      34.802 -17.128 -23.935  0.00  0.00    +0.149 HD
ENDROOT
BRANCH   3  20
ATOM     12  N   UNL     1      33.005 -10.291 -24.159  0.00  0.00    -0.314 N 
ATOM     13  N   UNL     1      32.768 -10.456 -21.956  0.00  0.00    -0.315 N 
ATOM     14  C   UNL     1      31.964  -6.729 -23.673  0.00  0.00    +0.049 C 
ATOM     15  C   UNL     1      32.370  -7.856 -24.426  0.00  0.00    +0.030 C 
ATOM     16  C   UNL     1      32.609  -9.046 -23.739  0.00  0.00    +0.061 C 
ATOM     17  C   UNL     1      31.819  -6.856 -22.274  0.00  0.00    +0.016 C 
ATOM     18  C   UNL     1      32.468  -9.176 -22.360  0.00  0.00    +0.059 C 
ATOM     19  C   UNL     1      32.065  -8.061 -21.605  0.00  0.00    +0.017 C 
ATOM     20  C   UNL     1      33.085 -11.097 -23.058  0.00  0.00    +0.168 C 
ATOM     21  H   UNL     1      33.197 -10.555 -25.088  0.00  0.00    +0.149 HD
ATOM     22  H   UNL     1      32.750 -10.815 -21.039  0.00  0.00    +0.149 HD
BRANCH  14  23
ATOM     23  N   UNL     1      31.710  -5.508 -24.308  0.00  0.00    -0.312 N 
ATOM     24  N   UNL     1      31.342  -2.904 -25.423  0.00  0.00    +0.388 N 
ATOM     25  C   UNL     1      32.658  -4.994 -25.301  0.00  0.00    +0.068 C 
ATOM     26  C   UNL     1      30.950  -4.492 -23.569  0.00  0.00    +0.068 C 
ATOM     27  C   UNL     1      31.980  -3.966 -26.210  0.00  0.00    -0.056 C 
ATOM     28  C   UNL     1      30.325  -3.482 -24.535  0.00  0.00    -0.056 C 
ATOM     29  C   UNL     1      30.744  -1.900 -26.303  0.00  0.00    -0.101 C 
ATOM     30  H   UNL     1      32.053  -2.444 -24.854  0.00  0.00    -0.080 HD
ENDBRANCH  14  23
ENDBRANCH   3  20
BRANCH   8  31
ATOM     31  C   UNL     1      35.011 -17.906 -21.264  0.00  0.00    +0.014 C 
ATOM     32  C   UNL     1      36.344 -18.187 -20.968  0.00  0.00    +0.000 C 
ATOM     33  C   UNL     1      34.013 -18.818 -20.922  0.00  0.00    +0.000 C 
ATOM     34  C   UNL     1      35.682 -20.294 -19.989  0.00  0.00    +0.048 C 
ATOM     35  C   UNL     1      36.680 -19.381 -20.330  0.00  0.00    +0.014 C 
ATOM     36  C   UNL     1      34.349 -20.013 -20.285  0.00  0.00    +0.014 C 
BRANCH  34  37
ATOM     37  N   UNL     1      36.021 -21.501 -19.343  0.00  0.00    -0.304 N 
ATOM     38  C   UNL     1      35.406 -22.749 -19.750  0.00  0.00    +0.112 C 
ATOM     39  C   UNL     1      37.000 -21.512 -18.274  0.00  0.00    +0.112 C 
ENDBRANCH  34  37
ENDBRANCH   8  31
TORSDOF 4
ENDMDL
MODEL 4
REMARK VINA RESULT:      -8.3      2.406     13.601
REMARK  Name = 448202
REMARK  4 active torsions:
REMARK  status: ('A' for Active; 'I' for Inactive)
REMARK    1  A    between atoms: C_3  and  C_20
REMARK    2  A    between atoms: C_8  and  C_31
REMARK    3  A    between atoms: C_14  and  N_23
REMARK    4  A    between atoms: C_34  and  N_37
REMARK                            x       y       z     vdW  Elec       q    Type
REMARK                         _______ _______ _______ _____ _____    ______ ____
ROOT
ATOM      1  N   UNL     1      34.007 -14.320 -21.762  0.00  0.00    -0.315 N 
ATOM      2  N   UNL     1      34.572 -14.540 -23.900  0.00  0.00    -0.315 N 
ATOM      3  C   UNL     1      34.856 -17.931 -21.521  0.00  0.00    +0.016 C 
ATOM      4  C   UNL     1      34.372 -15.633 -21.910  0.00  0.00    +0.059 C 
ATOM      5  C   UNL     1      34.425 -16.700 -21.013  0.00  0.00    +0.015 C 
ATOM      6  C   UNL     1      34.721 -15.746 -23.254  0.00  0.00    +0.059 C 
ATOM      7  C   UNL     1      35.214 -18.074 -22.865  0.00  0.00    +0.000 C 
ATOM      8  C   UNL     1      34.143 -13.708 -22.977  0.00  0.00    +0.168 C 
ATOM      9  C   UNL     1      35.152 -16.988 -23.748  0.00  0.00    +0.015 C 
ATOM     10  H   UNL     1      33.700 -13.894 -20.929  0.00  0.00    +0.149 HD
ATOM     11  H   UNL     1      34.750 -14.343 -24.848  0.00  0.00    +0.149 HD
ENDROOT
BRANCH   3  20
ATOM     12  N   UNL     1      35.923 -19.200 -19.707  0.00  0.00    -0.314 N 
ATOM     13  N   UNL     1      34.104 -20.090 -20.621  0.00  0.00    -0.315 N 
ATOM     14  C   UNL     1      35.922 -22.247 -17.534  0.00  0.00    +0.049 C 
ATOM     15  C   UNL     1      36.412 -21.005 -18.002  0.00  0.00    +0.030 C 
ATOM     16  C   UNL     1      35.718 -20.380 -19.039  0.00  0.00    +0.061 C 
ATOM     17  C   UNL     1      34.763 -22.795 -18.129  0.00  0.00    +0.016 C 
ATOM     18  C   UNL     1      34.576 -20.917 -19.628  0.00  0.00    +0.059 C 
ATOM     19  C   UNL     1      34.083 -22.150 -19.168  0.00  0.00    +0.017 C 
ATOM     20  C   UNL     1      34.933 -19.071 -20.641  0.00  0.00    +0.168 C 
ATOM     21  H   UNL     1      36.653 -18.560 -19.542  0.00  0.00    +0.149 HD
ATOM     22  H   UNL     1      33.315 -20.231 -21.193  0.00  0.00    +0.149 HD
BRANCH  14  23
ATOM     23  N   UNL     1      36.577 -22.920 -16.497  0.00  0.00    -0.312 N 
ATOM     24  N   UNL     1      37.893 -24.077 -14.241  0.00  0.00    +0.388 N 
ATOM     25  C   UNL     1      35.791 -23.565 -15.439  0.00  0.00    +0.068 C 
ATOM     26  C   UNL     1      37.909 -22.449 -16.101  0.00  0.00    +0.068 C 
ATOM     27  C   UNL     1      36.624 -24.634 -14.726  0.00  0.00    -0.056 C 
ATOM     28  C   UNL     1      38.674 -23.555 -15.369  0.00  0.00    -0.056 C 
ATOM     29  C   UNL     1      38.655 -25.093 -13.516  0.00  0.00    -0.101 C 
ATOM     30  H   UNL     1      37.692 -23.312 -13.598  0.00  0.00    -0.080 HD
ENDBRANCH  14  23
ENDBRANCH   3  20
BRANCH   8  31
ATOM     31  C   UNL     1      33.839 -12.311 -23.168  0.00  0.00    +0.014 C 
ATOM     32  C   UNL     1      32.628 -11.793 -22.710  0.00  0.00    +0.000 C 
ATOM     33  C   UNL     1      34.755 -11.478 -23.809  0.00  0.00    +0.000 C 
ATOM     34  C   UNL     1      33.250  -9.610 -23.537  0.00  0.00    +0.048 C 
ATOM     35  C   UNL     1      32.333 -10.442 -22.894  0.00  0.00    +0.014 C 
ATOM     36  C   UNL     1      34.460 -10.128 -23.995  0.00  0.00    +0.014 C 
BRANCH  34  37
ATOM     37  N   UNL     1      32.952  -8.244 -23.722  0.00  0.00    -0.304 N 
ATOM     38  C   UNL     1      33.657  -7.229 -22.963  0.00  0.00    +0.112 C 
ATOM     39  C   UNL     1      31.948  -7.835 -24.685  0.00  0.00    +0.112 C 
ENDBRANCH  34  37
ENDBRANCH   8  31
TORSDOF 4
ENDMDL
MODEL 5
REMARK VINA RESULT:      -8.2      1.604     12.971
REMARK  Name = 448202
REMARK  4 active torsions:
REMARK  status: ('A' for Active; 'I' for Inactive)
REMARK    1  A    between atoms: C_3  and  C_20
REMARK    2  A    between atoms: C_8  and  C_31
REMARK    3  A    between atoms: C_14  and  N_23
REMARK    4  A    between atoms: C_34  and  N_37
REMARK                            x       y       z     vdW  Elec       q    Type
REMARK                         _______ _______ _______ _____ _____    ______ ____
ROOT
ATOM      1  N   UNL     1      34.262 -12.232 -22.629  0.00  0.00    -0.315 N 
ATOM      2  N   UNL     1      33.622 -12.415 -24.750  0.00  0.00    -0.315 N 
ATOM      3  C   UNL     1      34.698 -15.920 -22.801  0.00  0.00    +0.016 C 
ATOM      4  C   UNL     1      34.347 -13.569 -22.923  0.00  0.00    +0.059 C 
ATOM      5  C   UNL     1      34.732 -14.674 -22.163  0.00  0.00    +0.015 C 
ATOM      6  C   UNL     1      33.943 -13.658 -24.252  0.00  0.00    +0.059 C 
ATOM      7  C   UNL     1      34.297 -16.040 -24.134  0.00  0.00    +0.000 C 
ATOM      8  C   UNL     1      33.825 -11.585 -23.751  0.00  0.00    +0.168 C 
ATOM      9  C   UNL     1      33.915 -14.916 -24.877  0.00  0.00    +0.015 C 
ATOM     10  H   UNL     1      34.477 -11.813 -21.764  0.00  0.00    +0.149 HD
ATOM     11  H   UNL     1      33.309 -12.196 -25.657  0.00  0.00    +0.149 HD
ENDROOT
BRANCH   3  20
ATOM     12  N   UNL     1      34.258 -17.685 -21.148  0.00  0.00    -0.314 N 
ATOM     13  N   UNL     1      36.228 -17.739 -22.175  0.00  0.00    -0.315 N 
ATOM     14  C   UNL     1      35.476 -20.740 -19.362  0.00  0.00    +0.049 C 
ATOM     15  C   UNL     1      34.545 -19.721 -19.673  0.00  0.00    +0.030 C 
ATOM     16  C   UNL     1      34.911 -18.774 -20.630  0.00  0.00    +0.061 C 
ATOM     17  C   UNL     1      36.722 -20.756 -20.027  0.00  0.00    +0.016 C 
ATOM     18  C   UNL     1      36.138 -18.786 -21.288  0.00  0.00    +0.059 C 
ATOM     19  C   UNL     1      37.068 -19.795 -20.984  0.00  0.00    +0.017 C 
ATOM     20  C   UNL     1      35.085 -17.100 -22.067  0.00  0.00    +0.168 C 
ATOM     21  H   UNL     1      33.355 -17.379 -20.902  0.00  0.00    +0.149 HD
ATOM     22  H   UNL     1      36.984 -17.516 -22.765  0.00  0.00    +0.149 HD
BRANCH  14  23
ATOM     23  N   UNL     1      35.164 -21.716 -18.409  0.00  0.00    -0.312 N 
ATOM     24  N   UNL     1      34.639 -23.883 -16.623  0.00  0.00    +0.388 N 
ATOM     25  C   UNL     1      36.169 -22.110 -17.416  0.00  0.00    +0.068 C 
ATOM     26  C   UNL     1      34.194 -22.754 -18.777  0.00  0.00    +0.068 C 
ATOM     27  C   UNL     1      35.501 -22.770 -16.207  0.00  0.00    -0.056 C 
ATOM     28  C   UNL     1      33.588 -23.391 -17.524  0.00  0.00    -0.056 C 
ATOM     29  C   UNL     1      34.049 -24.539 -15.456  0.00  0.00    -0.101 C 
ATOM     30  H   UNL     1      35.204 -24.570 -17.121  0.00  0.00    -0.080 HD
ENDBRANCH  14  23
ENDBRANCH   3  20
BRANCH   8  31
ATOM     31  C   UNL     1      33.627 -10.156 -23.781  0.00  0.00    +0.014 C 
ATOM     32  C   UNL     1      32.362  -9.634 -24.049  0.00  0.00    +0.000 C 
ATOM     33  C   UNL     1      34.700  -9.298 -23.543  0.00  0.00    +0.000 C 
ATOM     34  C   UNL     1      33.245  -7.394 -23.841  0.00  0.00    +0.048 C 
ATOM     35  C   UNL     1      32.171  -8.252 -24.079  0.00  0.00    +0.014 C 
ATOM     36  C   UNL     1      34.509  -7.917 -23.574  0.00  0.00    +0.014 C 
BRANCH  34  37
ATOM     37  N   UNL     1      33.051  -5.997 -23.870  0.00  0.00    -0.304 N 
ATOM     38  C   UNL     1      33.566  -5.208 -24.972  0.00  0.00    +0.112 C 
ATOM     39  C   UNL     1      32.322  -5.334 -22.807  0.00  0.00    +0.112 C 
ENDBRANCH  34  37
ENDBRANCH   8  31
TORSDOF 4
ENDMDL
