MODEL 1
REMARK VINA RESULT:     -12.4      0.000      0.000
REMARK  Name = 5291
REMARK  6 active torsions:
REMARK  status: ('A' for Active; 'I' for Inactive)
REMARK    1  A    between atoms: C_1  and  N_23
REMARK    2  A    between atoms: C_2  and  N_8
REMARK    3  A    between atoms: C_12  and  C_17
REMARK    4  A    between atoms: C_24  and  C_31
REMARK    5  A    between atoms: C_26  and  C_32
REMARK    6  A    between atoms: C_32  and  N_33
REMARK                            x       y       z     vdW  Elec       q    Type
REMARK                         _______ _______ _______ _____ _____    ______ ____
ROOT
ATOM      1  C   UNL     1      32.892 -23.003 -15.941  0.00  0.00    +0.052 C 
ATOM      2  C   UNL     1      32.861 -23.742 -13.661  0.00  0.00    +0.055 C 
ATOM      3  C   UNL     1      33.446 -22.981 -14.672  0.00  0.00    +0.030 C 
ATOM      4  C   UNL     1      31.732 -24.515 -13.934  0.00  0.00    -0.008 C 
ATOM      5  C   UNL     1      31.773 -23.763 -16.229  0.00  0.00    +0.014 C 
ATOM      6  C   UNL     1      31.188 -24.526 -15.218  0.00  0.00    -0.002 C 
ATOM      7  C   UNL     1      31.086 -25.341 -12.870  0.00  0.00    +0.032 C 
ENDROOT
BRANCH   2   8
ATOM      8  N   UNL     1      33.424 -23.720 -12.366  0.00  0.00    -0.248 N 
ATOM      9  N   UNL     1      35.684 -24.159 -12.823  0.00  0.00    -0.337 NA
ATOM     10  N   UNL     1      34.923 -23.815 -10.563  0.00  0.00    -0.170 NA
ATOM     11  C   UNL     1      34.737 -23.906 -11.895  0.00  0.00    +0.149 C 
ATOM     12  C   UNL     1      36.931 -24.334 -12.338  0.00  0.00    +0.147 C 
ATOM     13  C   UNL     1      37.248 -24.264 -10.997  0.00  0.00    +0.055 C 
ATOM     14  C   UNL     1      36.194 -24.000 -10.147  0.00  0.00    +0.114 C 
ATOM     15  H   UNL     1      32.771 -23.537 -11.653  0.00  0.00    +0.165 HD
BRANCH  12  17
ATOM     16  N   UNL     1      39.033 -23.968 -15.394  0.00  0.00    -0.242 NA
ATOM     17  C   UNL     1      37.942 -24.604 -13.331  0.00  0.00    +0.050 C 
ATOM     18  C   UNL     1      38.785 -25.705 -13.217  0.00  0.00    +0.006 C 
ATOM     19  C   UNL     1      38.106 -23.774 -14.429  0.00  0.00    +0.101 C 
ATOM     20  C   UNL     1      39.750 -25.938 -14.190  0.00  0.00    +0.021 C 
ATOM     21  C   UNL     1      39.833 -25.048 -15.249  0.00  0.00    +0.099 C 
ENDBRANCH  12  17
ENDBRANCH   2   8
BRANCH   1  23
ATOM     22  O   UNL     1      33.863 -23.809 -18.662  0.00  0.00    -0.270 OA
ATOM     23  N   UNL     1      33.485 -22.228 -16.968  0.00  0.00    -0.280 N 
ATOM     24  C   UNL     1      33.927 -22.645 -18.232  0.00  0.00    +0.249 C 
ATOM     25  H   UNL     1      33.603 -21.271 -16.769  0.00  0.00    +0.155 HD
BRANCH  24  31
ATOM     26  C   UNL     1      35.666 -19.649 -20.659  0.00  0.00    -0.043 C 
ATOM     27  C   UNL     1      36.483 -20.458 -19.883  0.00  0.00    -0.006 C 
ATOM     28  C   UNL     1      34.287 -19.807 -20.651  0.00  0.00    -0.006 C 
ATOM     29  C   UNL     1      35.909 -21.447 -19.084  0.00  0.00    +0.004 C 
ATOM     30  C   UNL     1      33.713 -20.795 -19.851  0.00  0.00    +0.004 C 
ATOM     31  C   UNL     1      34.524 -21.616 -19.068  0.00  0.00    +0.054 C 
BRANCH  26  32
ATOM     32  C   UNL     1      36.284 -18.582 -21.523  0.00  0.00    -0.050 C 
BRANCH  32  33
ATOM     33  N   UNL     1      35.274 -17.833 -22.270  0.00  0.00    +0.387 N 
ATOM     34  N   UNL     1      34.428 -16.048 -24.381  0.00  0.00    +0.383 N 
ATOM     35  C   UNL     1      35.226 -18.276 -23.669  0.00  0.00    -0.100 C 
ATOM     36  C   UNL     1      35.535 -16.391 -22.198  0.00  0.00    -0.100 C 
ATOM     37  C   UNL     1      34.168 -17.491 -24.453  0.00  0.00    -0.101 C 
ATOM     38  C   UNL     1      34.478 -15.605 -22.982  0.00  0.00    -0.101 C 
ATOM     39  C   UNL     1      33.417 -15.302 -25.126  0.00  0.00    -0.101 C 
ATOM     40  H   UNL     1      34.367 -18.018 -21.843  0.00  0.00    -0.079 HD
ATOM     41  H   UNL     1      35.335 -15.863 -24.809  0.00  0.00    -0.080 HD
ENDBRANCH  32  33
ENDBRANCH  26  32
ENDBRANCH  24  31
ENDBRANCH   1  23
TORSDOF 6
ENDMDL
MODEL 2
REMARK VINA RESULT:     -11.3      2.911      5.845
REMARK  Name = 5291
REMARK  6 active torsions:
REMARK  status: ('A' for Active; 'I' for Inactive)
REMARK    1  A    between atoms: C_1  and  N_23
REMARK    2  A    between atoms: C_2  and  N_8
REMARK    3  A    between atoms: C_12  and  C_17
REMARK    4  A    between atoms: C_24  and  C_31
REMARK    5  A    between atoms: C_26  and  C_32
REMARK    6  A    between atoms: C_32  and  N_33
REMARK                            x       y       z     vdW  Elec       q    Type
REMARK                         _______ _______ _______ _____ _____    ______ ____
ROOT
ATOM      1  C   UNL     1      34.276 -20.237 -20.080  0.00  0.00    +0.052 C 
ATOM      2  C   UNL     1      33.119 -21.806 -18.685  0.00  0.00    +0.055 C 
ATOM      3  C   UNL     1      33.139 -20.595 -19.376  0.00  0.00    +0.030 C 
ATOM      4  C   UNL     1      34.237 -22.640 -18.707  0.00  0.00    -0.008 C 
ATOM      5  C   UNL     1      35.394 -21.052 -20.112  0.00  0.00    +0.014 C 
ATOM      6  C   UNL     1      35.374 -22.263 -19.419  0.00  0.00    -0.002 C 
ATOM      7  C   UNL     1      34.243 -23.942 -17.974  0.00  0.00    +0.032 C 
ENDROOT
BRANCH   2   8
ATOM      8  N   UNL     1      31.958 -22.174 -17.969  0.00  0.00    -0.248 N 
ATOM      9  N   UNL     1      32.869 -22.882 -15.924  0.00  0.00    -0.337 NA
ATOM     10  N   UNL     1      30.489 -22.930 -16.302  0.00  0.00    -0.170 NA
ATOM     11  C   UNL     1      31.763 -22.685 -16.672  0.00  0.00    +0.149 C 
ATOM     12  C   UNL     1      32.646 -23.374 -14.688  0.00  0.00    +0.147 C 
ATOM     13  C   UNL     1      31.390 -23.664 -14.194  0.00  0.00    +0.055 C 
ATOM     14  C   UNL     1      30.339 -23.420 -15.053  0.00  0.00    +0.114 C 
ATOM     15  H   UNL     1      31.123 -22.047 -18.474  0.00  0.00    +0.165 HD
BRANCH  12  17
ATOM     16  N   UNL     1      34.822 -24.423 -11.851  0.00  0.00    -0.242 NA
ATOM     17  C   UNL     1      33.829 -23.583 -13.889  0.00  0.00    +0.050 C 
ATOM     18  C   UNL     1      35.081 -23.175 -14.339  0.00  0.00    +0.006 C 
ATOM     19  C   UNL     1      33.755 -24.196 -12.649  0.00  0.00    +0.101 C 
ATOM     20  C   UNL     1      36.202 -23.390 -13.547  0.00  0.00    +0.021 C 
ATOM     21  C   UNL     1      36.021 -24.013 -12.322  0.00  0.00    +0.099 C 
ENDBRANCH  12  17
ENDBRANCH   2   8
BRANCH   1  23
ATOM     22  O   UNL     1      36.491 -18.249 -20.444  0.00  0.00    -0.270 OA
ATOM     23  N   UNL     1      34.296 -19.008 -20.783  0.00  0.00    -0.280 N 
ATOM     24  C   UNL     1      35.358 -18.103 -20.930  0.00  0.00    +0.249 C 
ATOM     25  H   UNL     1      33.455 -18.755 -21.227  0.00  0.00    +0.155 HD
BRANCH  24  31
ATOM     26  C   UNL     1      34.505 -14.606 -23.151  0.00  0.00    -0.043 C 
ATOM     27  C   UNL     1      34.560 -14.538 -21.766  0.00  0.00    -0.006 C 
ATOM     28  C   UNL     1      34.725 -15.803 -23.818  0.00  0.00    -0.006 C 
ATOM     29  C   UNL     1      34.842 -15.692 -21.034  0.00  0.00    +0.004 C 
ATOM     30  C   UNL     1      35.007 -16.956 -23.086  0.00  0.00    +0.004 C 
ATOM     31  C   UNL     1      35.066 -16.900 -21.694  0.00  0.00    +0.054 C 
BRANCH  26  32
ATOM     32  C   UNL     1      34.201 -13.361 -23.942  0.00  0.00    -0.050 C 
BRANCH  32  33
ATOM     33  N   UNL     1      33.724 -12.275 -23.088  0.00  0.00    +0.387 N 
ATOM     34  N   UNL     1      31.995 -10.036 -22.490  0.00  0.00    +0.383 N 
ATOM     35  C   UNL     1      32.315 -12.475 -22.728  0.00  0.00    -0.100 C 
ATOM     36  C   UNL     1      33.906 -10.976 -23.746  0.00  0.00    -0.100 C 
ATOM     37  C   UNL     1      31.814 -11.336 -21.833  0.00  0.00    -0.101 C 
ATOM     38  C   UNL     1      33.405  -9.836 -22.852  0.00  0.00    -0.101 C 
ATOM     39  C   UNL     1      31.520  -8.951 -21.635  0.00  0.00    -0.101 C 
ATOM     40  H   UNL     1      34.279 -12.283 -22.232  0.00  0.00    -0.079 HD
ATOM     41  H   UNL     1      31.441 -10.028 -23.346  0.00  0.00    -0.080 HD
ENDBRANCH  32  33
ENDBRANCH  26  32
ENDBRANCH  24  31
ENDBRANCH   1  23
TORSDOF 6
ENDMDL
MODEL 3
REMARK VINA RESULT:     -10.1      8.735     18.107
REMARK  Name = 5291
REMARK  6 active torsions:
REMARK  status: ('A' for Active; 'I' for Inactive)
REMARK    1  A    between atoms: C_1  and  N_23
REMARK    2  A    between atoms: C_2  and  N_8
REMARK    3  A    between atoms: C_12  and  C_17
REMARK    4  A    between atoms: C_24  and  C_31
REMARK    5  A    between atoms: C_26  and  C_32
REMARK    6  A    between atoms: C_32  and  N_33
REMARK                            x       y       z     vdW  Elec       q    Type
REMARK                         _______ _______ _______ _____ _____    ______ ____
ROOT
ATOM      1  C   UNL     1      32.252  -7.240 -22.693  0.00  0.00    +0.052 C 
ATOM      2  C   UNL     1      31.562  -5.038 -23.346  0.00  0.00    +0.055 C 
ATOM      3  C   UNL     1      31.788  -6.375 -23.670  0.00  0.00    +0.030 C 
ATOM      4  C   UNL     1      31.805  -4.585 -22.049  0.00  0.00    -0.008 C 
ATOM      5  C   UNL     1      32.498  -6.807 -21.402  0.00  0.00    +0.014 C 
ATOM      6  C   UNL     1      32.274  -5.469 -21.077  0.00  0.00    -0.002 C 
ATOM      7  C   UNL     1      31.574  -3.157 -21.673  0.00  0.00    +0.032 C 
ENDROOT
BRANCH   2   8
ATOM      8  N   UNL     1      31.087  -4.156 -24.341  0.00  0.00    -0.248 N 
ATOM      9  N   UNL     1      32.481  -4.690 -26.152  0.00  0.00    -0.337 NA
ATOM     10  N   UNL     1      30.783  -2.992 -26.356  0.00  0.00    -0.170 NA
ATOM     11  C   UNL     1      31.468  -3.936 -25.678  0.00  0.00    +0.149 C 
ATOM     12  C   UNL     1      32.821  -4.453 -27.436  0.00  0.00    +0.147 C 
ATOM     13  C   UNL     1      32.196  -3.515 -28.233  0.00  0.00    +0.055 C 
ATOM     14  C   UNL     1      31.175  -2.807 -27.634  0.00  0.00    +0.114 C 
ATOM     15  H   UNL     1      30.345  -3.584 -24.041  0.00  0.00    +0.165 HD
BRANCH  12  17
ATOM     16  N   UNL     1      36.145  -6.125 -27.658  0.00  0.00    -0.242 NA
ATOM     17  C   UNL     1      33.904  -5.260 -27.943  0.00  0.00    +0.050 C 
ATOM     18  C   UNL     1      33.788  -5.940 -29.151  0.00  0.00    +0.006 C 
ATOM     19  C   UNL     1      35.092  -5.385 -27.241  0.00  0.00    +0.101 C 
ATOM     20  C   UNL     1      34.849  -6.710 -29.613  0.00  0.00    +0.021 C 
ATOM     21  C   UNL     1      35.995  -6.770 -28.837  0.00  0.00    +0.099 C 
ENDBRANCH  12  17
ENDBRANCH   2   8
BRANCH   1  23
ATOM     22  O   UNL     1      31.907  -9.719 -21.042  0.00  0.00    -0.270 OA
ATOM     23  N   UNL     1      32.480  -8.598 -23.023  0.00  0.00    -0.280 N 
ATOM     24  C   UNL     1      32.306  -9.733 -22.218  0.00  0.00    +0.249 C 
ATOM     25  H   UNL     1      32.804  -8.768 -23.937  0.00  0.00    +0.155 HD
BRANCH  24  31
ATOM     26  C   UNL     1      33.314 -13.436 -23.997  0.00  0.00    -0.043 C 
ATOM     27  C   UNL     1      32.313 -13.389 -23.037  0.00  0.00    -0.006 C 
ATOM     28  C   UNL     1      33.989 -12.286 -24.382  0.00  0.00    -0.006 C 
ATOM     29  C   UNL     1      31.980 -12.168 -22.451  0.00  0.00    +0.004 C 
ATOM     30  C   UNL     1      33.656 -11.065 -23.796  0.00  0.00    +0.004 C 
ATOM     31  C   UNL     1      32.652 -11.006 -22.831  0.00  0.00    +0.054 C 
BRANCH  26  32
ATOM     32  C   UNL     1      33.673 -14.753 -24.631  0.00  0.00    -0.050 C 
BRANCH  32  33
ATOM     33  N   UNL     1      34.017 -15.763 -23.631  0.00  0.00    +0.387 N 
ATOM     34  N   UNL     1      35.884 -17.458 -22.216  0.00  0.00    +0.383 N 
ATOM     35  C   UNL     1      34.937 -15.212 -22.629  0.00  0.00    -0.100 C 
ATOM     36  C   UNL     1      34.602 -16.949 -24.268  0.00  0.00    -0.100 C 
ATOM     37  C   UNL     1      35.298 -16.271 -21.581  0.00  0.00    -0.101 C 
ATOM     38  C   UNL     1      34.965 -18.008 -23.221  0.00  0.00    -0.101 C 
ATOM     39  C   UNL     1      36.225 -18.467 -21.217  0.00  0.00    -0.101 C 
ATOM     40  H   UNL     1      33.157 -16.043 -23.159  0.00  0.00    -0.079 HD
ATOM     41  H   UNL     1      36.744 -17.178 -22.688  0.00  0.00    -0.080 HD
ENDBRANCH  32  33
ENDBRANCH  26  32
ENDBRANCH  24  31
ENDBRANCH   1  23
TORSDOF 6
ENDMDL
MODEL 4
REMARK VINA RESULT:      -9.8      3.741      7.301
REMARK  Name = 5291
REMARK  6 active torsions:
REMARK  status: ('A' for Active; 'I' for Inactive)
REMARK    1  A    between atoms: C_1  and  N_23
REMARK    2  A    between atoms: C_2  and  N_8
REMARK    3  A    between atoms: C_12  and  C_17
REMARK    4  A    between atoms: C_24  and  C_31
REMARK    5  A    between atoms: C_26  and  C_32
REMARK    6  A    between atoms: C_32  and  N_33
REMARK                            x       y       z     vdW  Elec       q    Type
REMARK                         _______ _______ _______ _____ _____    ______ ____
ROOT
ATOM      1  C   UNL     1      35.185 -18.300 -21.110  0.00  0.00    +0.052 C 
ATOM      2  C   UNL     1      34.552 -20.337 -20.015  0.00  0.00    +0.055 C 
ATOM      3  C   UNL     1      34.196 -19.114 -20.582  0.00  0.00    +0.030 C 
ATOM      4  C   UNL     1      35.891 -20.728 -19.982  0.00  0.00    -0.008 C 
ATOM      5  C   UNL     1      36.517 -18.673 -21.086  0.00  0.00    +0.014 C 
ATOM      6  C   UNL     1      36.873 -19.896 -20.517  0.00  0.00    -0.002 C 
ATOM      7  C   UNL     1      36.300 -22.032 -19.379  0.00  0.00    +0.032 C 
ENDROOT
BRANCH   2   8
ATOM      8  N   UNL     1      33.544 -21.168 -19.477  0.00  0.00    -0.248 N 
ATOM      9  N   UNL     1      34.603 -22.017 -17.562  0.00  0.00    -0.337 NA
ATOM     10  N   UNL     1      32.347 -22.659 -18.116  0.00  0.00    -0.170 NA
ATOM     11  C   UNL     1      33.495 -21.985 -18.333  0.00  0.00    +0.149 C 
ATOM     12  C   UNL     1      34.523 -22.811 -16.474  0.00  0.00    +0.147 C 
ATOM     13  C   UNL     1      33.404 -23.549 -16.145  0.00  0.00    +0.055 C 
ATOM     14  C   UNL     1      32.336 -23.433 -17.010  0.00  0.00    +0.114 C 
ATOM     15  H   UNL     1      32.714 -21.177 -20.006  0.00  0.00    +0.165 HD
BRANCH  12  17
ATOM     16  N   UNL     1      36.713 -23.290 -13.497  0.00  0.00    -0.242 NA
ATOM     17  C   UNL     1      35.707 -22.843 -15.650  0.00  0.00    +0.050 C 
ATOM     18  C   UNL     1      36.948 -22.481 -16.163  0.00  0.00    +0.006 C 
ATOM     19  C   UNL     1      35.644 -23.237 -14.323  0.00  0.00    +0.101 C 
ATOM     20  C   UNL     1      38.071 -22.523 -15.345  0.00  0.00    +0.021 C 
ATOM     21  C   UNL     1      37.902 -22.931 -14.031  0.00  0.00    +0.099 C 
ENDBRANCH  12  17
ENDBRANCH   2   8
BRANCH   1  23
ATOM     22  O   UNL     1      34.973 -17.491 -23.989  0.00  0.00    -0.270 OA
ATOM     23  N   UNL     1      34.824 -17.059 -21.687  0.00  0.00    -0.280 N 
ATOM     24  C   UNL     1      34.736 -16.720 -23.046  0.00  0.00    +0.249 C 
ATOM     25  H   UNL     1      34.605 -16.339 -21.052  0.00  0.00    +0.155 HD
BRANCH  24  31
ATOM     26  C   UNL     1      33.651 -12.719 -23.888  0.00  0.00    -0.043 C 
ATOM     27  C   UNL     1      33.409 -13.706 -24.833  0.00  0.00    -0.006 C 
ATOM     28  C   UNL     1      34.244 -13.025 -22.671  0.00  0.00    -0.006 C 
ATOM     29  C   UNL     1      33.766 -15.025 -24.555  0.00  0.00    +0.004 C 
ATOM     30  C   UNL     1      34.602 -14.344 -22.393  0.00  0.00    +0.004 C 
ATOM     31  C   UNL     1      34.362 -15.344 -23.334  0.00  0.00    +0.054 C 
BRANCH  26  32
ATOM     32  C   UNL     1      33.265 -11.295 -24.187  0.00  0.00    -0.050 C 
BRANCH  32  33
ATOM     33  N   UNL     1      33.142 -10.497 -22.967  0.00  0.00    +0.387 N 
ATOM     34  N   UNL     1      31.995  -8.363 -21.389  0.00  0.00    +0.383 N 
ATOM     35  C   UNL     1      31.790 -10.606 -22.407  0.00  0.00    -0.100 C 
ATOM     36  C   UNL     1      33.477  -9.092 -23.228  0.00  0.00    -0.100 C 
ATOM     37  C   UNL     1      31.660  -9.769 -21.130  0.00  0.00    -0.101 C 
ATOM     38  C   UNL     1      33.347  -8.253 -21.953  0.00  0.00    -0.101 C 
ATOM     39  C   UNL     1      31.873  -7.567 -20.170  0.00  0.00    -0.101 C 
ATOM     40  H   UNL     1      33.804 -10.864 -22.284  0.00  0.00    -0.079 HD
ATOM     41  H   UNL     1      31.333  -7.996 -22.072  0.00  0.00    -0.080 HD
ENDBRANCH  32  33
ENDBRANCH  26  32
ENDBRANCH  24  31
ENDBRANCH   1  23
TORSDOF 6
ENDMDL
MODEL 5
REMARK VINA RESULT:      -9.8      5.340     13.842
REMARK  Name = 5291
REMARK  6 active torsions:
REMARK  status: ('A' for Active; 'I' for Inactive)
REMARK    1  A    between atoms: C_1  and  N_23
REMARK    2  A    between atoms: C_2  and  N_8
REMARK    3  A    between atoms: C_12  and  C_17
REMARK    4  A    between atoms: C_24  and  C_31
REMARK    5  A    between atoms: C_26  and  C_32
REMARK    6  A    between atoms: C_32  and  N_33
REMARK                            x       y       z     vdW  Elec       q    Type
REMARK                         _______ _______ _______ _____ _____    ______ ____
ROOT
ATOM      1  C   UNL     1      34.017 -14.611 -22.184  0.00  0.00    +0.052 C 
ATOM      2  C   UNL     1      32.874 -12.538 -21.804  0.00  0.00    +0.055 C 
ATOM      3  C   UNL     1      33.357 -13.753 -21.320  0.00  0.00    +0.030 C 
ATOM      4  C   UNL     1      33.057 -12.199 -23.145  0.00  0.00    -0.008 C 
ATOM      5  C   UNL     1      34.207 -14.290 -23.517  0.00  0.00    +0.014 C 
ATOM      6  C   UNL     1      33.722 -13.075 -24.001  0.00  0.00    -0.002 C 
ATOM      7  C   UNL     1      32.548 -10.904 -23.691  0.00  0.00    +0.032 C 
ENDROOT
BRANCH   2   8
ATOM      8  N   UNL     1      32.202 -11.661 -20.924  0.00  0.00    -0.248 N 
ATOM      9  N   UNL     1      32.842  -9.565 -21.764  0.00  0.00    -0.337 NA
ATOM     10  N   UNL     1      31.385  -9.740 -19.853  0.00  0.00    -0.170 NA
ATOM     11  C   UNL     1      32.140 -10.258 -20.843  0.00  0.00    +0.149 C 
ATOM     12  C   UNL     1      32.761  -8.223 -21.657  0.00  0.00    +0.147 C 
ATOM     13  C   UNL     1      32.022  -7.574 -20.688  0.00  0.00    +0.055 C 
ATOM     14  C   UNL     1      31.348  -8.391 -19.804  0.00  0.00    +0.114 C 
ATOM     15  H   UNL     1      31.674 -12.121 -20.233  0.00  0.00    +0.165 HD
BRANCH  12  17
ATOM     16  N   UNL     1      33.517  -6.137 -24.652  0.00  0.00    -0.242 NA
ATOM     17  C   UNL     1      33.511  -7.483 -22.642  0.00  0.00    +0.050 C 
ATOM     18  C   UNL     1      34.897  -7.385 -22.565  0.00  0.00    +0.006 C 
ATOM     19  C   UNL     1      32.875  -6.846 -23.696  0.00  0.00    +0.101 C 
ATOM     20  C   UNL     1      35.592  -6.665 -23.530  0.00  0.00    +0.021 C 
ATOM     21  C   UNL     1      34.863  -6.065 -24.543  0.00  0.00    +0.099 C 
ENDBRANCH  12  17
ENDBRANCH   2   8
BRANCH   1  23
ATOM     22  O   UNL     1      35.011 -17.026 -23.657  0.00  0.00    -0.270 OA
ATOM     23  N   UNL     1      34.509 -15.844 -21.693  0.00  0.00    -0.280 N 
ATOM     24  C   UNL     1      34.966 -16.954 -22.418  0.00  0.00    +0.249 C 
ATOM     25  H   UNL     1      34.534 -15.935 -20.713  0.00  0.00    +0.155 HD
BRANCH  24  31
ATOM     26  C   UNL     1      36.193 -20.283 -20.116  0.00  0.00    -0.043 C 
ATOM     27  C   UNL     1      34.857 -20.148 -20.463  0.00  0.00    -0.006 C 
ATOM     28  C   UNL     1      37.134 -19.343 -20.513  0.00  0.00    -0.006 C 
ATOM     29  C   UNL     1      34.452 -19.051 -21.222  0.00  0.00    +0.004 C 
ATOM     30  C   UNL     1      36.730 -18.245 -21.273  0.00  0.00    +0.004 C 
ATOM     31  C   UNL     1      35.389 -18.099 -21.628  0.00  0.00    +0.054 C 
BRANCH  26  32
ATOM     32  C   UNL     1      36.631 -21.468 -19.297  0.00  0.00    -0.050 C 
BRANCH  32  33
ATOM     33  N   UNL     1      35.790 -21.654 -18.115  0.00  0.00    +0.387 N 
ATOM     34  N   UNL     1      34.661 -23.243 -15.980  0.00  0.00    +0.383 N 
ATOM     35  C   UNL     1      36.598 -22.060 -16.959  0.00  0.00    -0.100 C 
ATOM     36  C   UNL     1      34.736 -22.641 -18.376  0.00  0.00    -0.100 C 
ATOM     37  C   UNL     1      35.716 -22.256 -15.720  0.00  0.00    -0.101 C 
ATOM     38  C   UNL     1      33.854 -22.839 -17.138  0.00  0.00    -0.101 C 
ATOM     39  C   UNL     1      33.820 -23.426 -14.799  0.00  0.00    -0.101 C 
ATOM     40  H   UNL     1      35.348 -20.761 -17.902  0.00  0.00    -0.079 HD
ATOM     41  H   UNL     1      35.103 -24.137 -16.194  0.00  0.00    -0.080 HD
ENDBRANCH  32  33
ENDBRANCH  26  32
ENDBRANCH  24  31
ENDBRANCH   1  23
TORSDOF 6
ENDMDL
MODEL 6
REMARK VINA RESULT:      -9.7      3.135      6.175
REMARK  Name = 5291
REMARK  6 active torsions:
REMARK  status: ('A' for Active; 'I' for Inactive)
REMARK    1  A    between atoms: C_1  and  N_23
REMARK    2  A    between atoms: C_2  and  N_8
REMARK    3  A    between atoms: C_12  and  C_17
REMARK    4  A    between atoms: C_24  and  C_31
REMARK    5  A    between atoms: C_26  and  C_32
REMARK    6  A    between atoms: C_32  and  N_33
REMARK                            x       y       z     vdW  Elec       q    Type
REMARK                         _______ _______ _______ _____ _____    ______ ____
ROOT
ATOM      1  C   UNL     1      34.165 -19.855 -20.292  0.00  0.00    +0.052 C 
ATOM      2  C   UNL     1      35.191 -21.425 -18.799  0.00  0.00    +0.055 C 
ATOM      3  C   UNL     1      35.217 -20.197 -19.459  0.00  0.00    +0.030 C 
ATOM      4  C   UNL     1      34.114 -22.292 -18.981  0.00  0.00    -0.008 C 
ATOM      5  C   UNL     1      33.089 -20.703 -20.484  0.00  0.00    +0.014 C 
ATOM      6  C   UNL     1      33.063 -21.932 -19.824  0.00  0.00    -0.002 C 
ATOM      7  C   UNL     1      34.061 -23.614 -18.287  0.00  0.00    +0.032 C 
ENDROOT
BRANCH   2   8
ATOM      8  N   UNL     1      36.263 -21.775 -17.948  0.00  0.00    -0.248 N 
ATOM      9  N   UNL     1      35.126 -22.628 -16.080  0.00  0.00    -0.337 NA
ATOM     10  N   UNL     1      37.533 -22.547 -16.132  0.00  0.00    -0.170 NA
ATOM     11  C   UNL     1      36.310 -22.343 -16.661  0.00  0.00    +0.149 C 
ATOM     12  C   UNL     1      35.207 -23.169 -14.848  0.00  0.00    +0.147 C 
ATOM     13  C   UNL     1      36.398 -23.427 -14.201  0.00  0.00    +0.055 C 
ATOM     14  C   UNL     1      37.541 -23.092 -14.897  0.00  0.00    +0.114 C 
ATOM     15  H   UNL     1      37.150 -21.587 -18.330  0.00  0.00    +0.165 HD
BRANCH  12  17
ATOM     16  N   UNL     1      32.689 -24.772 -12.615  0.00  0.00    -0.242 NA
ATOM     17  C   UNL     1      33.940 -23.475 -14.228  0.00  0.00    +0.050 C 
ATOM     18  C   UNL     1      32.777 -22.810 -14.605  0.00  0.00    +0.006 C 
ATOM     19  C   UNL     1      33.842 -24.438 -13.236  0.00  0.00    +0.101 C 
ATOM     20  C   UNL     1      31.572 -23.126 -13.990  0.00  0.00    +0.021 C 
ATOM     21  C   UNL     1      31.581 -24.105 -13.009  0.00  0.00    +0.099 C 
ENDBRANCH  12  17
ENDBRANCH   2   8
BRANCH   1  23
ATOM     22  O   UNL     1      36.427 -17.935 -20.726  0.00  0.00    -0.270 OA
ATOM     23  N   UNL     1      34.191 -18.608 -20.962  0.00  0.00    -0.280 N 
ATOM     24  C   UNL     1      35.275 -17.736 -21.144  0.00  0.00    +0.249 C 
ATOM     25  H   UNL     1      33.336 -18.313 -21.352  0.00  0.00    +0.155 HD
BRANCH  24  31
ATOM     26  C   UNL     1      34.428 -14.149 -23.220  0.00  0.00    -0.043 C 
ATOM     27  C   UNL     1      34.520 -14.131 -21.835  0.00  0.00    -0.006 C 
ATOM     28  C   UNL     1      34.610 -15.325 -23.934  0.00  0.00    -0.006 C 
ATOM     29  C   UNL     1      34.800 -15.314 -21.151  0.00  0.00    +0.004 C 
ATOM     30  C   UNL     1      34.890 -16.508 -23.249  0.00  0.00    +0.004 C 
ATOM     31  C   UNL     1      34.985 -16.503 -21.858  0.00  0.00    +0.054 C 
BRANCH  26  32
ATOM     32  C   UNL     1      34.127 -12.873 -23.959  0.00  0.00    -0.050 C 
BRANCH  32  33
ATOM     33  N   UNL     1      33.688 -11.810 -23.056  0.00  0.00    +0.387 N 
ATOM     34  N   UNL     1      32.041  -9.539 -22.356  0.00  0.00    +0.383 N 
ATOM     35  C   UNL     1      32.273 -11.975 -22.705  0.00  0.00    -0.100 C 
ATOM     36  C   UNL     1      33.918 -10.490 -23.654  0.00  0.00    -0.100 C 
ATOM     37  C   UNL     1      31.812 -10.861 -21.759  0.00  0.00    -0.101 C 
ATOM     38  C   UNL     1      33.457  -9.374 -22.710  0.00  0.00    -0.101 C 
ATOM     39  C   UNL     1      31.604  -8.479 -21.452  0.00  0.00    -0.101 C 
ATOM     40  H   UNL     1      34.241 -11.877 -22.202  0.00  0.00    -0.079 HD
ATOM     41  H   UNL     1      31.488  -9.473 -23.210  0.00  0.00    -0.080 HD
ENDBRANCH  32  33
ENDBRANCH  26  32
ENDBRANCH  24  31
ENDBRANCH   1  23
TORSDOF 6
ENDMDL
MODEL 7
REMARK VINA RESULT:      -9.6      1.155      1.669
REMARK  Name = 5291
REMARK  6 active torsions:
REMARK  status: ('A' for Active; 'I' for Inactive)
REMARK    1  A    between atoms: C_1  and  N_23
REMARK    2  A    between atoms: C_2  and  N_8
REMARK    3  A    between atoms: C_12  and  C_17
REMARK    4  A    between atoms: C_24  and  C_31
REMARK    5  A    between atoms: C_26  and  C_32
REMARK    6  A    between atoms: C_32  and  N_33
REMARK                            x       y       z     vdW  Elec       q    Type
REMARK                         _______ _______ _______ _____ _____    ______ ____
ROOT
ATOM      1  C   UNL     1      33.565 -22.974 -16.239  0.00  0.00    +0.052 C 
ATOM      2  C   UNL     1      33.548 -23.584 -13.921  0.00  0.00    +0.055 C 
ATOM      3  C   UNL     1      34.074 -22.819 -14.961  0.00  0.00    +0.030 C 
ATOM      4  C   UNL     1      32.521 -24.494 -14.174  0.00  0.00    -0.008 C 
ATOM      5  C   UNL     1      32.547 -23.872 -16.508  0.00  0.00    +0.014 C 
ATOM      6  C   UNL     1      32.021 -24.638 -15.467  0.00  0.00    -0.002 C 
ATOM      7  C   UNL     1      31.940 -25.327 -13.079  0.00  0.00    +0.032 C 
ENDROOT
BRANCH   2   8
ATOM      8  N   UNL     1      34.066 -23.426 -12.616  0.00  0.00    -0.248 N 
ATOM      9  N   UNL     1      36.225 -24.315 -12.851  0.00  0.00    -0.337 NA
ATOM     10  N   UNL     1      35.468 -23.448 -10.734  0.00  0.00    -0.170 NA
ATOM     11  C   UNL     1      35.310 -23.744 -12.040  0.00  0.00    +0.149 C 
ATOM     12  C   UNL     1      37.406 -24.608 -12.268  0.00  0.00    +0.147 C 
ATOM     13  C   UNL     1      37.689 -24.353 -10.941  0.00  0.00    +0.055 C 
ATOM     14  C   UNL     1      36.673 -23.767 -10.215  0.00  0.00    +0.114 C 
ATOM     15  H   UNL     1      33.433 -23.011 -11.986  0.00  0.00    +0.165 HD
BRANCH  12  17
ATOM     16  N   UNL     1      39.104 -27.148 -14.402  0.00  0.00    -0.242 NA
ATOM     17  C   UNL     1      38.384 -25.217 -13.136  0.00  0.00    +0.050 C 
ATOM     18  C   UNL     1      39.514 -24.518 -13.547  0.00  0.00    +0.006 C 
ATOM     19  C   UNL     1      38.228 -26.518 -13.588  0.00  0.00    +0.101 C 
ATOM     20  C   UNL     1      40.439 -25.132 -14.384  0.00  0.00    +0.021 C 
ATOM     21  C   UNL     1      40.190 -26.436 -14.779  0.00  0.00    +0.099 C 
ENDBRANCH  12  17
ENDBRANCH   2   8
BRANCH   1  23
ATOM     22  O   UNL     1      32.235 -21.847 -18.679  0.00  0.00    -0.270 OA
ATOM     23  N   UNL     1      34.098 -22.196 -17.295  0.00  0.00    -0.280 N 
ATOM     24  C   UNL     1      33.439 -21.686 -18.424  0.00  0.00    +0.249 C 
ATOM     25  H   UNL     1      35.058 -21.986 -17.229  0.00  0.00    +0.155 HD
BRANCH  24  31
ATOM     26  C   UNL     1      35.842 -19.515 -21.145  0.00  0.00    -0.043 C 
ATOM     27  C   UNL     1      34.460 -19.409 -21.219  0.00  0.00    -0.006 C 
ATOM     28  C   UNL     1      36.447 -20.322 -20.192  0.00  0.00    -0.006 C 
ATOM     29  C   UNL     1      33.668 -20.125 -20.321  0.00  0.00    +0.004 C 
ATOM     30  C   UNL     1      35.655 -21.038 -19.294  0.00  0.00    +0.004 C 
ATOM     31  C   UNL     1      34.266 -20.939 -19.358  0.00  0.00    +0.054 C 
BRANCH  26  32
ATOM     32  C   UNL     1      36.698 -18.742 -22.113  0.00  0.00    -0.050 C 
BRANCH  32  33
ATOM     33  N   UNL     1      36.175 -17.397 -22.349  0.00  0.00    +0.387 N 
ATOM     34  N   UNL     1      34.030 -15.478 -22.630  0.00  0.00    +0.383 N 
ATOM     35  C   UNL     1      35.423 -16.918 -21.182  0.00  0.00    -0.100 C 
ATOM     36  C   UNL     1      35.331 -17.369 -23.549  0.00  0.00    -0.100 C 
ATOM     37  C   UNL     1      34.875 -15.508 -21.429  0.00  0.00    -0.101 C 
ATOM     38  C   UNL     1      34.781 -15.960 -23.797  0.00  0.00    -0.101 C 
ATOM     39  C   UNL     1      33.511 -14.134 -22.866  0.00  0.00    -0.101 C 
ATOM     40  H   UNL     1      36.968 -16.774 -22.498  0.00  0.00    -0.079 HD
ATOM     41  H   UNL     1      33.237 -16.101 -22.480  0.00  0.00    -0.080 HD
ENDBRANCH  32  33
ENDBRANCH  26  32
ENDBRANCH  24  31
ENDBRANCH   1  23
TORSDOF 6
ENDMDL
