MODEL 1
REMARK VINA RESULT:      -9.8      0.000      0.000
REMARK  Name = 68953
REMARK  1 active torsions:
REMARK  status: ('A' for Active; 'I' for Inactive)
REMARK    1  A    between atoms: C_4  and  C_13
REMARK                            x       y       z     vdW  Elec       q    Type
REMARK                         _______ _______ _______ _____ _____    ______ ____
ROOT
ATOM      1 BR   UNL     1      36.934 -22.405 -16.385  0.00  0.00    -0.049 Br
ATOM      2  O   UNL     1      37.845 -18.734 -20.719  0.00  0.00    -0.291 OA
ATOM      3  O   UNL     1      33.386 -19.904 -21.840  0.00  0.00    -0.291 OA
ATOM      4  C   UNL     1      35.669 -18.998 -21.828  0.00  0.00    +0.146 C 
ATOM      5  C   UNL     1      36.217 -20.204 -19.805  0.00  0.00    +0.039 C 
ATOM      6  C   UNL     1      34.909 -20.547 -20.134  0.00  0.00    +0.038 C 
ATOM      7  C   UNL     1      36.740 -19.239 -20.775  0.00  0.00    +0.184 C 
ATOM      8  C   UNL     1      34.492 -19.830 -21.341  0.00  0.00    +0.184 C 
ATOM      9  C   UNL     1      36.850 -20.735 -18.698  0.00  0.00    +0.010 C 
ATOM     10  C   UNL     1      34.178 -21.436 -19.371  0.00  0.00    +0.003 C 
ATOM     11  C   UNL     1      36.127 -21.639 -17.915  0.00  0.00    +0.035 C 
ATOM     12  C   UNL     1      34.803 -21.986 -18.248  0.00  0.00    +0.007 C 
ENDROOT
BRANCH   4  13
ATOM     13  C   UNL     1      35.322 -17.557 -21.949  0.00  0.00    -0.008 C 
ATOM     14  C   UNL     1      35.133 -16.781 -20.803  0.00  0.00    -0.003 C 
ATOM     15  C   UNL     1      35.184 -16.972 -23.211  0.00  0.00    -0.003 C 
ATOM     16  C   UNL     1      34.808 -15.429 -20.917  0.00  0.00    -0.000 C 
ATOM     17  C   UNL     1      34.859 -15.620 -23.324  0.00  0.00    -0.000 C 
ATOM     18  C   UNL     1      34.671 -14.848 -22.177  0.00  0.00    -0.000 C 
ENDBRANCH   4  13
TORSDOF 1
ENDMDL
MODEL 2
REMARK VINA RESULT:      -9.6      3.238      6.257
REMARK  Name = 68953
REMARK  1 active torsions:
REMARK  status: ('A' for Active; 'I' for Inactive)
REMARK    1  A    between atoms: C_4  and  C_13
REMARK                            x       y       z     vdW  Elec       q    Type
REMARK                         _______ _______ _______ _____ _____    ______ ____
ROOT
ATOM      1 BR   UNL     1      33.251 -14.675 -25.762  0.00  0.00    -0.049 Br
ATOM      2  O   UNL     1      34.670 -19.895 -23.804  0.00  0.00    -0.291 OA
ATOM      3  O   UNL     1      36.254 -17.400 -20.091  0.00  0.00    -0.291 OA
ATOM      4  C   UNL     1      35.723 -19.176 -21.704  0.00  0.00    +0.146 C 
ATOM      5  C   UNL     1      34.770 -17.584 -23.255  0.00  0.00    +0.039 C 
ATOM      6  C   UNL     1      35.235 -16.853 -22.166  0.00  0.00    +0.038 C 
ATOM      7  C   UNL     1      35.005 -19.013 -23.035  0.00  0.00    +0.184 C 
ATOM      8  C   UNL     1      35.804 -17.756 -21.163  0.00  0.00    +0.184 C 
ATOM      9  C   UNL     1      34.174 -16.971 -24.340  0.00  0.00    +0.010 C 
ATOM     10  C   UNL     1      35.125 -15.478 -22.115  0.00  0.00    +0.003 C 
ATOM     11  C   UNL     1      34.057 -15.579 -24.308  0.00  0.00    +0.035 C 
ATOM     12  C   UNL     1      34.527 -14.839 -23.206  0.00  0.00    +0.007 C 
ENDROOT
BRANCH   4  13
ATOM     13  C   UNL     1      34.989 -20.082 -20.782  0.00  0.00    -0.008 C 
ATOM     14  C   UNL     1      33.601 -19.989 -20.663  0.00  0.00    -0.003 C 
ATOM     15  C   UNL     1      35.685 -21.034 -20.031  0.00  0.00    -0.003 C 
ATOM     16  C   UNL     1      32.912 -20.841 -19.799  0.00  0.00    -0.000 C 
ATOM     17  C   UNL     1      34.996 -21.886 -19.167  0.00  0.00    -0.000 C 
ATOM     18  C   UNL     1      33.610 -21.788 -19.050  0.00  0.00    -0.000 C 
ENDBRANCH   4  13
TORSDOF 1
ENDMDL
MODEL 3
REMARK VINA RESULT:      -9.1      6.923      9.612
REMARK  Name = 68953
REMARK  1 active torsions:
REMARK  status: ('A' for Active; 'I' for Inactive)
REMARK    1  A    between atoms: C_4  and  C_13
REMARK                            x       y       z     vdW  Elec       q    Type
REMARK                         _______ _______ _______ _____ _____    ______ ____
ROOT
ATOM      1 BR   UNL     1      34.767 -15.227 -22.749  0.00  0.00    -0.049 Br
ATOM      2  O   UNL     1      32.665 -10.011 -23.961  0.00  0.00    -0.291 OA
ATOM      3  O   UNL     1      30.444 -10.613 -19.811  0.00  0.00    -0.291 OA
ATOM      4  C   UNL     1      31.217  -9.781 -21.990  0.00  0.00    +0.146 C 
ATOM      5  C   UNL     1      32.575 -11.750 -22.344  0.00  0.00    +0.039 C 
ATOM      6  C   UNL     1      31.923 -11.927 -21.127  0.00  0.00    +0.038 C 
ATOM      7  C   UNL     1      32.218 -10.451 -22.918  0.00  0.00    +0.184 C 
ATOM      8  C   UNL     1      31.097 -10.755 -20.827  0.00  0.00    +0.184 C 
ATOM      9  C   UNL     1      33.428 -12.708 -22.856  0.00  0.00    +0.010 C 
ATOM     10  C   UNL     1      32.095 -13.069 -20.370  0.00  0.00    +0.003 C 
ATOM     11  C   UNL     1      33.612 -13.873 -22.105  0.00  0.00    +0.035 C 
ATOM     12  C   UNL     1      32.953 -14.051 -20.874  0.00  0.00    +0.007 C 
ENDROOT
BRANCH   4  13
ATOM     13  C   UNL     1      31.679  -8.439 -21.549  0.00  0.00    -0.008 C 
ATOM     14  C   UNL     1      32.621  -8.321 -20.525  0.00  0.00    -0.003 C 
ATOM     15  C   UNL     1      31.173  -7.287 -22.158  0.00  0.00    -0.003 C 
ATOM     16  C   UNL     1      33.055  -7.061 -20.111  0.00  0.00    -0.000 C 
ATOM     17  C   UNL     1      31.607  -6.027 -21.744  0.00  0.00    -0.000 C 
ATOM     18  C   UNL     1      32.548  -5.914 -20.721  0.00  0.00    -0.000 C 
ENDBRANCH   4  13
TORSDOF 1
ENDMDL
MODEL 4
REMARK VINA RESULT:      -8.9      8.180     10.629
REMARK  Name = 68953
REMARK  1 active torsions:
REMARK  status: ('A' for Active; 'I' for Inactive)
REMARK    1  A    between atoms: C_4  and  C_13
REMARK                            x       y       z     vdW  Elec       q    Type
REMARK                         _______ _______ _______ _____ _____    ______ ____
ROOT
ATOM      1 BR   UNL     1      32.336 -14.157 -19.864  0.00  0.00    -0.049 Br
ATOM      2  O   UNL     1      32.579 -10.488 -24.288  0.00  0.00    -0.291 OA
ATOM      3  O   UNL     1      31.599  -7.303 -20.910  0.00  0.00    -0.291 OA
ATOM      4  C   UNL     1      32.015  -8.446 -23.045  0.00  0.00    +0.146 C 
ATOM      5  C   UNL     1      32.171 -10.596 -21.949  0.00  0.00    +0.039 C 
ATOM      6  C   UNL     1      31.883  -9.662 -20.959  0.00  0.00    +0.038 C 
ATOM      7  C   UNL     1      32.296  -9.927 -23.246  0.00  0.00    +0.184 C 
ATOM      8  C   UNL     1      31.801  -8.322 -21.543  0.00  0.00    +0.184 C 
ATOM      9  C   UNL     1      32.314 -11.939 -21.661  0.00  0.00    +0.010 C 
ATOM     10  C   UNL     1      31.725 -10.030 -19.637  0.00  0.00    +0.003 C 
ATOM     11  C   UNL     1      32.154 -12.332 -20.329  0.00  0.00    +0.035 C 
ATOM     12  C   UNL     1      31.864 -11.386 -19.326  0.00  0.00    +0.007 C 
ENDROOT
BRANCH   4  13
ATOM     13  C   UNL     1      33.138  -7.596 -23.520  0.00  0.00    -0.008 C 
ATOM     14  C   UNL     1      34.403  -7.714 -22.940  0.00  0.00    -0.003 C 
ATOM     15  C   UNL     1      32.934  -6.676 -24.553  0.00  0.00    -0.003 C 
ATOM     16  C   UNL     1      35.457  -6.916 -23.387  0.00  0.00    -0.000 C 
ATOM     17  C   UNL     1      33.988  -5.879 -25.000  0.00  0.00    -0.000 C 
ATOM     18  C   UNL     1      35.250  -5.999 -24.417  0.00  0.00    -0.000 C 
ENDBRANCH   4  13
TORSDOF 1
ENDMDL
MODEL 5
REMARK VINA RESULT:      -8.9      8.178     10.665
REMARK  Name = 68953
REMARK  1 active torsions:
REMARK  status: ('A' for Active; 'I' for Inactive)
REMARK    1  A    between atoms: C_4  and  C_13
REMARK                            x       y       z     vdW  Elec       q    Type
REMARK                         _______ _______ _______ _____ _____    ______ ____
ROOT
ATOM      1 BR   UNL     1      32.339 -14.157 -19.862  0.00  0.00    -0.049 Br
ATOM      2  O   UNL     1      32.578 -10.494 -24.291  0.00  0.00    -0.291 OA
ATOM      3  O   UNL     1      31.602  -7.304 -20.916  0.00  0.00    -0.291 OA
ATOM      4  C   UNL     1      32.015  -8.450 -23.049  0.00  0.00    +0.146 C 
ATOM      5  C   UNL     1      32.173 -10.598 -21.951  0.00  0.00    +0.039 C 
ATOM      6  C   UNL     1      31.886  -9.663 -20.962  0.00  0.00    +0.038 C 
ATOM      7  C   UNL     1      32.296  -9.931 -23.250  0.00  0.00    +0.184 C 
ATOM      8  C   UNL     1      31.803  -8.323 -21.548  0.00  0.00    +0.184 C 
ATOM      9  C   UNL     1      32.316 -11.941 -21.661  0.00  0.00    +0.010 C 
ATOM     10  C   UNL     1      31.729 -10.029 -19.640  0.00  0.00    +0.003 C 
ATOM     11  C   UNL     1      32.157 -12.332 -20.329  0.00  0.00    +0.035 C 
ATOM     12  C   UNL     1      31.868 -11.385 -19.327  0.00  0.00    +0.007 C 
ENDROOT
BRANCH   4  13
ATOM     13  C   UNL     1      33.138  -7.601 -23.528  0.00  0.00    -0.008 C 
ATOM     14  C   UNL     1      32.937  -6.690 -24.568  0.00  0.00    -0.003 C 
ATOM     15  C   UNL     1      34.401  -7.709 -22.938  0.00  0.00    -0.003 C 
ATOM     16  C   UNL     1      33.991  -5.893 -25.016  0.00  0.00    -0.000 C 
ATOM     17  C   UNL     1      35.455  -6.912 -23.386  0.00  0.00    -0.000 C 
ATOM     18  C   UNL     1      35.250  -6.004 -24.425  0.00  0.00    -0.000 C 
ENDBRANCH   4  13
TORSDOF 1
ENDMDL
MODEL 6
REMARK VINA RESULT:      -8.9      3.021      6.609
REMARK  Name = 68953
REMARK  1 active torsions:
REMARK  status: ('A' for Active; 'I' for Inactive)
REMARK    1  A    between atoms: C_4  and  C_13
REMARK                            x       y       z     vdW  Elec       q    Type
REMARK                         _______ _______ _______ _____ _____    ______ ____
ROOT
ATOM      1 BR   UNL     1      35.291 -17.563 -22.408  0.00  0.00    -0.049 Br
ATOM      2  O   UNL     1      32.652 -21.977 -19.829  0.00  0.00    -0.291 OA
ATOM      3  O   UNL     1      36.812 -22.357 -17.579  0.00  0.00    -0.291 OA
ATOM      4  C   UNL     1      34.540 -22.715 -18.442  0.00  0.00    +0.146 C 
ATOM      5  C   UNL     1      34.722 -20.813 -19.923  0.00  0.00    +0.039 C 
ATOM      6  C   UNL     1      35.942 -20.925 -19.263  0.00  0.00    +0.038 C 
ATOM      7  C   UNL     1      33.803 -21.852 -19.454  0.00  0.00    +0.184 C 
ATOM      8  C   UNL     1      35.900 -22.045 -18.321  0.00  0.00    +0.184 C 
ATOM      9  C   UNL     1      34.492 -19.826 -20.862  0.00  0.00    +0.010 C 
ATOM     10  C   UNL     1      36.986 -20.056 -19.514  0.00  0.00    +0.003 C 
ATOM     11  C   UNL     1      35.538 -18.939 -21.132  0.00  0.00    +0.035 C 
ATOM     12  C   UNL     1      36.773 -19.052 -20.464  0.00  0.00    +0.007 C 
ENDROOT
BRANCH   4  13
ATOM     13  C   UNL     1      33.829 -22.773 -17.137  0.00  0.00    -0.008 C 
ATOM     14  C   UNL     1      34.550 -22.904 -15.949  0.00  0.00    -0.003 C 
ATOM     15  C   UNL     1      32.433 -22.695 -17.094  0.00  0.00    -0.003 C 
ATOM     16  C   UNL     1      33.882 -22.958 -14.725  0.00  0.00    -0.000 C 
ATOM     17  C   UNL     1      31.766 -22.749 -15.870  0.00  0.00    -0.000 C 
ATOM     18  C   UNL     1      32.490 -22.881 -14.685  0.00  0.00    -0.000 C 
ENDBRANCH   4  13
TORSDOF 1
ENDMDL
MODEL 7
REMARK VINA RESULT:      -8.7      4.478      6.981
REMARK  Name = 68953
REMARK  1 active torsions:
REMARK  status: ('A' for Active; 'I' for Inactive)
REMARK    1  A    between atoms: C_4  and  C_13
REMARK                            x       y       z     vdW  Elec       q    Type
REMARK                         _______ _______ _______ _____ _____    ______ ____
ROOT
ATOM      1 BR   UNL     1      30.679 -10.788 -21.942  0.00  0.00    -0.049 Br
ATOM      2  O   UNL     1      34.274 -14.449 -24.545  0.00  0.00    -0.291 OA
ATOM      3  O   UNL     1      35.009 -15.933 -20.098  0.00  0.00    -0.291 OA
ATOM      4  C   UNL     1      35.116 -15.564 -22.524  0.00  0.00    +0.146 C 
ATOM      5  C   UNL     1      33.465 -13.802 -22.405  0.00  0.00    +0.039 C 
ATOM      6  C   UNL     1      33.681 -14.237 -21.101  0.00  0.00    +0.038 C 
ATOM      7  C   UNL     1      34.283 -14.584 -23.335  0.00  0.00    +0.184 C 
ATOM      8  C   UNL     1      34.654 -15.331 -21.094  0.00  0.00    +0.184 C 
ATOM      9  C   UNL     1      32.580 -12.781 -22.693  0.00  0.00    +0.010 C 
ATOM     10  C   UNL     1      33.022 -13.670 -20.028  0.00  0.00    +0.003 C 
ATOM     11  C   UNL     1      31.906 -12.193 -21.620  0.00  0.00    +0.035 C 
ATOM     12  C   UNL     1      32.124 -12.633 -20.300  0.00  0.00    +0.007 C 
ENDROOT
BRANCH   4  13
ATOM     13  C   UNL     1      34.899 -16.970 -22.958  0.00  0.00    -0.008 C 
ATOM     14  C   UNL     1      35.315 -18.028 -22.146  0.00  0.00    -0.003 C 
ATOM     15  C   UNL     1      34.278 -17.240 -24.181  0.00  0.00    -0.003 C 
ATOM     16  C   UNL     1      35.111 -19.347 -22.553  0.00  0.00    -0.000 C 
ATOM     17  C   UNL     1      34.074 -18.559 -24.588  0.00  0.00    -0.000 C 
ATOM     18  C   UNL     1      34.491 -19.612 -23.774  0.00  0.00    -0.000 C 
ENDBRANCH   4  13
TORSDOF 1
ENDMDL
MODEL 8
REMARK VINA RESULT:      -8.5      7.458      9.539
REMARK  Name = 68953
REMARK  1 active torsions:
REMARK  status: ('A' for Active; 'I' for Inactive)
REMARK    1  A    between atoms: C_4  and  C_13
REMARK                            x       y       z     vdW  Elec       q    Type
REMARK                         _______ _______ _______ _____ _____    ______ ____
ROOT
ATOM      1 BR   UNL     1      29.119 -23.254 -16.317  0.00  0.00    -0.049 Br
ATOM      2  O   UNL     1      34.862 -23.025 -16.549  0.00  0.00    -0.291 OA
ATOM      3  O   UNL     1      34.476 -23.942 -11.909  0.00  0.00    -0.291 OA
ATOM      4  C   UNL     1      35.296 -23.389 -14.158  0.00  0.00    +0.146 C 
ATOM      5  C   UNL     1      33.047 -23.340 -15.047  0.00  0.00    +0.039 C 
ATOM      6  C   UNL     1      32.934 -23.608 -13.686  0.00  0.00    +0.038 C 
ATOM      7  C   UNL     1      34.459 -23.222 -15.418  0.00  0.00    +0.184 C 
ATOM      8  C   UNL     1      34.265 -23.683 -13.079  0.00  0.00    +0.184 C 
ATOM      9  C   UNL     1      31.936 -23.229 -15.859  0.00  0.00    +0.010 C 
ATOM     10  C   UNL     1      31.706 -23.777 -13.079  0.00  0.00    +0.003 C 
ATOM     11  C   UNL     1      30.683 -23.393 -15.262  0.00  0.00    +0.035 C 
ATOM     12  C   UNL     1      30.569 -23.666 -13.885  0.00  0.00    +0.007 C 
ENDROOT
BRANCH   4  13
ATOM     13  C   UNL     1      36.291 -24.486 -14.293  0.00  0.00    -0.008 C 
ATOM     14  C   UNL     1      35.873 -25.777 -14.623  0.00  0.00    -0.003 C 
ATOM     15  C   UNL     1      37.650 -24.229 -14.091  0.00  0.00    -0.003 C 
ATOM     16  C   UNL     1      36.808 -26.805 -14.750  0.00  0.00    -0.000 C 
ATOM     17  C   UNL     1      38.584 -25.257 -14.217  0.00  0.00    -0.000 C 
ATOM     18  C   UNL     1      38.163 -26.546 -14.547  0.00  0.00    -0.000 C 
ENDBRANCH   4  13
TORSDOF 1
ENDMDL
MODEL 9
REMARK VINA RESULT:      -8.5      6.369      9.143
REMARK  Name = 68953
REMARK  1 active torsions:
REMARK  status: ('A' for Active; 'I' for Inactive)
REMARK    1  A    between atoms: C_4  and  C_13
REMARK                            x       y       z     vdW  Elec       q    Type
REMARK                         _______ _______ _______ _____ _____    ______ ____
ROOT
ATOM      1 BR   UNL     1      30.705  -7.603 -23.660  0.00  0.00    -0.049 Br
ATOM      2  O   UNL     1      34.848 -11.558 -24.194  0.00  0.00    -0.291 OA
ATOM      3  O   UNL     1      32.287 -13.802 -20.889  0.00  0.00    -0.291 OA
ATOM      4  C   UNL     1      34.028 -13.117 -22.482  0.00  0.00    +0.146 C 
ATOM      5  C   UNL     1      32.856 -11.065 -22.994  0.00  0.00    +0.039 C 
ATOM      6  C   UNL     1      32.106 -11.723 -22.025  0.00  0.00    +0.038 C 
ATOM      7  C   UNL     1      34.030 -11.866 -23.348  0.00  0.00    +0.184 C 
ATOM      8  C   UNL     1      32.740 -12.997 -21.681  0.00  0.00    +0.184 C 
ATOM      9  C   UNL     1      32.470  -9.840 -23.504  0.00  0.00    +0.010 C 
ATOM     10  C   UNL     1      30.938 -11.185 -21.523  0.00  0.00    +0.003 C 
ATOM     11  C   UNL     1      31.292  -9.278 -23.006  0.00  0.00    +0.035 C 
ATOM     12  C   UNL     1      30.532  -9.945 -22.025  0.00  0.00    +0.007 C 
ENDROOT
BRANCH   4  13
ATOM     13  C   UNL     1      34.063 -14.359 -23.299  0.00  0.00    -0.008 C 
ATOM     14  C   UNL     1      33.297 -14.457 -24.462  0.00  0.00    -0.003 C 
ATOM     15  C   UNL     1      34.865 -15.435 -22.906  0.00  0.00    -0.003 C 
ATOM     16  C   UNL     1      33.331 -15.623 -25.229  0.00  0.00    -0.000 C 
ATOM     17  C   UNL     1      34.899 -16.600 -23.673  0.00  0.00    -0.000 C 
ATOM     18  C   UNL     1      34.132 -16.694 -24.834  0.00  0.00    -0.000 C 
ENDBRANCH   4  13
TORSDOF 1
ENDMDL
