MODEL 1
REMARK VINA RESULT:     -10.3      0.000      0.000
REMARK  Name = 16744441
REMARK  9 active torsions:
REMARK  status: ('A' for Active; 'I' for Inactive)
REMARK    1  A    between atoms: N_1  and  C_26
REMARK    2  A    between atoms: C_9  and  O_21
REMARK    3  A    between atoms: N_10  and  C_12
REMARK    4  A    between atoms: C_12  and  C_13
REMARK    5  A    between atoms: C_13  and  N_15
REMARK    6  A    between atoms: O_21  and  C_22
REMARK    7  A    between atoms: C_22  and  C_23
REMARK    8  A    between atoms: C_23  and  C_24
REMARK    9  A    between atoms: C_26  and  C_29
REMARK                            x       y       z     vdW  Elec       q    Type
REMARK                         _______ _______ _______ _____ _____    ______ ____
ROOT
ATOM      1  N   UNL     1      34.936 -22.408 -17.742  0.00  0.00    -0.256 N 
ATOM      2  N   UNL     1      33.714 -23.720 -14.144  0.00  0.00    -0.294 NA
ATOM      3  N   UNL     1      36.453 -22.212 -16.120  0.00  0.00    -0.240 NA
ATOM      4  N   UNL     1      33.108 -23.399 -16.486  0.00  0.00    -0.294 NA
ATOM      5  C   UNL     1      34.950 -23.202 -14.344  0.00  0.00    +0.217 C 
ATOM      6  C   UNL     1      35.303 -22.768 -15.618  0.00  0.00    +0.167 C 
ATOM      7  C   UNL     1      34.346 -22.899 -16.612  0.00  0.00    +0.222 C 
ATOM      8  C   UNL     1      36.201 -22.009 -17.397  0.00  0.00    +0.222 C 
ATOM      9  C   UNL     1      32.882 -23.785 -15.211  0.00  0.00    +0.313 C 
ATOM     10  N   UNL     1      35.846 -23.111 -13.291  0.00  0.00    -0.308 N 
ATOM     11  H   UNL     1      36.736 -22.729 -13.471  0.00  0.00    +0.149 HD
ENDROOT
BRANCH  10  12
ATOM     12  C   UNL     1      35.549 -23.540 -11.946  0.00  0.00    +0.066 C 
BRANCH  12  13
ATOM     13  C   UNL     1      36.453 -24.705 -11.569  0.00  0.00    -0.056 C 
BRANCH  13  15
ATOM     14  O   UNL     1      39.103 -26.861 -14.009  0.00  0.00    -0.358 OA
ATOM     15  N   UNL     1      37.227 -25.145 -12.730  0.00  0.00    +0.391 N 
ATOM     16  C   UNL     1      38.668 -25.042 -12.463  0.00  0.00    -0.045 C 
ATOM     17  C   UNL     1      36.880 -26.525 -13.096  0.00  0.00    -0.045 C 
ATOM     18  C   UNL     1      39.454 -25.517 -13.683  0.00  0.00    +0.119 C 
ATOM     19  C   UNL     1      37.707 -26.965 -14.299  0.00  0.00    +0.119 C 
ATOM     20  H   UNL     1      36.994 -24.531 -13.510  0.00  0.00    -0.079 HD
ENDBRANCH  13  15
ENDBRANCH  12  13
ENDBRANCH  10  12
BRANCH   9  21
ATOM     21  O   UNL     1      31.635 -24.314 -14.962  0.00  0.00    -0.400 OA
BRANCH  21  22
ATOM     22  C   UNL     1      30.848 -23.645 -13.989  0.00  0.00    +0.223 C 
BRANCH  22  23
ATOM     23  C   UNL     1      29.724 -22.898 -14.695  0.00  0.00    +0.049 C 
BRANCH  23  24
ATOM     24  C   UNL     1      28.814 -23.849 -15.467  0.00  0.00    +0.004 C 
ATOM     25  C   UNL     1      28.065 -23.125 -16.575  0.00  0.00    +0.000 C 
ENDBRANCH  23  24
ENDBRANCH  22  23
ENDBRANCH  21  22
ENDBRANCH   9  21
BRANCH   1  26
ATOM     26  C   UNL     1      34.351 -22.328 -19.058  0.00  0.00    +0.126 C 
BRANCH  26  29
ATOM     27  F   UNL     1      37.018 -21.697 -19.761  0.00  0.00    -0.204 F 
ATOM     28  F   UNL     1      32.469 -20.342 -19.778  0.00  0.00    -0.204 F 
ATOM     29  C   UNL     1      34.735 -21.050 -19.753  0.00  0.00    +0.053 C 
ATOM     30  C   UNL     1      36.070 -20.802 -20.071  0.00  0.00    +0.140 C 
ATOM     31  C   UNL     1      33.755 -20.112 -20.080  0.00  0.00    +0.140 C 
ATOM     32  C   UNL     1      36.425 -19.617 -20.715  0.00  0.00    +0.030 C 
ATOM     33  C   UNL     1      34.110 -18.927 -20.723  0.00  0.00    +0.030 C 
ATOM     34  C   UNL     1      35.445 -18.679 -21.040  0.00  0.00    +0.005 C 
ENDBRANCH  26  29
ENDBRANCH   1  26
TORSDOF 9
ENDMDL
MODEL 2
REMARK VINA RESULT:     -10.3      3.295      8.007
REMARK  Name = 16744441
REMARK  9 active torsions:
REMARK  status: ('A' for Active; 'I' for Inactive)
REMARK    1  A    between atoms: N_1  and  C_26
REMARK    2  A    between atoms: C_9  and  O_21
REMARK    3  A    between atoms: N_10  and  C_12
REMARK    4  A    between atoms: C_12  and  C_13
REMARK    5  A    between atoms: C_13  and  N_15
REMARK    6  A    between atoms: O_21  and  C_22
REMARK    7  A    between atoms: C_22  and  C_23
REMARK    8  A    between atoms: C_23  and  C_24
REMARK    9  A    between atoms: C_26  and  C_29
REMARK                            x       y       z     vdW  Elec       q    Type
REMARK                         _______ _______ _______ _____ _____    ______ ____
ROOT
ATOM      1  N   UNL     1      35.098 -23.522 -15.134  0.00  0.00    -0.256 N 
ATOM      2  N   UNL     1      32.696 -22.072 -18.013  0.00  0.00    -0.294 NA
ATOM      3  N   UNL     1      36.165 -22.497 -16.801  0.00  0.00    -0.240 NA
ATOM      4  N   UNL     1      32.803 -23.268 -15.888  0.00  0.00    -0.294 NA
ATOM      5  C   UNL     1      34.044 -21.943 -18.061  0.00  0.00    +0.217 C 
ATOM      6  C   UNL     1      34.812 -22.470 -17.028  0.00  0.00    +0.167 C 
ATOM      7  C   UNL     1      34.129 -23.103 -16.001  0.00  0.00    +0.222 C 
ATOM      8  C   UNL     1      36.304 -23.134 -15.657  0.00  0.00    +0.222 C 
ATOM      9  C   UNL     1      32.167 -22.717 -16.945  0.00  0.00    +0.313 C 
ATOM     10  N   UNL     1      34.644 -21.291 -19.128  0.00  0.00    -0.308 N 
ATOM     11  H   UNL     1      35.626 -21.215 -19.132  0.00  0.00    +0.149 HD
ENDROOT
BRANCH  10  12
ATOM     12  C   UNL     1      33.912 -20.720 -20.233  0.00  0.00    +0.066 C 
BRANCH  12  13
ATOM     13  C   UNL     1      34.876 -20.373 -21.359  0.00  0.00    -0.056 C 
BRANCH  13  15
ATOM     14  O   UNL     1      35.416 -16.600 -23.118  0.00  0.00    -0.358 OA
ATOM     15  N   UNL     1      34.617 -19.021 -21.852  0.00  0.00    +0.391 N 
ATOM     16  C   UNL     1      35.476 -18.044 -21.169  0.00  0.00    -0.045 C 
ATOM     17  C   UNL     1      34.827 -18.947 -23.305  0.00  0.00    -0.045 C 
ATOM     18  C   UNL     1      35.196 -16.644 -21.708  0.00  0.00    +0.119 C 
ATOM     19  C   UNL     1      34.563 -17.526 -23.794  0.00  0.00    +0.119 C 
ATOM     20  H   UNL     1      33.643 -18.797 -21.651  0.00  0.00    -0.079 HD
ENDBRANCH  13  15
ENDBRANCH  12  13
ENDBRANCH  10  12
BRANCH   9  21
ATOM     21  O   UNL     1      30.794 -22.829 -16.939  0.00  0.00    -0.400 OA
BRANCH  21  22
ATOM     22  C   UNL     1      30.178 -22.979 -15.670  0.00  0.00    +0.223 C 
BRANCH  22  23
ATOM     23  C   UNL     1      29.034 -23.976 -15.794  0.00  0.00    +0.049 C 
BRANCH  23  24
ATOM     24  C   UNL     1      29.022 -24.967 -14.634  0.00  0.00    +0.004 C 
ATOM     25  C   UNL     1      30.357 -24.991 -13.907  0.00  0.00    +0.000 C 
ENDBRANCH  23  24
ENDBRANCH  22  23
ENDBRANCH  21  22
ENDBRANCH   9  21
BRANCH   1  26
ATOM     26  C   UNL     1      34.900 -24.232 -13.894  0.00  0.00    +0.126 C 
BRANCH  26  29
ATOM     27  F   UNL     1      36.363 -23.002 -11.807  0.00  0.00    -0.204 F 
ATOM     28  F   UNL     1      36.091 -26.594 -14.898  0.00  0.00    -0.204 F 
ATOM     29  C   UNL     1      36.196 -24.785 -13.365  0.00  0.00    +0.053 C 
ATOM     30  C   UNL     1      36.865 -24.127 -12.334  0.00  0.00    +0.140 C 
ATOM     31  C   UNL     1      36.728 -25.955 -13.906  0.00  0.00    +0.140 C 
ATOM     32  C   UNL     1      38.067 -24.639 -11.844  0.00  0.00    +0.030 C 
ATOM     33  C   UNL     1      37.929 -26.467 -13.417  0.00  0.00    +0.030 C 
ATOM     34  C   UNL     1      38.599 -25.809 -12.386  0.00  0.00    +0.005 C 
ENDBRANCH  26  29
ENDBRANCH   1  26
TORSDOF 9
ENDMDL
MODEL 3
REMARK VINA RESULT:     -10.3      2.683      7.919
REMARK  Name = 16744441
REMARK  9 active torsions:
REMARK  status: ('A' for Active; 'I' for Inactive)
REMARK    1  A    between atoms: N_1  and  C_26
REMARK    2  A    between atoms: C_9  and  O_21
REMARK    3  A    between atoms: N_10  and  C_12
REMARK    4  A    between atoms: C_12  and  C_13
REMARK    5  A    between atoms: C_13  and  N_15
REMARK    6  A    between atoms: O_21  and  C_22
REMARK    7  A    between atoms: C_22  and  C_23
REMARK    8  A    between atoms: C_23  and  C_24
REMARK    9  A    between atoms: C_26  and  C_29
REMARK                            x       y       z     vdW  Elec       q    Type
REMARK                         _______ _______ _______ _____ _____    ______ ____
ROOT
ATOM      1  N   UNL     1      35.788 -23.411 -13.041  0.00  0.00    -0.256 N 
ATOM      2  N   UNL     1      33.052 -23.488 -15.985  0.00  0.00    -0.294 NA
ATOM      3  N   UNL     1      33.793 -24.196 -12.431  0.00  0.00    -0.240 NA
ATOM      4  N   UNL     1      35.349 -22.929 -15.381  0.00  0.00    -0.294 NA
ATOM      5  C   UNL     1      32.773 -23.907 -14.727  0.00  0.00    +0.217 C 
ATOM      6  C   UNL     1      33.771 -23.852 -13.759  0.00  0.00    +0.167 C 
ATOM      7  C   UNL     1      35.004 -23.361 -14.159  0.00  0.00    +0.222 C 
ATOM      8  C   UNL     1      35.017 -23.921 -12.030  0.00  0.00    +0.222 C 
ATOM      9  C   UNL     1      34.303 -23.032 -16.230  0.00  0.00    +0.313 C 
ATOM     10  N   UNL     1      31.511 -24.386 -14.416  0.00  0.00    -0.308 N 
ATOM     11  H   UNL     1      31.343 -24.684 -13.492  0.00  0.00    +0.149 HD
ENDROOT
BRANCH  10  12
ATOM     12  C   UNL     1      30.429 -24.473 -15.366  0.00  0.00    +0.066 C 
BRANCH  12  13
ATOM     13  C   UNL     1      29.105 -24.590 -14.624  0.00  0.00    -0.056 C 
BRANCH  13  15
ATOM     14  O   UNL     1      27.001 -21.683 -16.801  0.00  0.00    -0.358 OA
ATOM     15  N   UNL     1      28.044 -23.906 -15.363  0.00  0.00    +0.391 N 
ATOM     16  C   UNL     1      27.651 -22.666 -14.680  0.00  0.00    -0.045 C 
ATOM     17  C   UNL     1      28.474 -23.610 -16.737  0.00  0.00    -0.045 C 
ATOM     18  C   UNL     1      26.552 -21.965 -15.475  0.00  0.00    +0.119 C 
ATOM     19  C   UNL     1      27.357 -22.886 -17.483  0.00  0.00    +0.119 C 
ATOM     20  H   UNL     1      27.238 -24.529 -15.400  0.00  0.00    -0.079 HD
ENDBRANCH  13  15
ENDBRANCH  12  13
ENDBRANCH  10  12
BRANCH   9  21
ATOM     21  O   UNL     1      34.541 -22.611 -17.521  0.00  0.00    -0.400 OA
BRANCH  21  22
ATOM     22  C   UNL     1      33.426 -22.606 -18.399  0.00  0.00    +0.223 C 
BRANCH  22  23
ATOM     23  C   UNL     1      33.418 -21.295 -19.174  0.00  0.00    +0.049 C 
BRANCH  23  24
ATOM     24  C   UNL     1      34.815 -20.919 -19.659  0.00  0.00    +0.004 C 
ATOM     25  C   UNL     1      34.760 -19.864 -20.753  0.00  0.00    +0.000 C 
ENDBRANCH  23  24
ENDBRANCH  22  23
ENDBRANCH  21  22
ENDBRANCH   9  21
BRANCH   1  26
ATOM     26  C   UNL     1      37.171 -23.014 -12.936  0.00  0.00    +0.126 C 
BRANCH  26  29
ATOM     27  F   UNL     1      37.820 -25.232 -11.303  0.00  0.00    -0.204 F 
ATOM     28  F   UNL     1      38.413 -23.053 -15.478  0.00  0.00    -0.204 F 
ATOM     29  C   UNL     1      38.094 -24.116 -13.380  0.00  0.00    +0.053 C 
ATOM     30  C   UNL     1      38.371 -25.181 -12.523  0.00  0.00    +0.140 C 
ATOM     31  C   UNL     1      38.674 -24.073 -14.648  0.00  0.00    +0.140 C 
ATOM     32  C   UNL     1      39.227 -26.203 -12.934  0.00  0.00    +0.030 C 
ATOM     33  C   UNL     1      39.530 -25.094 -15.059  0.00  0.00    +0.030 C 
ATOM     34  C   UNL     1      39.807 -26.159 -14.202  0.00  0.00    +0.005 C 
ENDBRANCH  26  29
ENDBRANCH   1  26
TORSDOF 9
ENDMDL
MODEL 4
REMARK VINA RESULT:     -10.1      3.414      8.178
REMARK  Name = 16744441
REMARK  9 active torsions:
REMARK  status: ('A' for Active; 'I' for Inactive)
REMARK    1  A    between atoms: N_1  and  C_26
REMARK    2  A    between atoms: C_9  and  O_21
REMARK    3  A    between atoms: N_10  and  C_12
REMARK    4  A    between atoms: C_12  and  C_13
REMARK    5  A    between atoms: C_13  and  N_15
REMARK    6  A    between atoms: O_21  and  C_22
REMARK    7  A    between atoms: C_22  and  C_23
REMARK    8  A    between atoms: C_23  and  C_24
REMARK    9  A    between atoms: C_26  and  C_29
REMARK                            x       y       z     vdW  Elec       q    Type
REMARK                         _______ _______ _______ _____ _____    ______ ____
ROOT
ATOM      1  N   UNL     1      35.887 -23.055 -15.288  0.00  0.00    -0.256 N 
ATOM      2  N   UNL     1      33.641 -21.879 -18.408  0.00  0.00    -0.294 NA
ATOM      3  N   UNL     1      37.018 -22.017 -16.905  0.00  0.00    -0.240 NA
ATOM      4  N   UNL     1      33.651 -22.988 -16.234  0.00  0.00    -0.294 NA
ATOM      5  C   UNL     1      34.977 -21.658 -18.353  0.00  0.00    +0.217 C 
ATOM      6  C   UNL     1      35.690 -22.093 -17.241  0.00  0.00    +0.167 C 
ATOM      7  C   UNL     1      34.968 -22.736 -16.247  0.00  0.00    +0.222 C 
ATOM      8  C   UNL     1      37.104 -22.602 -15.728  0.00  0.00    +0.222 C 
ATOM      9  C   UNL     1      33.070 -22.521 -17.360  0.00  0.00    +0.313 C 
ATOM     10  N   UNL     1      35.618 -21.005 -19.394  0.00  0.00    -0.308 N 
ATOM     11  H   UNL     1      36.590 -20.861 -19.322  0.00  0.00    +0.149 HD
ENDROOT
BRANCH  10  12
ATOM     12  C   UNL     1      34.944 -20.527 -20.577  0.00  0.00    +0.066 C 
BRANCH  12  13
ATOM     13  C   UNL     1      35.700 -19.336 -21.150  0.00  0.00    -0.056 C 
BRANCH  13  15
ATOM     14  O   UNL     1      34.532 -17.578 -24.778  0.00  0.00    -0.358 OA
ATOM     15  N   UNL     1      34.899 -18.669 -22.175  0.00  0.00    +0.391 N 
ATOM     16  C   UNL     1      35.512 -17.392 -22.566  0.00  0.00    -0.045 C 
ATOM     17  C   UNL     1      34.737 -19.532 -23.353  0.00  0.00    -0.045 C 
ATOM     18  C   UNL     1      34.664 -16.721 -23.644  0.00  0.00    +0.119 C 
ATOM     19  C   UNL     1      33.909 -18.811 -24.413  0.00  0.00    +0.119 C 
ATOM     20  H   UNL     1      33.978 -18.482 -21.778  0.00  0.00    -0.079 HD
ENDBRANCH  13  15
ENDBRANCH  12  13
ENDBRANCH  10  12
BRANCH   9  21
ATOM     21  O   UNL     1      31.711 -22.728 -17.459  0.00  0.00    -0.400 OA
BRANCH  21  22
ATOM     22  C   UNL     1      30.973 -22.670 -16.249  0.00  0.00    +0.223 C 
BRANCH  22  23
ATOM     23  C   UNL     1      30.504 -24.073 -15.891  0.00  0.00    +0.049 C 
BRANCH  23  24
ATOM     24  C   UNL     1      29.257 -24.044 -15.013  0.00  0.00    +0.004 C 
ATOM     25  C   UNL     1      29.126 -25.314 -14.188  0.00  0.00    +0.000 C 
ENDBRANCH  23  24
ENDBRANCH  22  23
ENDBRANCH  21  22
ENDBRANCH   9  21
BRANCH   1  26
ATOM     26  C   UNL     1      35.635 -23.732 -14.040  0.00  0.00    +0.126 C 
BRANCH  26  29
ATOM     27  F   UNL     1      36.033 -26.314 -15.128  0.00  0.00    -0.204 F 
ATOM     28  F   UNL     1      37.601 -22.961 -12.157  0.00  0.00    -0.204 F 
ATOM     29  C   UNL     1      36.789 -24.616 -13.651  0.00  0.00    +0.053 C 
ATOM     30  C   UNL     1      36.925 -25.879 -14.227  0.00  0.00    +0.140 C 
ATOM     31  C   UNL     1      37.724 -24.174 -12.715  0.00  0.00    +0.140 C 
ATOM     32  C   UNL     1      37.994 -26.699 -13.867  0.00  0.00    +0.030 C 
ATOM     33  C   UNL     1      38.792 -24.993 -12.354  0.00  0.00    +0.030 C 
ATOM     34  C   UNL     1      38.928 -26.256 -12.930  0.00  0.00    +0.005 C 
ENDBRANCH  26  29
ENDBRANCH   1  26
TORSDOF 9
ENDMDL
MODEL 5
REMARK VINA RESULT:     -10.0      2.199      5.547
REMARK  Name = 16744441
REMARK  9 active torsions:
REMARK  status: ('A' for Active; 'I' for Inactive)
REMARK    1  A    between atoms: N_1  and  C_26
REMARK    2  A    between atoms: C_9  and  O_21
REMARK    3  A    between atoms: N_10  and  C_12
REMARK    4  A    between atoms: C_12  and  C_13
REMARK    5  A    between atoms: C_13  and  N_15
REMARK    6  A    between atoms: O_21  and  C_22
REMARK    7  A    between atoms: C_22  and  C_23
REMARK    8  A    between atoms: C_23  and  C_24
REMARK    9  A    between atoms: C_26  and  C_29
REMARK                            x       y       z     vdW  Elec       q    Type
REMARK                         _______ _______ _______ _____ _____    ______ ____
ROOT
ATOM      1  N   UNL     1      32.743 -24.348 -14.732  0.00  0.00    -0.256 N 
ATOM      2  N   UNL     1      36.495 -23.060 -14.082  0.00  0.00    -0.294 NA
ATOM      3  N   UNL     1      33.324 -24.233 -12.582  0.00  0.00    -0.240 NA
ATOM      4  N   UNL     1      34.804 -23.583 -15.763  0.00  0.00    -0.294 NA
ATOM      5  C   UNL     1      35.659 -23.395 -13.070  0.00  0.00    +0.217 C 
ATOM      6  C   UNL     1      34.373 -23.832 -13.371  0.00  0.00    +0.167 C 
ATOM      7  C   UNL     1      34.032 -23.897 -14.712  0.00  0.00    +0.222 C 
ATOM      8  C   UNL     1      32.361 -24.534 -13.429  0.00  0.00    +0.222 C 
ATOM      9  C   UNL     1      36.023 -23.173 -15.347  0.00  0.00    +0.313 C 
ATOM     10  N   UNL     1      36.085 -23.299 -11.754  0.00  0.00    -0.308 N 
ATOM     11  H   UNL     1      35.452 -23.550 -11.043  0.00  0.00    +0.149 HD
ENDROOT
BRANCH  10  12
ATOM     12  C   UNL     1      37.402 -22.854 -11.368  0.00  0.00    +0.066 C 
BRANCH  12  13
ATOM     13  C   UNL     1      38.356 -24.040 -11.343  0.00  0.00    -0.056 C 
BRANCH  13  15
ATOM     14  O   UNL     1      38.689 -27.178 -14.111  0.00  0.00    -0.358 OA
ATOM     15  N   UNL     1      38.185 -24.856 -12.545  0.00  0.00    +0.391 N 
ATOM     16  C   UNL     1      39.473 -25.061 -13.222  0.00  0.00    -0.045 C 
ATOM     17  C   UNL     1      37.578 -26.152 -12.213  0.00  0.00    -0.045 C 
ATOM     18  C   UNL     1      39.271 -25.924 -14.465  0.00  0.00    +0.119 C 
ATOM     19  C   UNL     1      37.422 -26.989 -13.479  0.00  0.00    +0.119 C 
ATOM     20  H   UNL     1      37.560 -24.354 -13.176  0.00  0.00    -0.079 HD
ENDBRANCH  13  15
ENDBRANCH  12  13
ENDBRANCH  10  12
BRANCH   9  21
ATOM     21  O   UNL     1      36.907 -22.827 -16.345  0.00  0.00    -0.400 OA
BRANCH  21  22
ATOM     22  C   UNL     1      36.770 -21.523 -16.886  0.00  0.00    +0.223 C 
BRANCH  22  23
ATOM     23  C   UNL     1      36.618 -21.631 -18.397  0.00  0.00    +0.049 C 
BRANCH  23  24
ATOM     24  C   UNL     1      35.154 -21.770 -18.807  0.00  0.00    +0.004 C 
ATOM     25  C   UNL     1      34.770 -20.741 -19.858  0.00  0.00    +0.000 C 
ENDBRANCH  23  24
ENDBRANCH  22  23
ENDBRANCH  21  22
ENDBRANCH   9  21
BRANCH   1  26
ATOM     26  C   UNL     1      31.925 -24.579 -15.897  0.00  0.00    +0.126 C 
BRANCH  26  29
ATOM     27  F   UNL     1      29.912 -26.150 -14.676  0.00  0.00    -0.204 F 
ATOM     28  F   UNL     1      31.055 -22.004 -16.686  0.00  0.00    -0.204 F 
ATOM     29  C   UNL     1      30.517 -24.089 -15.686  0.00  0.00    +0.053 C 
ATOM     30  C   UNL     1      29.575 -24.916 -15.077  0.00  0.00    +0.140 C 
ATOM     31  C   UNL     1      30.155 -22.807 -16.100  0.00  0.00    +0.140 C 
ATOM     32  C   UNL     1      28.270 -24.462 -14.882  0.00  0.00    +0.030 C 
ATOM     33  C   UNL     1      28.852 -22.353 -15.906  0.00  0.00    +0.030 C 
ATOM     34  C   UNL     1      27.909 -23.180 -15.297  0.00  0.00    +0.005 C 
ENDBRANCH  26  29
ENDBRANCH   1  26
TORSDOF 9
ENDMDL
MODEL 6
REMARK VINA RESULT:      -9.9     11.505     15.209
REMARK  Name = 16744441
REMARK  9 active torsions:
REMARK  status: ('A' for Active; 'I' for Inactive)
REMARK    1  A    between atoms: N_1  and  C_26
REMARK    2  A    between atoms: C_9  and  O_21
REMARK    3  A    between atoms: N_10  and  C_12
REMARK    4  A    between atoms: C_12  and  C_13
REMARK    5  A    between atoms: C_13  and  N_15
REMARK    6  A    between atoms: O_21  and  C_22
REMARK    7  A    between atoms: C_22  and  C_23
REMARK    8  A    between atoms: C_23  and  C_24
REMARK    9  A    between atoms: C_26  and  C_29
REMARK                            x       y       z     vdW  Elec       q    Type
REMARK                         _______ _______ _______ _____ _____    ______ ____
ROOT
ATOM      1  N   UNL     1      34.086  -7.419 -22.844  0.00  0.00    -0.256 N 
ATOM      2  N   UNL     1      32.481 -11.103 -22.964  0.00  0.00    -0.294 NA
ATOM      3  N   UNL     1      35.438  -8.992 -23.662  0.00  0.00    -0.240 NA
ATOM      4  N   UNL     1      32.121  -8.764 -22.368  0.00  0.00    -0.294 NA
ATOM      5  C   UNL     1      33.743 -10.848 -23.389  0.00  0.00    +0.217 C 
ATOM      6  C   UNL     1      34.231  -9.548 -23.317  0.00  0.00    +0.167 C 
ATOM      7  C   UNL     1      33.376  -8.585 -22.806  0.00  0.00    +0.222 C 
ATOM      8  C   UNL     1      35.318  -7.714 -23.367  0.00  0.00    +0.222 C 
ATOM      9  C   UNL     1      31.760 -10.060 -22.487  0.00  0.00    +0.313 C 
ATOM     10  N   UNL     1      34.530 -11.874 -23.888  0.00  0.00    -0.308 N 
ATOM     11  H   UNL     1      35.442 -11.654 -24.189  0.00  0.00    +0.149 HD
ENDROOT
BRANCH  10  12
ATOM     12  C   UNL     1      34.091 -13.244 -23.992  0.00  0.00    +0.066 C 
BRANCH  12  13
ATOM     13  C   UNL     1      34.506 -14.010 -22.744  0.00  0.00    -0.056 C 
BRANCH  13  15
ATOM     14  O   UNL     1      34.634 -18.168 -23.306  0.00  0.00    -0.358 OA
ATOM     15  N   UNL     1      34.973 -15.349 -23.100  0.00  0.00    +0.391 N 
ATOM     16  C   UNL     1      35.016 -16.218 -21.915  0.00  0.00    -0.045 C 
ATOM     17  C   UNL     1      34.111 -15.946 -24.129  0.00  0.00    -0.045 C 
ATOM     18  C   UNL     1      35.495 -17.611 -22.313  0.00  0.00    +0.119 C 
ATOM     19  C   UNL     1      34.609 -17.346 -24.475  0.00  0.00    +0.119 C 
ATOM     20  H   UNL     1      35.917 -15.261 -23.475  0.00  0.00    -0.079 HD
ENDBRANCH  13  15
ENDBRANCH  12  13
ENDBRANCH  10  12
BRANCH   9  21
ATOM     21  O   UNL     1      30.485 -10.365 -22.063  0.00  0.00    -0.400 OA
BRANCH  21  22
ATOM     22  C   UNL     1      30.382 -11.162 -20.894  0.00  0.00    +0.223 C 
BRANCH  22  23
ATOM     23  C   UNL     1      31.023 -10.415 -19.732  0.00  0.00    +0.049 C 
BRANCH  23  24
ATOM     24  C   UNL     1      32.034 -11.286 -18.991  0.00  0.00    +0.004 C 
ATOM     25  C   UNL     1      32.351 -12.554 -19.768  0.00  0.00    +0.000 C 
ENDBRANCH  23  24
ENDBRANCH  22  23
ENDBRANCH  21  22
ENDBRANCH   9  21
BRANCH   1  26
ATOM     26  C   UNL     1      33.632  -6.115 -22.424  0.00  0.00    +0.126 C 
BRANCH  26  29
ATOM     27  F   UNL     1      30.836  -5.759 -22.176  0.00  0.00    -0.204 F 
ATOM     28  F   UNL     1      34.708  -5.126 -24.847  0.00  0.00    -0.204 F 
ATOM     29  C   UNL     1      32.792  -5.458 -23.486  0.00  0.00    +0.053 C 
ATOM     30  C   UNL     1      31.417  -5.315 -23.298  0.00  0.00    +0.140 C 
ATOM     31  C   UNL     1      33.387  -4.993 -24.659  0.00  0.00    +0.140 C 
ATOM     32  C   UNL     1      30.639  -4.707 -24.282  0.00  0.00    +0.030 C 
ATOM     33  C   UNL     1      32.609  -4.385 -25.643  0.00  0.00    +0.030 C 
ATOM     34  C   UNL     1      31.235  -4.242 -25.455  0.00  0.00    +0.005 C 
ENDBRANCH  26  29
ENDBRANCH   1  26
TORSDOF 9
ENDMDL
MODEL 7
REMARK VINA RESULT:      -9.9      9.804     14.176
REMARK  Name = 16744441
REMARK  9 active torsions:
REMARK  status: ('A' for Active; 'I' for Inactive)
REMARK    1  A    between atoms: N_1  and  C_26
REMARK    2  A    between atoms: C_9  and  O_21
REMARK    3  A    between atoms: N_10  and  C_12
REMARK    4  A    between atoms: C_12  and  C_13
REMARK    5  A    between atoms: C_13  and  N_15
REMARK    6  A    between atoms: O_21  and  C_22
REMARK    7  A    between atoms: C_22  and  C_23
REMARK    8  A    between atoms: C_23  and  C_24
REMARK    9  A    between atoms: C_26  and  C_29
REMARK                            x       y       z     vdW  Elec       q    Type
REMARK                         _______ _______ _______ _____ _____    ______ ____
ROOT
ATOM      1  N   UNL     1      34.702 -14.907 -22.025  0.00  0.00    -0.256 N 
ATOM      2  N   UNL     1      32.697 -11.424 -22.117  0.00  0.00    -0.294 NA
ATOM      3  N   UNL     1      33.487 -14.489 -20.203  0.00  0.00    -0.240 NA
ATOM      4  N   UNL     1      34.214 -12.912 -23.319  0.00  0.00    -0.294 NA
ATOM      5  C   UNL     1      32.633 -12.269 -21.059  0.00  0.00    +0.217 C 
ATOM      6  C   UNL     1      33.354 -13.458 -21.098  0.00  0.00    +0.167 C 
ATOM      7  C   UNL     1      34.103 -13.699 -22.239  0.00  0.00    +0.222 C 
ATOM      8  C   UNL     1      34.300 -15.344 -20.789  0.00  0.00    +0.222 C 
ATOM      9  C   UNL     1      33.472 -11.793 -23.166  0.00  0.00    +0.313 C 
ATOM     10  N   UNL     1      31.856 -11.948 -19.958  0.00  0.00    -0.308 N 
ATOM     11  H   UNL     1      31.831 -12.584 -19.207  0.00  0.00    +0.149 HD
ENDROOT
BRANCH  10  12
ATOM     12  C   UNL     1      31.082 -10.735 -19.848  0.00  0.00    +0.066 C 
BRANCH  12  13
ATOM     13  C   UNL     1      31.929  -9.645 -19.205  0.00  0.00    -0.056 C 
BRANCH  13  15
ATOM     14  O   UNL     1      32.447  -6.459 -21.888  0.00  0.00    -0.358 OA
ATOM     15  N   UNL     1      31.742  -8.375 -19.905  0.00  0.00    +0.391 N 
ATOM     16  C   UNL     1      32.929  -7.521 -19.761  0.00  0.00    -0.045 C 
ATOM     17  C   UNL     1      31.455  -8.601 -21.328  0.00  0.00    -0.045 C 
ATOM     18  C   UNL     1      32.715  -6.208 -20.509  0.00  0.00    +0.119 C 
ATOM     19  C   UNL     1      31.276  -7.263 -22.039  0.00  0.00    +0.119 C 
ATOM     20  H   UNL     1      30.945  -7.900 -19.482  0.00  0.00    -0.079 HD
ENDBRANCH  13  15
ENDBRANCH  12  13
ENDBRANCH  10  12
BRANCH   9  21
ATOM     21  O   UNL     1      33.512 -10.903 -24.217  0.00  0.00    -0.400 OA
BRANCH  21  22
ATOM     22  C   UNL     1      33.637  -9.531 -23.879  0.00  0.00    +0.223 C 
BRANCH  22  23
ATOM     23  C   UNL     1      35.109  -9.213 -23.651  0.00  0.00    +0.049 C 
BRANCH  23  24
ATOM     24  C   UNL     1      35.315  -7.756 -23.246  0.00  0.00    +0.004 C 
ATOM     25  C   UNL     1      34.916  -6.805 -24.364  0.00  0.00    +0.000 C 
ENDBRANCH  23  24
ENDBRANCH  22  23
ENDBRANCH  21  22
ENDBRANCH   9  21
BRANCH   1  26
ATOM     26  C   UNL     1      35.585 -15.607 -22.925  0.00  0.00    +0.126 C 
BRANCH  26  29
ATOM     27  F   UNL     1      36.299 -17.921 -21.459  0.00  0.00    -0.204 F 
ATOM     28  F   UNL     1      33.798 -16.104 -25.062  0.00  0.00    -0.204 F 
ATOM     29  C   UNL     1      35.061 -16.980 -23.253  0.00  0.00    +0.053 C 
ATOM     30  C   UNL     1      35.454 -18.078 -22.488  0.00  0.00    +0.140 C 
ATOM     31  C   UNL     1      34.181 -17.154 -24.322  0.00  0.00    +0.140 C 
ATOM     32  C   UNL     1      34.969 -19.349 -22.792  0.00  0.00    +0.030 C 
ATOM     33  C   UNL     1      33.696 -18.425 -24.626  0.00  0.00    +0.030 C 
ATOM     34  C   UNL     1      34.090 -19.523 -23.861  0.00  0.00    +0.005 C 
ENDBRANCH  26  29
ENDBRANCH   1  26
TORSDOF 9
ENDMDL
MODEL 8
REMARK VINA RESULT:      -9.9      9.765     14.224
REMARK  Name = 16744441
REMARK  9 active torsions:
REMARK  status: ('A' for Active; 'I' for Inactive)
REMARK    1  A    between atoms: N_1  and  C_26
REMARK    2  A    between atoms: C_9  and  O_21
REMARK    3  A    between atoms: N_10  and  C_12
REMARK    4  A    between atoms: C_12  and  C_13
REMARK    5  A    between atoms: C_13  and  N_15
REMARK    6  A    between atoms: O_21  and  C_22
REMARK    7  A    between atoms: C_22  and  C_23
REMARK    8  A    between atoms: C_23  and  C_24
REMARK    9  A    between atoms: C_26  and  C_29
REMARK                            x       y       z     vdW  Elec       q    Type
REMARK                         _______ _______ _______ _____ _____    ______ ____
ROOT
ATOM      1  N   UNL     1      34.669 -14.903 -22.087  0.00  0.00    -0.256 N 
ATOM      2  N   UNL     1      32.687 -11.406 -22.140  0.00  0.00    -0.294 NA
ATOM      3  N   UNL     1      33.451 -14.500 -20.263  0.00  0.00    -0.240 NA
ATOM      4  N   UNL     1      34.197 -12.888 -23.357  0.00  0.00    -0.294 NA
ATOM      5  C   UNL     1      32.615 -12.264 -21.093  0.00  0.00    +0.217 C 
ATOM      6  C   UNL     1      33.328 -13.457 -21.146  0.00  0.00    +0.167 C 
ATOM      7  C   UNL     1      34.078 -13.688 -22.288  0.00  0.00    +0.222 C 
ATOM      8  C   UNL     1      34.261 -15.352 -20.858  0.00  0.00    +0.222 C 
ATOM      9  C   UNL     1      33.462 -11.766 -23.191  0.00  0.00    +0.313 C 
ATOM     10  N   UNL     1      31.837 -11.951 -19.990  0.00  0.00    -0.308 N 
ATOM     11  H   UNL     1      31.806 -12.597 -19.247  0.00  0.00    +0.149 HD
ENDROOT
BRANCH  10  12
ATOM     12  C   UNL     1      31.071 -10.734 -19.867  0.00  0.00    +0.066 C 
BRANCH  12  13
ATOM     13  C   UNL     1      31.920  -9.661 -19.200  0.00  0.00    -0.056 C 
BRANCH  13  15
ATOM     14  O   UNL     1      32.482  -6.469 -21.866  0.00  0.00    -0.358 OA
ATOM     15  N   UNL     1      31.756  -8.381 -19.888  0.00  0.00    +0.391 N 
ATOM     16  C   UNL     1      32.967  -7.559 -19.754  0.00  0.00    -0.045 C 
ATOM     17  C   UNL     1      31.443  -8.589 -21.308  0.00  0.00    -0.045 C 
ATOM     18  C   UNL     1      32.776  -6.235 -20.489  0.00  0.00    +0.119 C 
ATOM     19  C   UNL     1      31.289  -7.242 -22.007  0.00  0.00    +0.119 C 
ATOM     20  H   UNL     1      30.977  -7.890 -19.450  0.00  0.00    -0.079 HD
ENDBRANCH  13  15
ENDBRANCH  12  13
ENDBRANCH  10  12
BRANCH   9  21
ATOM     21  O   UNL     1      33.511 -10.864 -24.231  0.00  0.00    -0.400 OA
BRANCH  21  22
ATOM     22  C   UNL     1      33.648  -9.497 -23.876  0.00  0.00    +0.223 C 
BRANCH  22  23
ATOM     23  C   UNL     1      35.123  -9.193 -23.653  0.00  0.00    +0.049 C 
BRANCH  23  24
ATOM     24  C   UNL     1      35.345  -7.735 -23.261  0.00  0.00    +0.004 C 
ATOM     25  C   UNL     1      34.835  -6.785 -24.333  0.00  0.00    +0.000 C 
ENDBRANCH  23  24
ENDBRANCH  22  23
ENDBRANCH  21  22
ENDBRANCH   9  21
BRANCH   1  26
ATOM     26  C   UNL     1      35.550 -15.597 -22.994  0.00  0.00    +0.126 C 
BRANCH  26  29
ATOM     27  F   UNL     1      33.815 -16.262 -25.129  0.00  0.00    -0.204 F 
ATOM     28  F   UNL     1      36.307 -17.807 -21.397  0.00  0.00    -0.204 F 
ATOM     29  C   UNL     1      35.073 -17.001 -23.257  0.00  0.00    +0.053 C 
ATOM     30  C   UNL     1      34.217 -17.257 -24.328  0.00  0.00    +0.140 C 
ATOM     31  C   UNL     1      35.485 -18.044 -22.428  0.00  0.00    +0.140 C 
ATOM     32  C   UNL     1      33.775 -18.557 -24.571  0.00  0.00    +0.030 C 
ATOM     33  C   UNL     1      35.042 -19.344 -22.670  0.00  0.00    +0.030 C 
ATOM     34  C   UNL     1      34.187 -19.601 -23.742  0.00  0.00    +0.005 C 
ENDBRANCH  26  29
ENDBRANCH   1  26
TORSDOF 9
ENDMDL
MODEL 9
REMARK VINA RESULT:      -9.7      2.706      5.946
REMARK  Name = 16744441
REMARK  9 active torsions:
REMARK  status: ('A' for Active; 'I' for Inactive)
REMARK    1  A    between atoms: N_1  and  C_26
REMARK    2  A    between atoms: C_9  and  O_21
REMARK    3  A    between atoms: N_10  and  C_12
REMARK    4  A    between atoms: C_12  and  C_13
REMARK    5  A    between atoms: C_13  and  N_15
REMARK    6  A    between atoms: O_21  and  C_22
REMARK    7  A    between atoms: C_22  and  C_23
REMARK    8  A    between atoms: C_23  and  C_24
REMARK    9  A    between atoms: C_26  and  C_29
REMARK                            x       y       z     vdW  Elec       q    Type
REMARK                         _______ _______ _______ _____ _____    ______ ____
ROOT
ATOM      1  N   UNL     1      31.197 -24.905 -14.206  0.00  0.00    -0.256 N 
ATOM      2  N   UNL     1      34.111 -22.898 -16.114  0.00  0.00    -0.294 NA
ATOM      3  N   UNL     1      33.030 -24.551 -12.987  0.00  0.00    -0.240 NA
ATOM      4  N   UNL     1      31.862 -23.832 -16.281  0.00  0.00    -0.294 NA
ATOM      5  C   UNL     1      34.242 -23.321 -14.833  0.00  0.00    +0.217 C 
ATOM      6  C   UNL     1      33.191 -24.010 -14.237  0.00  0.00    +0.167 C 
ATOM      7  C   UNL     1      32.061 -24.220 -15.012  0.00  0.00    +0.222 C 
ATOM      8  C   UNL     1      31.823 -25.079 -12.999  0.00  0.00    +0.222 C 
ATOM      9  C   UNL     1      32.947 -23.176 -16.749  0.00  0.00    +0.313 C 
ATOM     10  N   UNL     1      35.409 -23.066 -14.131  0.00  0.00    -0.308 N 
ATOM     11  H   UNL     1      35.472 -23.387 -13.202  0.00  0.00    +0.149 HD
ENDROOT
BRANCH  10  12
ATOM     12  C   UNL     1      36.539 -22.358 -14.684  0.00  0.00    +0.066 C 
BRANCH  12  13
ATOM     13  C   UNL     1      37.440 -23.335 -15.428  0.00  0.00    -0.056 C 
BRANCH  13  15
ATOM     14  O   UNL     1      38.999 -26.970 -14.023  0.00  0.00    -0.358 OA
ATOM     15  N   UNL     1      37.886 -24.400 -14.531  0.00  0.00    +0.391 N 
ATOM     16  C   UNL     1      37.115 -25.630 -14.761  0.00  0.00    -0.045 C 
ATOM     17  C   UNL     1      39.321 -24.665 -14.708  0.00  0.00    -0.045 C 
ATOM     18  C   UNL     1      37.606 -26.730 -13.823  0.00  0.00    +0.119 C 
ATOM     19  C   UNL     1      39.760 -25.787 -13.773  0.00  0.00    +0.119 C 
ATOM     20  H   UNL     1      37.727 -24.089 -13.573  0.00  0.00    -0.079 HD
ENDBRANCH  13  15
ENDBRANCH  12  13
ENDBRANCH  10  12
BRANCH   9  21
ATOM     21  O   UNL     1      32.859 -22.732 -18.050  0.00  0.00    -0.400 OA
BRANCH  21  22
ATOM     22  C   UNL     1      34.011 -22.098 -18.581  0.00  0.00    +0.223 C 
BRANCH  22  23
ATOM     23  C   UNL     1      33.571 -20.980 -19.516  0.00  0.00    +0.049 C 
BRANCH  23  24
ATOM     24  C   UNL     1      34.753 -20.374 -20.267  0.00  0.00    +0.004 C 
ATOM     25  C   UNL     1      36.077 -20.772 -19.635  0.00  0.00    +0.000 C 
ENDBRANCH  23  24
ENDBRANCH  22  23
ENDBRANCH  21  22
ENDBRANCH   9  21
BRANCH   1  26
ATOM     26  C   UNL     1      29.870 -25.357 -14.546  0.00  0.00    +0.126 C 
BRANCH  26  29
ATOM     27  F   UNL     1      29.698 -22.796 -13.354  0.00  0.00    -0.204 F 
ATOM     28  F   UNL     1      28.341 -25.630 -16.911  0.00  0.00    -0.204 F 
ATOM     29  C   UNL     1      29.040 -24.240 -15.119  0.00  0.00    +0.053 C 
ATOM     30  C   UNL     1      29.000 -23.002 -14.479  0.00  0.00    +0.140 C 
ATOM     31  C   UNL     1      28.308 -24.443 -16.289  0.00  0.00    +0.140 C 
ATOM     32  C   UNL     1      28.230 -21.967 -15.009  0.00  0.00    +0.030 C 
ATOM     33  C   UNL     1      27.538 -23.409 -16.820  0.00  0.00    +0.030 C 
ATOM     34  C   UNL     1      27.498 -22.171 -16.179  0.00  0.00    +0.005 C 
ENDBRANCH  26  29
ENDBRANCH   1  26
TORSDOF 9
ENDMDL
