MODEL 1
REMARK VINA RESULT:     -10.6      0.000      0.000
REMARK  Name = 213046
REMARK  4 active torsions:
REMARK  status: ('A' for Active; 'I' for Inactive)
REMARK    1  A    between atoms: C_1  and  C_7
REMARK    2  A    between atoms: C_2  and  C_20
REMARK    3  A    between atoms: C_7  and  N_10
REMARK    4  A    between atoms: C_20  and  N_22
REMARK                            x       y       z     vdW  Elec       q    Type
REMARK                         _______ _______ _______ _____ _____    ______ ____
ROOT
ATOM      1  C   UNL     1      31.913  -9.741 -21.291  0.00  0.00    +0.018 C 
ATOM      2  C   UNL     1      32.442 -11.052 -20.659  0.00  0.00    -0.019 C 
ATOM      3  C   UNL     1      31.960  -8.589 -20.272  0.00  0.00    +0.002 C 
ATOM      4  C   UNL     1      31.684 -11.375 -19.359  0.00  0.00    -0.002 C 
ATOM      5  C   UNL     1      31.211  -8.930 -18.988  0.00  0.00    +0.000 C 
ATOM      6  C   UNL     1      31.733 -10.219 -18.366  0.00  0.00    -0.000 C 
ENDROOT
BRANCH   1   7
ATOM      7  C   UNL     1      32.694  -9.338 -22.545  0.00  0.00    +0.101 C 
BRANCH   7  10
ATOM      8  O   UNL     1      30.265  -8.138 -23.652  0.00  0.00    -0.274 OA
ATOM      9  O   UNL     1      34.504  -7.062 -22.142  0.00  0.00    -0.274 OA
ATOM     10  N   UNL     1      32.468  -7.947 -22.887  0.00  0.00    -0.230 N 
ATOM     11  C   UNL     1      30.484  -5.169 -22.714  0.00  0.00    +0.009 C 
ATOM     12  C   UNL     1      32.530  -4.651 -21.986  0.00  0.00    +0.009 C 
ATOM     13  C   UNL     1      31.401  -6.005 -23.628  0.00  0.00    +0.086 C 
ATOM     14  C   UNL     1      32.809  -5.649 -23.127  0.00  0.00    +0.086 C 
ATOM     15  C   UNL     1      31.229  -5.183 -21.376  0.00  0.00    +0.001 C 
ATOM     16  C   UNL     1      30.629  -3.690 -23.116  0.00  0.00    +0.001 C 
ATOM     17  C   UNL     1      32.041  -3.332 -22.614  0.00  0.00    +0.001 C 
ATOM     18  C   UNL     1      31.274  -7.493 -23.411  0.00  0.00    +0.231 C 
ATOM     19  C   UNL     1      33.398  -6.954 -22.656  0.00  0.00    +0.231 C 
ENDBRANCH   7  10
ENDBRANCH   1   7
BRANCH   2  20
ATOM     20  C   UNL     1      32.340 -12.246 -21.613  0.00  0.00    -0.077 C 
BRANCH  20  22
ATOM     21  S   UNL     1      36.467 -19.044 -21.018  0.00  0.00    +0.014 S 
ATOM     22  N   UNL     1      33.470 -13.156 -21.432  0.00  0.00    +0.389 N 
ATOM     23  N   UNL     1      34.780 -15.697 -21.472  0.00  0.00    -0.297 N 
ATOM     24  N   UNL     1      36.103 -17.483 -20.604  0.00  0.00    -0.194 NA
ATOM     25  C   UNL     1      33.154 -14.178 -20.425  0.00  0.00    -0.055 C 
ATOM     26  C   UNL     1      33.828 -13.794 -22.706  0.00  0.00    -0.055 C 
ATOM     27  C   UNL     1      34.351 -15.102 -20.199  0.00  0.00    +0.069 C 
ATOM     28  C   UNL     1      35.033 -14.726 -22.541  0.00  0.00    +0.069 C 
ATOM     29  C   UNL     1      35.276 -16.981 -21.523  0.00  0.00    +0.140 A 
ATOM     30  C   UNL     1      34.901 -17.847 -22.607  0.00  0.00    +0.040 A 
ATOM     31  C   UNL     1      35.517 -19.090 -22.452  0.00  0.00    +0.050 A 
ATOM     32  C   UNL     1      34.062 -17.647 -23.726  0.00  0.00    +0.003 C 
ATOM     33  C   UNL     1      35.331 -20.139 -23.367  0.00  0.00    +0.008 C 
ATOM     34  C   UNL     1      33.870 -18.686 -24.645  0.00  0.00    +0.000 C 
ATOM     35  C   UNL     1      34.497 -19.914 -24.466  0.00  0.00    +0.001 C 
ATOM     36  H   UNL     1      34.269 -12.613 -21.105  0.00  0.00    -0.080 HD
ENDBRANCH  20  22
ENDBRANCH   2  20
TORSDOF 4
ENDMDL
MODEL 2
REMARK VINA RESULT:     -10.6      0.746      1.815
REMARK  Name = 213046
REMARK  4 active torsions:
REMARK  status: ('A' for Active; 'I' for Inactive)
REMARK    1  A    between atoms: C_1  and  C_7
REMARK    2  A    between atoms: C_2  and  C_20
REMARK    3  A    between atoms: C_7  and  N_10
REMARK    4  A    between atoms: C_20  and  N_22
REMARK                            x       y       z     vdW  Elec       q    Type
REMARK                         _______ _______ _______ _____ _____    ______ ____
ROOT
ATOM      1  C   UNL     1      31.897  -9.714 -21.169  0.00  0.00    +0.018 C 
ATOM      2  C   UNL     1      32.451 -11.021 -20.550  0.00  0.00    -0.019 C 
ATOM      3  C   UNL     1      31.975  -8.557 -20.157  0.00  0.00    +0.002 C 
ATOM      4  C   UNL     1      31.739 -11.341 -19.224  0.00  0.00    -0.002 C 
ATOM      5  C   UNL     1      31.271  -8.896 -18.847  0.00  0.00    +0.000 C 
ATOM      6  C   UNL     1      31.817 -10.181 -18.238  0.00  0.00    -0.000 C 
ENDROOT
BRANCH   1   7
ATOM      7  C   UNL     1      32.634  -9.314 -22.451  0.00  0.00    +0.101 C 
BRANCH   7  10
ATOM      8  O   UNL     1      34.562  -7.114 -22.370  0.00  0.00    -0.274 OA
ATOM      9  O   UNL     1      30.183  -8.087 -23.504  0.00  0.00    -0.274 OA
ATOM     10  N   UNL     1      32.404  -7.921 -22.783  0.00  0.00    -0.230 N 
ATOM     11  C   UNL     1      33.387  -5.103 -24.448  0.00  0.00    +0.009 C 
ATOM     12  C   UNL     1      31.274  -5.573 -24.994  0.00  0.00    +0.009 C 
ATOM     13  C   UNL     1      32.800  -5.644 -23.130  0.00  0.00    +0.086 C 
ATOM     14  C   UNL     1      31.346  -5.968 -23.506  0.00  0.00    +0.086 C 
ATOM     15  C   UNL     1      32.669  -5.936 -25.513  0.00  0.00    +0.001 C 
ATOM     16  C   UNL     1      32.779  -3.711 -24.705  0.00  0.00    +0.001 C 
ATOM     17  C   UNL     1      31.322  -4.035 -25.081  0.00  0.00    +0.001 C 
ATOM     18  C   UNL     1      33.395  -6.963 -22.702  0.00  0.00    +0.231 C 
ATOM     19  C   UNL     1      31.201  -7.450 -23.269  0.00  0.00    +0.231 C 
ENDBRANCH   7  10
ENDBRANCH   1   7
BRANCH   2  20
ATOM     20  C   UNL     1      32.320 -12.219 -21.496  0.00  0.00    -0.077 C 
BRANCH  20  22
ATOM     21  S   UNL     1      36.469 -19.016 -21.067  0.00  0.00    +0.014 S 
ATOM     22  N   UNL     1      33.454 -13.129 -21.344  0.00  0.00    +0.389 N 
ATOM     23  N   UNL     1      34.770 -15.666 -21.443  0.00  0.00    -0.297 N 
ATOM     24  N   UNL     1      36.106 -17.463 -20.623  0.00  0.00    -0.194 NA
ATOM     25  C   UNL     1      33.152 -14.169 -20.351  0.00  0.00    -0.055 C 
ATOM     26  C   UNL     1      33.798 -13.745 -22.633  0.00  0.00    -0.055 C 
ATOM     27  C   UNL     1      34.354 -15.094 -20.156  0.00  0.00    +0.069 C 
ATOM     28  C   UNL     1      35.007 -14.676 -22.498  0.00  0.00    +0.069 C 
ATOM     29  C   UNL     1      35.268 -16.948 -21.522  0.00  0.00    +0.140 A 
ATOM     30  C   UNL     1      34.881 -17.796 -22.617  0.00  0.00    +0.040 A 
ATOM     31  C   UNL     1      35.502 -19.040 -22.490  0.00  0.00    +0.050 A 
ATOM     32  C   UNL     1      34.029 -17.579 -23.722  0.00  0.00    +0.003 C 
ATOM     33  C   UNL     1      35.308 -20.073 -23.421  0.00  0.00    +0.008 C 
ATOM     34  C   UNL     1      33.828 -18.602 -24.656  0.00  0.00    +0.000 C 
ATOM     35  C   UNL     1      34.460 -19.831 -24.505  0.00  0.00    +0.001 C 
ATOM     36  H   UNL     1      34.255 -12.589 -21.018  0.00  0.00    -0.080 HD
ENDBRANCH  20  22
ENDBRANCH   2  20
TORSDOF 4
ENDMDL
MODEL 3
REMARK VINA RESULT:      -9.5      1.511      2.562
REMARK  Name = 213046
REMARK  4 active torsions:
REMARK  status: ('A' for Active; 'I' for Inactive)
REMARK    1  A    between atoms: C_1  and  C_7
REMARK    2  A    between atoms: C_2  and  C_20
REMARK    3  A    between atoms: C_7  and  N_10
REMARK    4  A    between atoms: C_20  and  N_22
REMARK                            x       y       z     vdW  Elec       q    Type
REMARK                         _______ _______ _______ _____ _____    ______ ____
ROOT
ATOM      1  C   UNL     1      32.975  -9.082 -22.286  0.00  0.00    +0.018 C 
ATOM      2  C   UNL     1      33.151 -10.220 -23.322  0.00  0.00    -0.019 C 
ATOM      3  C   UNL     1      33.718  -7.813 -22.741  0.00  0.00    +0.002 C 
ATOM      4  C   UNL     1      34.642 -10.472 -23.608  0.00  0.00    -0.002 C 
ATOM      5  C   UNL     1      35.191  -8.084 -23.027  0.00  0.00    +0.000 C 
ATOM      6  C   UNL     1      35.363  -9.202 -24.047  0.00  0.00    -0.000 C 
ENDROOT
BRANCH   1   7
ATOM      7  C   UNL     1      31.504  -8.743 -22.031  0.00  0.00    +0.101 C 
BRANCH   7  10
ATOM      8  O   UNL     1      31.479  -6.193 -20.595  0.00  0.00    -0.274 OA
ATOM      9  O   UNL     1      30.835  -8.020 -24.797  0.00  0.00    -0.274 OA
ATOM     10  N   UNL     1      31.162  -7.434 -22.553  0.00  0.00    -0.230 N 
ATOM     11  C   UNL     1      31.924  -4.119 -22.884  0.00  0.00    +0.009 C 
ATOM     12  C   UNL     1      31.612  -5.001 -24.911  0.00  0.00    +0.009 C 
ATOM     13  C   UNL     1      30.785  -5.130 -22.651  0.00  0.00    +0.086 C 
ATOM     14  C   UNL     1      30.571  -5.738 -24.046  0.00  0.00    +0.086 C 
ATOM     15  C   UNL     1      32.785  -4.809 -23.945  0.00  0.00    +0.001 C 
ATOM     16  C   UNL     1      31.354  -2.937 -23.691  0.00  0.00    +0.001 C 
ATOM     17  C   UNL     1      31.139  -3.545 -25.089  0.00  0.00    +0.001 C 
ATOM     18  C   UNL     1      31.181  -6.293 -21.776  0.00  0.00    +0.231 C 
ATOM     19  C   UNL     1      30.857  -7.209 -23.881  0.00  0.00    +0.231 C 
ENDBRANCH   7  10
ENDBRANCH   1   7
BRANCH   2  20
ATOM     20  C   UNL     1      32.495 -11.529 -22.872  0.00  0.00    -0.077 C 
BRANCH  20  22
ATOM     21  S   UNL     1      35.878 -18.445 -20.795  0.00  0.00    +0.014 S 
ATOM     22  N   UNL     1      33.499 -12.479 -22.396  0.00  0.00    +0.389 N 
ATOM     23  N   UNL     1      34.578 -15.083 -21.916  0.00  0.00    -0.297 N 
ATOM     24  N   UNL     1      35.587 -16.823 -20.634  0.00  0.00    -0.194 NA
ATOM     25  C   UNL     1      32.940 -13.340 -21.346  0.00  0.00    -0.055 C 
ATOM     26  C   UNL     1      34.002 -13.298 -23.508  0.00  0.00    -0.055 C 
ATOM     27  C   UNL     1      34.002 -14.302 -20.813  0.00  0.00    +0.069 C 
ATOM     28  C   UNL     1      35.081 -14.277 -23.032  0.00  0.00    +0.069 C 
ATOM     29  C   UNL     1      34.964 -16.392 -21.732  0.00  0.00    +0.140 A 
ATOM     30  C   UNL     1      34.696 -17.365 -22.756  0.00  0.00    +0.040 A 
ATOM     31  C   UNL     1      35.171 -18.615 -22.354  0.00  0.00    +0.050 A 
ATOM     32  C   UNL     1      34.069 -17.258 -24.017  0.00  0.00    +0.003 C 
ATOM     33  C   UNL     1      35.046 -19.758 -23.159  0.00  0.00    +0.008 C 
ATOM     34  C   UNL     1      33.939 -18.391 -24.827  0.00  0.00    +0.000 C 
ATOM     35  C   UNL     1      34.422 -19.624 -24.402  0.00  0.00    +0.001 C 
ATOM     36  H   UNL     1      34.278 -11.950 -22.004  0.00  0.00    -0.080 HD
ENDBRANCH  20  22
ENDBRANCH   2  20
TORSDOF 4
ENDMDL
MODEL 4
REMARK VINA RESULT:      -9.4      3.058      5.020
REMARK  Name = 213046
REMARK  4 active torsions:
REMARK  status: ('A' for Active; 'I' for Inactive)
REMARK    1  A    between atoms: C_1  and  C_7
REMARK    2  A    between atoms: C_2  and  C_20
REMARK    3  A    between atoms: C_7  and  N_10
REMARK    4  A    between atoms: C_20  and  N_22
REMARK                            x       y       z     vdW  Elec       q    Type
REMARK                         _______ _______ _______ _____ _____    ______ ____
ROOT
ATOM      1  C   UNL     1      31.112  -6.047 -24.130  0.00  0.00    +0.018 C 
ATOM      2  C   UNL     1      31.458  -6.943 -22.914  0.00  0.00    -0.019 C 
ATOM      3  C   UNL     1      31.504  -4.585 -23.856  0.00  0.00    +0.002 C 
ATOM      4  C   UNL     1      30.821  -6.386 -21.628  0.00  0.00    -0.002 C 
ATOM      5  C   UNL     1      30.870  -4.053 -22.575  0.00  0.00    +0.000 C 
ATOM      6  C   UNL     1      31.212  -4.934 -21.379  0.00  0.00    -0.000 C 
ENDROOT
BRANCH   1   7
ATOM      7  C   UNL     1      31.792  -6.521 -25.418  0.00  0.00    +0.101 C 
BRANCH   7  10
ATOM      8  O   UNL     1      34.551  -6.880 -24.511  0.00  0.00    -0.274 OA
ATOM      9  O   UNL     1      31.927  -4.229 -27.248  0.00  0.00    -0.274 OA
ATOM     10  N   UNL     1      32.946  -5.703 -25.741  0.00  0.00    -0.230 N 
ATOM     11  C   UNL     1      36.197  -5.497 -26.774  0.00  0.00    +0.009 C 
ATOM     12  C   UNL     1      34.930  -4.218 -28.093  0.00  0.00    +0.009 C 
ATOM     13  C   UNL     1      35.148  -4.926 -25.800  0.00  0.00    +0.086 C 
ATOM     14  C   UNL     1      34.276  -4.045 -26.709  0.00  0.00    +0.086 C 
ATOM     15  C   UNL     1      35.402  -5.675 -28.070  0.00  0.00    +0.001 C 
ATOM     16  C   UNL     1      37.153  -4.357 -27.169  0.00  0.00    +0.001 C 
ATOM     17  C   UNL     1      36.280  -3.474 -28.079  0.00  0.00    +0.001 C 
ATOM     18  C   UNL     1      34.207  -5.967 -25.247  0.00  0.00    +0.231 C 
ATOM     19  C   UNL     1      32.893  -4.638 -26.618  0.00  0.00    +0.231 C 
ENDBRANCH   7  10
ENDBRANCH   1   7
BRANCH   2  20
ATOM     20  C   UNL     1      31.012  -8.395 -23.110  0.00  0.00    -0.077 C 
BRANCH  20  22
ATOM     21  S   UNL     1      34.621 -15.255 -21.234  0.00  0.00    +0.014 S 
ATOM     22  N   UNL     1      32.007  -9.323 -22.572  0.00  0.00    +0.389 N 
ATOM     23  N   UNL     1      33.224 -11.882 -22.195  0.00  0.00    -0.297 N 
ATOM     24  N   UNL     1      34.161 -13.690 -20.952  0.00  0.00    -0.194 NA
ATOM     25  C   UNL     1      31.362 -10.343 -21.735  0.00  0.00    -0.055 C 
ATOM     26  C   UNL     1      32.758  -9.962 -23.661  0.00  0.00    -0.055 C 
ATOM     27  C   UNL     1      32.405 -11.284 -21.132  0.00  0.00    +0.069 C 
ATOM     28  C   UNL     1      33.828 -10.912 -23.113  0.00  0.00    +0.069 C 
ATOM     29  C   UNL     1      33.692 -13.173 -22.089  0.00  0.00    +0.140 A 
ATOM     30  C   UNL     1      33.686 -14.030 -23.243  0.00  0.00    +0.040 A 
ATOM     31  C   UNL     1      34.200 -15.283 -22.902  0.00  0.00    +0.050 A 
ATOM     32  C   UNL     1      33.268 -13.815 -24.575  0.00  0.00    +0.003 C 
ATOM     33  C   UNL     1      34.314 -16.326 -23.835  0.00  0.00    +0.008 C 
ATOM     34  C   UNL     1      33.377 -14.848 -25.513  0.00  0.00    +0.000 C 
ATOM     35  C   UNL     1      33.893 -16.086 -25.145  0.00  0.00    +0.001 C 
ATOM     36  H   UNL     1      32.659  -8.792 -21.995  0.00  0.00    -0.080 HD
ENDBRANCH  20  22
ENDBRANCH   2  20
TORSDOF 4
ENDMDL
MODEL 5
REMARK VINA RESULT:      -9.2      2.286      3.934
REMARK  Name = 213046
REMARK  4 active torsions:
REMARK  status: ('A' for Active; 'I' for Inactive)
REMARK    1  A    between atoms: C_1  and  C_7
REMARK    2  A    between atoms: C_2  and  C_20
REMARK    3  A    between atoms: C_7  and  N_10
REMARK    4  A    between atoms: C_20  and  N_22
REMARK                            x       y       z     vdW  Elec       q    Type
REMARK                         _______ _______ _______ _____ _____    ______ ____
ROOT
ATOM      1  C   UNL     1      33.116  -7.267 -22.210  0.00  0.00    +0.018 C 
ATOM      2  C   UNL     1      33.158  -8.669 -22.869  0.00  0.00    -0.019 C 
ATOM      3  C   UNL     1      33.850  -6.234 -23.084  0.00  0.00    +0.002 C 
ATOM      4  C   UNL     1      34.606  -9.079 -23.187  0.00  0.00    -0.002 C 
ATOM      5  C   UNL     1      35.280  -6.661 -23.396  0.00  0.00    +0.000 C 
ATOM      6  C   UNL     1      35.320  -8.039 -24.044  0.00  0.00    -0.000 C 
ENDROOT
BRANCH   1   7
ATOM      7  C   UNL     1      31.687  -6.785 -21.949  0.00  0.00    +0.101 C 
BRANCH   7  10
ATOM      8  O   UNL     1      31.799  -3.914 -21.392  0.00  0.00    -0.274 OA
ATOM      9  O   UNL     1      30.824  -6.943 -24.751  0.00  0.00    -0.274 OA
ATOM     10  N   UNL     1      31.324  -5.695 -22.834  0.00  0.00    -0.230 N 
ATOM     11  C   UNL     1      32.100  -2.679 -24.243  0.00  0.00    +0.009 C 
ATOM     12  C   UNL     1      31.629  -4.142 -25.862  0.00  0.00    +0.009 C 
ATOM     13  C   UNL     1      30.969  -3.526 -23.628  0.00  0.00    +0.086 C 
ATOM     14  C   UNL     1      30.645  -4.533 -24.743  0.00  0.00    +0.086 C 
ATOM     15  C   UNL     1      32.873  -3.697 -25.086  0.00  0.00    +0.001 C 
ATOM     16  C   UNL     1      31.488  -1.791 -25.342  0.00  0.00    +0.001 C 
ATOM     17  C   UNL     1      31.163  -2.799 -26.460  0.00  0.00    +0.001 C 
ATOM     18  C   UNL     1      31.414  -4.369 -22.459  0.00  0.00    +0.231 C 
ATOM     19  C   UNL     1      30.924  -5.886 -24.141  0.00  0.00    +0.231 C 
ENDBRANCH   7  10
ENDBRANCH   1   7
BRANCH   2  20
ATOM     20  C   UNL     1      32.508  -9.746 -21.995  0.00  0.00    -0.077 C 
BRANCH  20  22
ATOM     21  S   UNL     1      34.523 -16.888 -24.917  0.00  0.00    +0.014 S 
ATOM     22  N   UNL     1      32.408 -11.013 -22.719  0.00  0.00    +0.389 N 
ATOM     23  N   UNL     1      33.257 -13.636 -23.477  0.00  0.00    -0.297 N 
ATOM     24  N   UNL     1      33.794 -15.403 -24.987  0.00  0.00    -0.194 NA
ATOM     25  C   UNL     1      33.571 -11.200 -23.597  0.00  0.00    -0.055 C 
ATOM     26  C   UNL     1      32.298 -12.137 -21.779  0.00  0.00    -0.055 C 
ATOM     27  C   UNL     1      33.445 -12.501 -24.390  0.00  0.00    +0.069 C 
ATOM     28  C   UNL     1      32.158 -13.470 -22.521  0.00  0.00    +0.069 C 
ATOM     29  C   UNL     1      33.792 -14.873 -23.763  0.00  0.00    +0.140 A 
ATOM     30  C   UNL     1      34.385 -15.653 -22.711  0.00  0.00    +0.040 A 
ATOM     31  C   UNL     1      34.859 -16.859 -23.230  0.00  0.00    +0.050 A 
ATOM     32  C   UNL     1      34.551 -15.403 -21.331  0.00  0.00    +0.003 C 
ATOM     33  C   UNL     1      35.490 -17.824 -22.428  0.00  0.00    +0.008 C 
ATOM     34  C   UNL     1      35.178 -16.357 -20.522  0.00  0.00    +0.000 C 
ATOM     35  C   UNL     1      35.640 -17.551 -21.066  0.00  0.00    +0.001 C 
ATOM     36  H   UNL     1      31.566 -10.987 -23.294  0.00  0.00    -0.080 HD
ENDBRANCH  20  22
ENDBRANCH   2  20
TORSDOF 4
ENDMDL
MODEL 6
REMARK VINA RESULT:      -9.0      4.277      9.705
REMARK  Name = 213046
REMARK  4 active torsions:
REMARK  status: ('A' for Active; 'I' for Inactive)
REMARK    1  A    between atoms: C_1  and  C_7
REMARK    2  A    between atoms: C_2  and  C_20
REMARK    3  A    between atoms: C_7  and  N_10
REMARK    4  A    between atoms: C_20  and  N_22
REMARK                            x       y       z     vdW  Elec       q    Type
REMARK                         _______ _______ _______ _____ _____    ______ ____
ROOT
ATOM      1  C   UNL     1      31.815 -10.280 -20.542  0.00  0.00    +0.018 C 
ATOM      2  C   UNL     1      31.989  -8.969 -21.349  0.00  0.00    -0.019 C 
ATOM      3  C   UNL     1      31.113 -10.004 -19.201  0.00  0.00    +0.002 C 
ATOM      4  C   UNL     1      32.709  -7.902 -20.507  0.00  0.00    -0.002 C 
ATOM      5  C   UNL     1      31.837  -8.939 -18.385  0.00  0.00    +0.000 C 
ATOM      6  C   UNL     1      32.005  -7.649 -19.179  0.00  0.00    -0.000 C 
ENDROOT
BRANCH   1   7
ATOM      7  C   UNL     1      31.032 -11.344 -21.315  0.00  0.00    +0.101 C 
BRANCH   7  10
ATOM      8  O   UNL     1      32.333 -12.439 -23.697  0.00  0.00    -0.274 OA
ATOM      9  O   UNL     1      31.729 -13.235 -19.180  0.00  0.00    -0.274 OA
ATOM     10  N   UNL     1      31.783 -12.580 -21.427  0.00  0.00    -0.230 N 
ATOM     11  C   UNL     1      34.591 -14.219 -22.482  0.00  0.00    +0.009 C 
ATOM     12  C   UNL     1      34.298 -14.603 -20.303  0.00  0.00    +0.009 C 
ATOM     13  C   UNL     1      33.058 -14.308 -22.348  0.00  0.00    +0.086 C 
ATOM     14  C   UNL     1      32.857 -14.572 -20.848  0.00  0.00    +0.086 C 
ATOM     15  C   UNL     1      35.013 -13.560 -21.167  0.00  0.00    +0.001 C 
ATOM     16  C   UNL     1      35.168 -15.635 -22.301  0.00  0.00    +0.001 C 
ATOM     17  C   UNL     1      34.967 -15.900 -20.797  0.00  0.00    +0.001 C 
ATOM     18  C   UNL     1      32.353 -13.001 -22.612  0.00  0.00    +0.231 C 
ATOM     19  C   UNL     1      32.049 -13.401 -20.349  0.00  0.00    +0.231 C 
ENDBRANCH   7  10
ENDBRANCH   1   7
BRANCH   2  20
ATOM     20  C   UNL     1      32.756  -9.183 -22.658  0.00  0.00    -0.077 C 
BRANCH  20  22
ATOM     21  S   UNL     1      36.702  -3.996 -27.254  0.00  0.00    +0.014 S 
ATOM     22  N   UNL     1      33.411  -7.947 -23.086  0.00  0.00    +0.389 N 
ATOM     23  N   UNL     1      34.640  -6.188 -24.976  0.00  0.00    -0.297 N 
ATOM     24  N   UNL     1      36.319  -4.717 -25.813  0.00  0.00    -0.194 NA
ATOM     25  C   UNL     1      34.754  -8.229 -23.608  0.00  0.00    -0.055 C 
ATOM     26  C   UNL     1      32.604  -7.262 -24.105  0.00  0.00    -0.055 C 
ATOM     27  C   UNL     1      35.459  -6.934 -24.011  0.00  0.00    +0.069 C 
ATOM     28  C   UNL     1      33.260  -5.948 -24.541  0.00  0.00    +0.069 C 
ATOM     29  C   UNL     1      35.222  -5.455 -25.986  0.00  0.00    +0.140 A 
ATOM     30  C   UNL     1      34.643  -5.468 -27.301  0.00  0.00    +0.040 A 
ATOM     31  C   UNL     1      35.397  -4.661 -28.156  0.00  0.00    +0.050 A 
ATOM     32  C   UNL     1      33.508  -6.126 -27.825  0.00  0.00    +0.003 C 
ATOM     33  C   UNL     1      35.063  -4.485 -29.508  0.00  0.00    +0.008 C 
ATOM     34  C   UNL     1      33.167  -5.958 -29.172  0.00  0.00    +0.000 C 
ATOM     35  C   UNL     1      33.936  -5.148 -30.000  0.00  0.00    +0.001 C 
ATOM     36  H   UNL     1      33.497  -7.335 -22.275  0.00  0.00    -0.080 HD
ENDBRANCH  20  22
ENDBRANCH   2  20
TORSDOF 4
ENDMDL
MODEL 7
REMARK VINA RESULT:      -8.8      4.036     10.904
REMARK  Name = 213046
REMARK  4 active torsions:
REMARK  status: ('A' for Active; 'I' for Inactive)
REMARK    1  A    between atoms: C_1  and  C_7
REMARK    2  A    between atoms: C_2  and  C_20
REMARK    3  A    between atoms: C_7  and  N_10
REMARK    4  A    between atoms: C_20  and  N_22
REMARK                            x       y       z     vdW  Elec       q    Type
REMARK                         _______ _______ _______ _____ _____    ______ ____
ROOT
ATOM      1  C   UNL     1      32.931 -12.960 -22.361  0.00  0.00    +0.018 C 
ATOM      2  C   UNL     1      32.198 -11.598 -22.455  0.00  0.00    -0.019 C 
ATOM      3  C   UNL     1      32.242 -13.879 -21.338  0.00  0.00    +0.002 C 
ATOM      4  C   UNL     1      32.069 -10.952 -21.065  0.00  0.00    -0.002 C 
ATOM      5  C   UNL     1      32.116 -13.219 -19.969  0.00  0.00    +0.000 C 
ATOM      6  C   UNL     1      31.393 -11.881 -20.062  0.00  0.00    -0.000 C 
ENDROOT
BRANCH   1   7
ATOM      7  C   UNL     1      33.012 -13.676 -23.712  0.00  0.00    +0.101 C 
BRANCH   7  10
ATOM      8  O   UNL     1      35.172 -14.141 -21.793  0.00  0.00    -0.274 OA
ATOM      9  O   UNL     1      33.030 -16.071 -25.411  0.00  0.00    -0.274 OA
ATOM     10  N   UNL     1      33.930 -14.799 -23.663  0.00  0.00    -0.230 N 
ATOM     11  C   UNL     1      35.473 -17.248 -21.846  0.00  0.00    +0.009 C 
ATOM     12  C   UNL     1      34.439 -18.177 -23.593  0.00  0.00    +0.009 C 
ATOM     13  C   UNL     1      35.662 -16.200 -22.960  0.00  0.00    +0.086 C 
ATOM     14  C   UNL     1      34.950 -16.840 -24.162  0.00  0.00    +0.086 C 
ATOM     15  C   UNL     1      34.085 -17.821 -22.146  0.00  0.00    +0.001 C 
ATOM     16  C   UNL     1      36.368 -18.458 -22.172  0.00  0.00    +0.001 C 
ATOM     17  C   UNL     1      35.655 -19.099 -23.377  0.00  0.00    +0.001 C 
ATOM     18  C   UNL     1      34.920 -14.911 -22.708  0.00  0.00    +0.231 C 
ATOM     19  C   UNL     1      33.848 -15.877 -24.522  0.00  0.00    +0.231 C 
ENDBRANCH   7  10
ENDBRANCH   1   7
BRANCH   2  20
ATOM     20  C   UNL     1      32.897 -10.620 -23.404  0.00  0.00    -0.077 C 
BRANCH  20  22
ATOM     21  S   UNL     1      32.214  -2.696 -23.994  0.00  0.00    +0.014 S 
ATOM     22  N   UNL     1      32.339  -9.275 -23.269  0.00  0.00    +0.389 N 
ATOM     23  N   UNL     1      32.202  -6.465 -23.782  0.00  0.00    -0.297 N 
ATOM     24  N   UNL     1      32.041  -4.152 -23.224  0.00  0.00    -0.194 NA
ATOM     25  C   UNL     1      33.334  -8.359 -22.695  0.00  0.00    -0.055 C 
ATOM     26  C   UNL     1      31.881  -8.773 -24.572  0.00  0.00    -0.055 C 
ATOM     27  C   UNL     1      32.738  -6.963 -22.508  0.00  0.00    +0.069 C 
ATOM     28  C   UNL     1      31.262  -7.377 -24.442  0.00  0.00    +0.069 C 
ATOM     29  C   UNL     1      32.266  -5.128 -24.105  0.00  0.00    +0.140 A 
ATOM     30  C   UNL     1      32.590  -4.734 -25.449  0.00  0.00    +0.040 A 
ATOM     31  C   UNL     1      32.599  -3.341 -25.542  0.00  0.00    +0.050 A 
ATOM     32  C   UNL     1      32.881  -5.488 -26.608  0.00  0.00    +0.003 C 
ATOM     33  C   UNL     1      32.885  -2.672 -26.743  0.00  0.00    +0.008 C 
ATOM     34  C   UNL     1      33.168  -4.831 -27.810  0.00  0.00    +0.000 C 
ATOM     35  C   UNL     1      33.169  -3.441 -27.874  0.00  0.00    +0.001 C 
ATOM     36  H   UNL     1      31.539  -9.323 -22.639  0.00  0.00    -0.080 HD
ENDBRANCH  20  22
ENDBRANCH   2  20
TORSDOF 4
ENDMDL
MODEL 8
REMARK VINA RESULT:      -8.7      7.966     14.195
REMARK  Name = 213046
REMARK  4 active torsions:
REMARK  status: ('A' for Active; 'I' for Inactive)
REMARK    1  A    between atoms: C_1  and  C_7
REMARK    2  A    between atoms: C_2  and  C_20
REMARK    3  A    between atoms: C_7  and  N_10
REMARK    4  A    between atoms: C_20  and  N_22
REMARK                            x       y       z     vdW  Elec       q    Type
REMARK                         _______ _______ _______ _____ _____    ______ ____
ROOT
ATOM      1  C   UNL     1      34.392 -22.672 -17.054  0.00  0.00    +0.018 C 
ATOM      2  C   UNL     1      34.698 -22.183 -18.492  0.00  0.00    -0.019 C 
ATOM      3  C   UNL     1      32.936 -23.156 -16.942  0.00  0.00    +0.002 C 
ATOM      4  C   UNL     1      33.681 -21.117 -18.933  0.00  0.00    -0.002 C 
ATOM      5  C   UNL     1      31.943 -22.089 -17.391  0.00  0.00    +0.000 C 
ATOM      6  C   UNL     1      32.244 -21.610 -18.806  0.00  0.00    -0.000 C 
ENDROOT
BRANCH   1   7
ATOM      7  C   UNL     1      35.334 -23.793 -16.603  0.00  0.00    +0.101 C 
BRANCH   7  10
ATOM      8  O   UNL     1      33.834 -24.529 -14.200  0.00  0.00    -0.274 OA
ATOM      9  O   UNL     1      37.892 -22.784 -15.576  0.00  0.00    -0.274 OA
ATOM     10  N   UNL     1      35.736 -23.624 -15.220  0.00  0.00    -0.230 N 
ATOM     11  C   UNL     1      36.095 -24.944 -12.088  0.00  0.00    +0.009 C 
ATOM     12  C   UNL     1      38.052 -24.101 -12.753  0.00  0.00    +0.009 C 
ATOM     13  C   UNL     1      35.681 -23.692 -12.885  0.00  0.00    +0.086 C 
ATOM     14  C   UNL     1      37.028 -23.112 -13.342  0.00  0.00    +0.086 C 
ATOM     15  C   UNL     1      37.324 -25.446 -12.850  0.00  0.00    +0.001 C 
ATOM     16  C   UNL     1      36.736 -24.479 -10.767  0.00  0.00    +0.001 C 
ATOM     17  C   UNL     1      38.087 -23.897 -11.225  0.00  0.00    +0.001 C 
ATOM     18  C   UNL     1      34.939 -24.006 -14.160  0.00  0.00    +0.231 C 
ATOM     19  C   UNL     1      36.971 -23.131 -14.849  0.00  0.00    +0.231 C 
ENDBRANCH   7  10
ENDBRANCH   1   7
BRANCH   2  20
ATOM     20  C   UNL     1      36.115 -21.618 -18.629  0.00  0.00    -0.077 C 
BRANCH  20  22
ATOM     21  S   UNL     1      34.618 -16.359 -24.435  0.00  0.00    +0.014 S 
ATOM     22  N   UNL     1      36.259 -20.872 -19.879  0.00  0.00    +0.389 N 
ATOM     23  N   UNL     1      35.659 -18.775 -21.727  0.00  0.00    -0.297 N 
ATOM     24  N   UNL     1      35.112 -17.825 -23.846  0.00  0.00    -0.194 NA
ATOM     25  C   UNL     1      34.997 -20.874 -20.630  0.00  0.00    -0.055 C 
ATOM     26  C   UNL     1      36.687 -19.493 -19.611  0.00  0.00    -0.055 C 
ATOM     27  C   UNL     1      35.158 -20.136 -21.960  0.00  0.00    +0.069 C 
ATOM     28  C   UNL     1      36.876 -18.707 -20.913  0.00  0.00    +0.069 C 
ATOM     29  C   UNL     1      35.257 -17.725 -22.524  0.00  0.00    +0.140 A 
ATOM     30  C   UNL     1      34.972 -16.448 -21.929  0.00  0.00    +0.040 A 
ATOM     31  C   UNL     1      34.585 -15.544 -22.920  0.00  0.00    +0.050 A 
ATOM     32  C   UNL     1      35.020 -16.000 -20.591  0.00  0.00    +0.003 C 
ATOM     33  C   UNL     1      34.244 -14.213 -22.628  0.00  0.00    +0.008 C 
ATOM     34  C   UNL     1      34.683 -14.675 -20.289  0.00  0.00    +0.000 C 
ATOM     35  C   UNL     1      34.301 -13.796 -21.296  0.00  0.00    +0.001 C 
ATOM     36  H   UNL     1      36.975 -21.330 -20.443  0.00  0.00    -0.080 HD
ENDBRANCH  20  22
ENDBRANCH   2  20
TORSDOF 4
ENDMDL
MODEL 9
REMARK VINA RESULT:      -8.5      2.593      4.368
REMARK  Name = 213046
REMARK  4 active torsions:
REMARK  status: ('A' for Active; 'I' for Inactive)
REMARK    1  A    between atoms: C_1  and  C_7
REMARK    2  A    between atoms: C_2  and  C_20
REMARK    3  A    between atoms: C_7  and  N_10
REMARK    4  A    between atoms: C_20  and  N_22
REMARK                            x       y       z     vdW  Elec       q    Type
REMARK                         _______ _______ _______ _____ _____    ______ ____
ROOT
ATOM      1  C   UNL     1      31.678  -6.789 -21.981  0.00  0.00    +0.018 C 
ATOM      2  C   UNL     1      31.950  -8.188 -21.376  0.00  0.00    -0.019 C 
ATOM      3  C   UNL     1      32.848  -5.833 -21.689  0.00  0.00    +0.002 C 
ATOM      4  C   UNL     1      32.270  -8.080 -19.875  0.00  0.00    -0.002 C 
ATOM      5  C   UNL     1      33.156  -5.745 -20.198  0.00  0.00    +0.000 C 
ATOM      6  C   UNL     1      33.425  -7.122 -19.604  0.00  0.00    -0.000 C 
ENDROOT
BRANCH   1   7
ATOM      7  C   UNL     1      31.432  -6.841 -23.492  0.00  0.00    +0.101 C 
BRANCH   7  10
ATOM      8  O   UNL     1      34.199  -7.556 -24.122  0.00  0.00    -0.274 OA
ATOM      9  O   UNL     1      31.045  -4.238 -24.794  0.00  0.00    -0.274 OA
ATOM     10  N   UNL     1      32.410  -6.051 -24.216  0.00  0.00    -0.230 N 
ATOM     11  C   UNL     1      34.780  -5.850 -26.671  0.00  0.00    +0.009 C 
ATOM     12  C   UNL     1      33.258  -4.250 -26.994  0.00  0.00    +0.009 C 
ATOM     13  C   UNL     1      34.416  -5.422 -25.236  0.00  0.00    +0.086 C 
ATOM     14  C   UNL     1      33.368  -4.321 -25.459  0.00  0.00    +0.086 C 
ATOM     15  C   UNL     1      33.452  -5.708 -27.419  0.00  0.00    +0.001 C 
ATOM     16  C   UNL     1      35.602  -4.717 -27.312  0.00  0.00    +0.001 C 
ATOM     17  C   UNL     1      34.552  -3.613 -27.536  0.00  0.00    +0.001 C 
ATOM     18  C   UNL     1      33.697  -6.491 -24.451  0.00  0.00    +0.231 C 
ATOM     19  C   UNL     1      32.117  -4.829 -24.787  0.00  0.00    +0.231 C 
ENDBRANCH   7  10
ENDBRANCH   1   7
BRANCH   2  20
ATOM     20  C   UNL     1      30.775  -9.151 -21.574  0.00  0.00    -0.077 C 
BRANCH  20  22
ATOM     21  S   UNL     1      35.024 -15.272 -24.415  0.00  0.00    +0.014 S 
ATOM     22  N   UNL     1      31.163 -10.280 -22.418  0.00  0.00    +0.389 N 
ATOM     23  N   UNL     1      32.732 -12.562 -23.131  0.00  0.00    -0.297 N 
ATOM     24  N   UNL     1      34.052 -13.940 -24.561  0.00  0.00    -0.194 NA
ATOM     25  C   UNL     1      32.545 -10.121 -22.889  0.00  0.00    -0.055 C 
ATOM     26  C   UNL     1      31.020 -11.545 -21.686  0.00  0.00    -0.055 C 
ATOM     27  C   UNL     1      32.937 -11.276 -23.812  0.00  0.00    +0.069 C 
ATOM     28  C   UNL     1      31.390 -12.742 -22.568  0.00  0.00    +0.069 C 
ATOM     29  C   UNL     1      33.576 -13.627 -23.355  0.00  0.00    +0.140 A 
ATOM     30  C   UNL     1      33.983 -14.458 -22.255  0.00  0.00    +0.040 A 
ATOM     31  C   UNL     1      34.833 -15.465 -22.716  0.00  0.00    +0.050 A 
ATOM     32  C   UNL     1      33.677 -14.414 -20.877  0.00  0.00    +0.003 C 
ATOM     33  C   UNL     1      35.387 -16.429 -21.858  0.00  0.00    +0.008 C 
ATOM     34  C   UNL     1      34.224 -15.369 -20.013  0.00  0.00    +0.000 C 
ATOM     35  C   UNL     1      35.067 -16.363 -20.499  0.00  0.00    +0.001 C 
ATOM     36  H   UNL     1      30.543 -10.301 -23.227  0.00  0.00    -0.080 HD
ENDBRANCH  20  22
ENDBRANCH   2  20
TORSDOF 4
ENDMDL
