MODEL 1
REMARK VINA RESULT:     -10.1      0.000      0.000
REMARK  Name = 72098
REMARK  4 active torsions:
REMARK  status: ('A' for Active; 'I' for Inactive)
REMARK    1  A    between atoms: N_1  and  C_9
REMARK    2  A    between atoms: N_2  and  C_19
REMARK    3  A    between atoms: C_9  and  C_12
REMARK    4  A    between atoms: C_19  and  C_23
REMARK                            x       y       z     vdW  Elec       q    Type
REMARK                         _______ _______ _______ _____ _____    ______ ____
ROOT
ATOM      1  N   UNL     1      33.151 -11.581 -22.951  0.00  0.00    +0.387 N 
ATOM      2  N   UNL     1      32.331  -8.845 -23.398  0.00  0.00    +0.390 N 
ATOM      3  C   UNL     1      32.077 -10.968 -22.158  0.00  0.00    -0.100 C 
ATOM      4  C   UNL     1      34.109 -10.561 -23.393  0.00  0.00    -0.100 C 
ATOM      5  C   UNL     1      31.372  -9.865 -22.957  0.00  0.00    -0.100 C 
ATOM      6  C   UNL     1      33.403  -9.459 -24.191  0.00  0.00    -0.100 C 
ATOM      7  H   UNL     1      32.735 -12.011 -23.776  0.00  0.00    -0.079 HD
ATOM      8  H   UNL     1      32.747  -8.416 -22.572  0.00  0.00    -0.079 HD
ENDROOT
BRANCH   1   9
ATOM      9  C   UNL     1      33.824 -12.629 -22.187  0.00  0.00    -0.050 C 
BRANCH   9  12
ATOM     10  O   UNL     1      35.197 -17.338 -22.751  0.00  0.00    -0.435 OA
ATOM     11  O   UNL     1      34.259 -17.467 -24.967  0.00  0.00    -0.435 OA
ATOM     12  C   UNL     1      33.923 -13.915 -22.964  0.00  0.00    -0.040 C 
ATOM     13  C   UNL     1      34.556 -15.011 -22.388  0.00  0.00    +0.034 C 
ATOM     14  C   UNL     1      33.374 -13.979 -24.249  0.00  0.00    -0.003 C 
ATOM     15  C   UNL     1      34.621 -16.167 -23.137  0.00  0.00    +0.176 C 
ATOM     16  C   UNL     1      33.453 -15.162 -24.988  0.00  0.00    +0.040 C 
ATOM     17  C   UNL     1      34.085 -16.240 -24.403  0.00  0.00    +0.176 C 
ATOM     18  C   UNL     1      34.963 -18.158 -23.915  0.00  0.00    +0.429 C 
ENDBRANCH   9  12
ENDBRANCH   1   9
BRANCH   2  19
ATOM     19  C   UNL     1      31.657  -7.795 -24.160  0.00  0.00    +0.011 C 
BRANCH  19  23
ATOM     20  S   UNL     1      31.823  -2.995 -25.607  0.00  0.00    -0.084 S 
ATOM     21  O   UNL     1      30.794  -6.873 -22.181  0.00  0.00    -0.276 OA
ATOM     22  N   UNL     1      31.937  -5.373 -23.600  0.00  0.00    -0.238 N 
ATOM     23  C   UNL     1      31.458  -6.640 -23.197  0.00  0.00    +0.212 C 
ATOM     24  C   UNL     1      33.075  -5.198 -24.469  0.00  0.00    +0.064 C 
ATOM     25  C   UNL     1      31.311  -4.157 -23.124  0.00  0.00    +0.064 C 
ATOM     26  C   UNL     1      33.150  -4.155 -25.406  0.00  0.00    +0.043 C 
ATOM     27  C   UNL     1      31.218  -3.010 -23.935  0.00  0.00    +0.043 C 
ATOM     28  C   UNL     1      34.191  -6.047 -24.345  0.00  0.00    +0.016 C 
ATOM     29  C   UNL     1      30.775  -4.078 -21.825  0.00  0.00    +0.016 C 
ATOM     30  C   UNL     1      34.275  -4.018 -26.234  0.00  0.00    +0.008 C 
ATOM     31  C   UNL     1      30.587  -1.846 -23.465  0.00  0.00    +0.008 C 
ATOM     32  C   UNL     1      35.313  -5.903 -25.163  0.00  0.00    +0.001 C 
ATOM     33  C   UNL     1      30.155  -2.915 -21.359  0.00  0.00    +0.001 C 
ATOM     34  C   UNL     1      35.351  -4.893 -26.116  0.00  0.00    +0.001 C 
ATOM     35  C   UNL     1      30.056  -1.800 -22.180  0.00  0.00    +0.001 C 
ENDBRANCH  19  23
ENDBRANCH   2  19
TORSDOF 4
ENDMDL
MODEL 2
REMARK VINA RESULT:     -10.0      9.681     16.566
REMARK  Name = 72098
REMARK  4 active torsions:
REMARK  status: ('A' for Active; 'I' for Inactive)
REMARK    1  A    between atoms: N_1  and  C_9
REMARK    2  A    between atoms: N_2  and  C_19
REMARK    3  A    between atoms: C_9  and  C_12
REMARK    4  A    between atoms: C_19  and  C_23
REMARK                            x       y       z     vdW  Elec       q    Type
REMARK                         _______ _______ _______ _____ _____    ______ ____
ROOT
ATOM      1  N   UNL     1      35.281 -20.096 -20.461  0.00  0.00    +0.387 N 
ATOM      2  N   UNL     1      35.069 -22.083 -18.372  0.00  0.00    +0.390 N 
ATOM      3  C   UNL     1      34.027 -20.824 -20.226  0.00  0.00    -0.100 C 
ATOM      4  C   UNL     1      36.432 -20.918 -20.072  0.00  0.00    -0.100 C 
ATOM      5  C   UNL     1      33.917 -21.260 -18.760  0.00  0.00    -0.100 C 
ATOM      6  C   UNL     1      36.321 -21.354 -18.607  0.00  0.00    -0.100 C 
ATOM      7  H   UNL     1      35.277 -19.255 -19.885  0.00  0.00    -0.079 HD
ATOM      8  H   UNL     1      35.074 -22.923 -18.949  0.00  0.00    -0.079 HD
ENDROOT
BRANCH   1   9
ATOM      9  C   UNL     1      35.386 -19.683 -21.859  0.00  0.00    -0.050 C 
BRANCH   9  12
ATOM     10  O   UNL     1      34.795 -15.101 -20.122  0.00  0.00    -0.435 OA
ATOM     11  O   UNL     1      34.633 -14.159 -22.334  0.00  0.00    -0.435 OA
ATOM     12  C   UNL     1      35.184 -18.201 -22.025  0.00  0.00    -0.040 C 
ATOM     13  C   UNL     1      35.093 -17.397 -20.894  0.00  0.00    +0.034 C 
ATOM     14  C   UNL     1      35.091 -17.665 -23.314  0.00  0.00    -0.003 C 
ATOM     15  C   UNL     1      34.908 -16.045 -21.095  0.00  0.00    +0.176 C 
ATOM     16  C   UNL     1      34.904 -16.291 -23.490  0.00  0.00    +0.040 C 
ATOM     17  C   UNL     1      34.816 -15.507 -22.359  0.00  0.00    +0.176 C 
ATOM     18  C   UNL     1      34.621 -13.907 -20.914  0.00  0.00    +0.429 C 
ENDBRANCH   9  12
ENDBRANCH   1   9
BRANCH   2  19
ATOM     19  C   UNL     1      34.963 -22.497 -16.974  0.00  0.00    +0.011 C 
BRANCH  19  23
ATOM     20  S   UNL     1      32.592 -23.096 -12.594  0.00  0.00    -0.084 S 
ATOM     21  O   UNL     1      32.920 -23.244 -17.858  0.00  0.00    -0.276 OA
ATOM     22  N   UNL     1      33.278 -23.702 -15.571  0.00  0.00    -0.238 N 
ATOM     23  C   UNL     1      33.636 -23.223 -16.852  0.00  0.00    +0.212 C 
ATOM     24  C   UNL     1      34.245 -24.113 -14.581  0.00  0.00    +0.064 C 
ATOM     25  C   UNL     1      31.888 -23.834 -15.190  0.00  0.00    +0.064 C 
ATOM     26  C   UNL     1      34.044 -23.909 -13.207  0.00  0.00    +0.043 C 
ATOM     27  C   UNL     1      31.460 -23.603 -13.869  0.00  0.00    +0.043 C 
ATOM     28  C   UNL     1      35.404 -24.806 -14.978  0.00  0.00    +0.016 C 
ATOM     29  C   UNL     1      30.909 -24.202 -16.133  0.00  0.00    +0.016 C 
ATOM     30  C   UNL     1      35.008 -24.325 -12.276  0.00  0.00    +0.008 C 
ATOM     31  C   UNL     1      30.103 -23.714 -13.522  0.00  0.00    +0.008 C 
ATOM     32  C   UNL     1      36.357 -25.227 -14.048  0.00  0.00    +0.001 C 
ATOM     33  C   UNL     1      29.561 -24.319 -15.781  0.00  0.00    +0.001 C 
ATOM     34  C   UNL     1      36.163 -24.977 -12.696  0.00  0.00    +0.001 C 
ATOM     35  C   UNL     1      29.157 -24.070 -14.477  0.00  0.00    +0.001 C 
ENDBRANCH  19  23
ENDBRANCH   2  19
TORSDOF 4
ENDMDL
MODEL 3
REMARK VINA RESULT:      -9.5      2.877      5.112
REMARK  Name = 72098
REMARK  4 active torsions:
REMARK  status: ('A' for Active; 'I' for Inactive)
REMARK    1  A    between atoms: N_1  and  C_9
REMARK    2  A    between atoms: N_2  and  C_19
REMARK    3  A    between atoms: C_9  and  C_12
REMARK    4  A    between atoms: C_19  and  C_23
REMARK                            x       y       z     vdW  Elec       q    Type
REMARK                         _______ _______ _______ _____ _____    ______ ____
ROOT
ATOM      1  N   UNL     1      34.283 -14.959 -24.151  0.00  0.00    +0.387 N 
ATOM      2  N   UNL     1      33.550 -12.329 -23.202  0.00  0.00    +0.390 N 
ATOM      3  C   UNL     1      33.806 -13.921 -25.074  0.00  0.00    -0.100 C 
ATOM      4  C   UNL     1      33.704 -14.765 -22.818  0.00  0.00    -0.100 C 
ATOM      5  C   UNL     1      34.130 -12.522 -24.536  0.00  0.00    -0.100 C 
ATOM      6  C   UNL     1      34.028 -13.366 -22.280  0.00  0.00    -0.100 C 
ATOM      7  H   UNL     1      35.297 -14.881 -24.077  0.00  0.00    -0.079 HD
ATOM      8  H   UNL     1      32.537 -12.408 -23.277  0.00  0.00    -0.079 HD
ENDROOT
BRANCH   1   9
ATOM      9  C   UNL     1      33.970 -16.292 -24.664  0.00  0.00    -0.050 C 
BRANCH   9  12
ATOM     10  O   UNL     1      36.442 -17.933 -20.719  0.00  0.00    -0.435 OA
ATOM     11  O   UNL     1      35.870 -20.230 -21.172  0.00  0.00    -0.435 OA
ATOM     12  C   UNL     1      34.464 -17.377 -23.746  0.00  0.00    -0.040 C 
ATOM     13  C   UNL     1      35.244 -17.036 -22.647  0.00  0.00    +0.034 C 
ATOM     14  C   UNL     1      34.126 -18.707 -24.018  0.00  0.00    -0.003 C 
ATOM     15  C   UNL     1      35.673 -18.064 -21.834  0.00  0.00    +0.176 C 
ATOM     16  C   UNL     1      34.573 -19.731 -23.178  0.00  0.00    +0.040 C 
ATOM     17  C   UNL     1      35.346 -19.376 -22.093  0.00  0.00    +0.176 C 
ATOM     18  C   UNL     1      36.562 -19.310 -20.304  0.00  0.00    +0.429 C 
ENDBRANCH   9  12
ENDBRANCH   1   9
BRANCH   2  19
ATOM     19  C   UNL     1      33.861 -10.996 -22.690  0.00  0.00    +0.011 C 
BRANCH  19  23
ATOM     20  S   UNL     1      32.444  -6.767 -20.393  0.00  0.00    -0.084 S 
ATOM     21  O   UNL     1      32.630 -10.101 -24.477  0.00  0.00    -0.276 OA
ATOM     22  N   UNL     1      32.183  -9.171 -22.355  0.00  0.00    -0.238 N 
ATOM     23  C   UNL     1      32.798 -10.072 -23.254  0.00  0.00    +0.212 C 
ATOM     24  C   UNL     1      32.004  -9.452 -20.951  0.00  0.00    +0.064 C 
ATOM     25  C   UNL     1      31.662  -7.901 -22.818  0.00  0.00    +0.064 C 
ATOM     26  C   UNL     1      32.083  -8.451 -19.970  0.00  0.00    +0.043 C 
ATOM     27  C   UNL     1      31.707  -6.748 -22.011  0.00  0.00    +0.043 C 
ATOM     28  C   UNL     1      31.670 -10.754 -20.533  0.00  0.00    +0.016 C 
ATOM     29  C   UNL     1      31.085  -7.776 -24.096  0.00  0.00    +0.016 C 
ATOM     30  C   UNL     1      31.902  -8.766 -18.614  0.00  0.00    +0.008 C 
ATOM     31  C   UNL     1      31.217  -5.520 -22.485  0.00  0.00    +0.008 C 
ATOM     32  C   UNL     1      31.481 -11.062 -19.184  0.00  0.00    +0.001 C 
ATOM     33  C   UNL     1      30.592  -6.553 -24.559  0.00  0.00    +0.001 C 
ATOM     34  C   UNL     1      31.607 -10.068 -18.223  0.00  0.00    +0.001 C 
ATOM     35  C   UNL     1      30.663  -5.423 -23.756  0.00  0.00    +0.001 C 
ENDBRANCH  19  23
ENDBRANCH   2  19
TORSDOF 4
ENDMDL
MODEL 4
REMARK VINA RESULT:      -9.1      2.320      3.704
REMARK  Name = 72098
REMARK  4 active torsions:
REMARK  status: ('A' for Active; 'I' for Inactive)
REMARK    1  A    between atoms: N_1  and  C_9
REMARK    2  A    between atoms: N_2  and  C_19
REMARK    3  A    between atoms: C_9  and  C_12
REMARK    4  A    between atoms: C_19  and  C_23
REMARK                            x       y       z     vdW  Elec       q    Type
REMARK                         _______ _______ _______ _____ _____    ______ ____
ROOT
ATOM      1  N   UNL     1      33.213 -12.259 -23.086  0.00  0.00    +0.387 N 
ATOM      2  N   UNL     1      31.709  -9.790 -23.085  0.00  0.00    +0.390 N 
ATOM      3  C   UNL     1      32.491 -11.807 -21.889  0.00  0.00    -0.100 C 
ATOM      4  C   UNL     1      33.633 -11.111 -23.896  0.00  0.00    -0.100 C 
ATOM      5  C   UNL     1      31.287 -10.939 -22.275  0.00  0.00    -0.100 C 
ATOM      6  C   UNL     1      32.429 -10.244 -24.280  0.00  0.00    -0.100 C 
ATOM      7  H   UNL     1      32.581 -12.833 -23.644  0.00  0.00    -0.079 HD
ATOM      8  H   UNL     1      32.341  -9.218 -22.526  0.00  0.00    -0.079 HD
ENDROOT
BRANCH   1   9
ATOM      9  C   UNL     1      34.362 -13.083 -22.717  0.00  0.00    -0.050 C 
BRANCH   9  12
ATOM     10  O   UNL     1      35.342 -17.922 -22.750  0.00  0.00    -0.435 OA
ATOM     11  O   UNL     1      34.108 -18.276 -24.790  0.00  0.00    -0.435 OA
ATOM     12  C   UNL     1      34.272 -14.467 -23.303  0.00  0.00    -0.040 C 
ATOM     13  C   UNL     1      34.905 -15.522 -22.655  0.00  0.00    +0.034 C 
ATOM     14  C   UNL     1      33.553 -14.661 -24.487  0.00  0.00    -0.003 C 
ATOM     15  C   UNL     1      34.796 -16.772 -23.229  0.00  0.00    +0.176 C 
ATOM     16  C   UNL     1      33.457 -15.937 -25.049  0.00  0.00    +0.040 C 
ATOM     17  C   UNL     1      34.090 -16.973 -24.394  0.00  0.00    +0.176 C 
ATOM     18  C   UNL     1      34.902 -18.871 -23.743  0.00  0.00    +0.429 C 
ENDBRANCH   9  12
ENDBRANCH   1   9
BRANCH   2  19
ATOM     19  C   UNL     1      30.560  -8.965 -23.452  0.00  0.00    +0.011 C 
BRANCH  19  23
ATOM     20  S   UNL     1      35.250  -7.300 -22.827  0.00  0.00    -0.084 S 
ATOM     21  O   UNL     1      30.605  -7.540 -25.317  0.00  0.00    -0.276 OA
ATOM     22  N   UNL     1      32.260  -7.144 -23.682  0.00  0.00    -0.238 N 
ATOM     23  C   UNL     1      31.120  -7.784 -24.221  0.00  0.00    +0.212 C 
ATOM     24  C   UNL     1      32.538  -7.085 -22.267  0.00  0.00    +0.064 C 
ATOM     25  C   UNL     1      33.212  -6.474 -24.543  0.00  0.00    +0.064 C 
ATOM     26  C   UNL     1      33.845  -7.131 -21.758  0.00  0.00    +0.043 C 
ATOM     27  C   UNL     1      34.589  -6.461 -24.249  0.00  0.00    +0.043 C 
ATOM     28  C   UNL     1      31.485  -6.905 -21.351  0.00  0.00    +0.016 C 
ATOM     29  C   UNL     1      32.792  -5.806 -25.708  0.00  0.00    +0.016 C 
ATOM     30  C   UNL     1      34.075  -7.069 -20.374  0.00  0.00    +0.008 C 
ATOM     31  C   UNL     1      35.501  -5.825 -25.107  0.00  0.00    +0.008 C 
ATOM     32  C   UNL     1      31.716  -6.835 -19.976  0.00  0.00    +0.001 C 
ATOM     33  C   UNL     1      33.703  -5.169 -26.555  0.00  0.00    +0.001 C 
ATOM     34  C   UNL     1      33.013  -6.927 -19.486  0.00  0.00    +0.001 C 
ATOM     35  C   UNL     1      35.058  -5.183 -26.258  0.00  0.00    +0.001 C 
ENDBRANCH  19  23
ENDBRANCH   2  19
TORSDOF 4
ENDMDL
MODEL 5
REMARK VINA RESULT:      -9.1      1.667      3.620
REMARK  Name = 72098
REMARK  4 active torsions:
REMARK  status: ('A' for Active; 'I' for Inactive)
REMARK    1  A    between atoms: N_1  and  C_9
REMARK    2  A    between atoms: N_2  and  C_19
REMARK    3  A    between atoms: C_9  and  C_12
REMARK    4  A    between atoms: C_19  and  C_23
REMARK                            x       y       z     vdW  Elec       q    Type
REMARK                         _______ _______ _______ _____ _____    ______ ____
ROOT
ATOM      1  N   UNL     1      32.671 -10.650 -22.020  0.00  0.00    +0.387 N 
ATOM      2  N   UNL     1      32.899  -7.978 -23.099  0.00  0.00    +0.390 N 
ATOM      3  C   UNL     1      32.952 -10.425 -23.444  0.00  0.00    -0.100 C 
ATOM      4  C   UNL     1      31.891  -9.537 -21.469  0.00  0.00    -0.100 C 
ATOM      5  C   UNL     1      33.681  -9.091 -23.651  0.00  0.00    -0.100 C 
ATOM      6  C   UNL     1      32.619  -8.204 -21.677  0.00  0.00    -0.100 C 
ATOM      7  H   UNL     1      33.559 -10.699 -21.522  0.00  0.00    -0.079 HD
ATOM      8  H   UNL     1      32.011  -7.930 -23.598  0.00  0.00    -0.079 HD
ENDROOT
BRANCH   1   9
ATOM      9  C   UNL     1      31.974 -11.920 -21.825  0.00  0.00    -0.050 C 
BRANCH   9  12
ATOM     10  O   UNL     1      33.965 -15.490 -24.594  0.00  0.00    -0.435 OA
ATOM     11  O   UNL     1      35.310 -16.312 -22.771  0.00  0.00    -0.435 OA
ATOM     12  C   UNL     1      32.883 -13.100 -22.044  0.00  0.00    -0.040 C 
ATOM     13  C   UNL     1      32.932 -13.697 -23.299  0.00  0.00    +0.034 C 
ATOM     14  C   UNL     1      33.660 -13.569 -20.979  0.00  0.00    -0.003 C 
ATOM     15  C   UNL     1      33.779 -14.774 -23.452  0.00  0.00    +0.176 C 
ATOM     16  C   UNL     1      34.511 -14.662 -21.160  0.00  0.00    +0.040 C 
ATOM     17  C   UNL     1      34.548 -15.244 -22.410  0.00  0.00    +0.176 C 
ATOM     18  C   UNL     1      34.937 -16.462 -24.157  0.00  0.00    +0.429 C 
ENDBRANCH   9  12
ENDBRANCH   1   9
BRANCH   2  19
ATOM     19  C   UNL     1      33.595  -6.708 -23.297  0.00  0.00    +0.011 C 
BRANCH  19  23
ATOM     20  S   UNL     1      32.438  -1.874 -23.972  0.00  0.00    -0.084 S 
ATOM     21  O   UNL     1      33.432  -6.780 -25.637  0.00  0.00    -0.276 OA
ATOM     22  N   UNL     1      32.413  -4.925 -24.594  0.00  0.00    -0.238 N 
ATOM     23  C   UNL     1      33.101  -6.160 -24.622  0.00  0.00    +0.212 C 
ATOM     24  C   UNL     1      31.628  -4.482 -23.467  0.00  0.00    +0.064 C 
ATOM     25  C   UNL     1      32.440  -4.035 -25.736  0.00  0.00    +0.064 C 
ATOM     26  C   UNL     1      31.547  -3.131 -23.095  0.00  0.00    +0.043 C 
ATOM     27  C   UNL     1      32.435  -2.636 -25.580  0.00  0.00    +0.043 C 
ATOM     28  C   UNL     1      30.854  -5.408 -22.744  0.00  0.00    +0.016 C 
ATOM     29  C   UNL     1      32.469  -4.540 -27.049  0.00  0.00    +0.016 C 
ATOM     30  C   UNL     1      30.771  -2.740 -21.992  0.00  0.00    +0.008 C 
ATOM     31  C   UNL     1      32.485  -1.787 -26.698  0.00  0.00    +0.008 C 
ATOM     32  C   UNL     1      30.075  -5.015 -21.653  0.00  0.00    +0.001 C 
ATOM     33  C   UNL     1      32.510  -3.691 -28.159  0.00  0.00    +0.001 C 
ATOM     34  C   UNL     1      30.042  -3.681 -21.271  0.00  0.00    +0.001 C 
ATOM     35  C   UNL     1      32.524  -2.314 -27.984  0.00  0.00    +0.001 C 
ENDBRANCH  19  23
ENDBRANCH   2  19
TORSDOF 4
ENDMDL
MODEL 6
REMARK VINA RESULT:      -9.1      3.722      5.666
REMARK  Name = 72098
REMARK  4 active torsions:
REMARK  status: ('A' for Active; 'I' for Inactive)
REMARK    1  A    between atoms: N_1  and  C_9
REMARK    2  A    between atoms: N_2  and  C_19
REMARK    3  A    between atoms: C_9  and  C_12
REMARK    4  A    between atoms: C_19  and  C_23
REMARK                            x       y       z     vdW  Elec       q    Type
REMARK                         _______ _______ _______ _____ _____    ______ ____
ROOT
ATOM      1  N   UNL     1      34.271 -16.251 -23.805  0.00  0.00    +0.387 N 
ATOM      2  N   UNL     1      33.576 -13.463 -24.119  0.00  0.00    +0.390 N 
ATOM      3  C   UNL     1      34.978 -15.201 -23.060  0.00  0.00    -0.100 C 
ATOM      4  C   UNL     1      33.776 -15.729 -25.083  0.00  0.00    -0.100 C 
ATOM      5  C   UNL     1      34.070 -13.985 -22.839  0.00  0.00    -0.100 C 
ATOM      6  C   UNL     1      32.869 -14.513 -24.861  0.00  0.00    -0.100 C 
ATOM      7  H   UNL     1      33.471 -16.555 -23.250  0.00  0.00    -0.079 HD
ATOM      8  H   UNL     1      34.376 -13.160 -24.673  0.00  0.00    -0.079 HD
ENDROOT
BRANCH   1   9
ATOM      9  C   UNL     1      35.138 -17.408 -24.018  0.00  0.00    -0.050 C 
BRANCH   9  12
ATOM     10  O   UNL     1      33.521 -20.590 -20.607  0.00  0.00    -0.435 OA
ATOM     11  O   UNL     1      35.594 -20.509 -19.381  0.00  0.00    -0.435 OA
ATOM     12  C   UNL     1      35.296 -18.230 -22.766  0.00  0.00    -0.040 C 
ATOM     13  C   UNL     1      34.239 -19.025 -22.336  0.00  0.00    +0.034 C 
ATOM     14  C   UNL     1      36.504 -18.175 -22.062  0.00  0.00    -0.003 C 
ATOM     15  C   UNL     1      34.430 -19.759 -21.185  0.00  0.00    +0.176 C 
ATOM     16  C   UNL     1      36.672 -18.929 -20.898  0.00  0.00    +0.040 C 
ATOM     17  C   UNL     1      35.614 -19.713 -20.485  0.00  0.00    +0.176 C 
ATOM     18  C   UNL     1      34.265 -21.063 -19.465  0.00  0.00    +0.429 C 
ENDBRANCH   9  12
ENDBRANCH   1   9
BRANCH   2  19
ATOM     19  C   UNL     1      32.710 -12.304 -23.906  0.00  0.00    +0.011 C 
BRANCH  19  23
ATOM     20  S   UNL     1      31.835  -7.789 -21.902  0.00  0.00    -0.084 S 
ATOM     21  O   UNL     1      32.430 -13.027 -21.691  0.00  0.00    -0.276 OA
ATOM     22  N   UNL     1      32.869 -10.726 -21.972  0.00  0.00    -0.238 N 
ATOM     23  C   UNL     1      32.698 -12.059 -22.409  0.00  0.00    +0.212 C 
ATOM     24  C   UNL     1      33.637  -9.746 -22.702  0.00  0.00    +0.064 C 
ATOM     25  C   UNL     1      32.292 -10.275 -20.723  0.00  0.00    +0.064 C 
ATOM     26  C   UNL     1      33.282  -8.388 -22.735  0.00  0.00    +0.043 C 
ATOM     27  C   UNL     1      31.807  -8.963 -20.566  0.00  0.00    +0.043 C 
ATOM     28  C   UNL     1      34.824 -10.128 -23.353  0.00  0.00    +0.016 C 
ATOM     29  C   UNL     1      32.198 -11.137 -19.614  0.00  0.00    +0.016 C 
ATOM     30  C   UNL     1      34.056  -7.466 -23.456  0.00  0.00    +0.008 C 
ATOM     31  C   UNL     1      31.230  -8.549 -19.354  0.00  0.00    +0.008 C 
ATOM     32  C   UNL     1      35.598  -9.206 -24.062  0.00  0.00    +0.001 C 
ATOM     33  C   UNL     1      31.629 -10.718 -18.407  0.00  0.00    +0.001 C 
ATOM     34  C   UNL     1      35.207  -7.875 -24.122  0.00  0.00    +0.001 C 
ATOM     35  C   UNL     1      31.140  -9.426 -18.279  0.00  0.00    +0.001 C 
ENDBRANCH  19  23
ENDBRANCH   2  19
TORSDOF 4
ENDMDL
MODEL 7
REMARK VINA RESULT:      -8.7      9.455     16.693
REMARK  Name = 72098
REMARK  4 active torsions:
REMARK  status: ('A' for Active; 'I' for Inactive)
REMARK    1  A    between atoms: N_1  and  C_9
REMARK    2  A    between atoms: N_2  and  C_19
REMARK    3  A    between atoms: C_9  and  C_12
REMARK    4  A    between atoms: C_19  and  C_23
REMARK                            x       y       z     vdW  Elec       q    Type
REMARK                         _______ _______ _______ _____ _____    ______ ____
ROOT
ATOM      1  N   UNL     1      35.334 -19.345 -20.600  0.00  0.00    +0.387 N 
ATOM      2  N   UNL     1      34.807 -21.737 -19.066  0.00  0.00    +0.390 N 
ATOM      3  C   UNL     1      34.134 -20.157 -20.842  0.00  0.00    -0.100 C 
ATOM      4  C   UNL     1      36.427 -20.183 -20.096  0.00  0.00    -0.100 C 
ATOM      5  C   UNL     1      33.712 -20.899 -19.568  0.00  0.00    -0.100 C 
ATOM      6  C   UNL     1      36.005 -20.924 -18.823  0.00  0.00    -0.100 C 
ATOM      7  H   UNL     1      35.111 -18.646 -19.891  0.00  0.00    -0.079 HD
ATOM      8  H   UNL     1      35.030 -22.435 -19.775  0.00  0.00    -0.079 HD
ENDROOT
BRANCH   1   9
ATOM      9  C   UNL     1      35.737 -18.641 -21.816  0.00  0.00    -0.050 C 
BRANCH   9  12
ATOM     10  O   UNL     1      34.226 -14.516 -24.068  0.00  0.00    -0.435 OA
ATOM     11  O   UNL     1      33.953 -13.339 -21.983  0.00  0.00    -0.435 OA
ATOM     12  C   UNL     1      35.258 -17.213 -21.823  0.00  0.00    -0.040 C 
ATOM     13  C   UNL     1      34.980 -16.595 -23.038  0.00  0.00    +0.034 C 
ATOM     14  C   UNL     1      35.103 -16.540 -20.607  0.00  0.00    -0.003 C 
ATOM     15  C   UNL     1      34.545 -15.288 -22.995  0.00  0.00    +0.176 C 
ATOM     16  C   UNL     1      34.661 -15.215 -20.590  0.00  0.00    +0.040 C 
ATOM     17  C   UNL     1      34.390 -14.616 -21.803  0.00  0.00    +0.176 C 
ATOM     18  C   UNL     1      33.850 -13.283 -23.421  0.00  0.00    +0.429 C 
ENDBRANCH   9  12
ENDBRANCH   1   9
BRANCH   2  19
ATOM     19  C   UNL     1      34.403 -22.443 -17.851  0.00  0.00    +0.011 C 
BRANCH  19  23
ATOM     20  S   UNL     1      35.119 -25.998 -14.384  0.00  0.00    -0.084 S 
ATOM     21  O   UNL     1      36.656 -21.955 -17.405  0.00  0.00    -0.276 OA
ATOM     22  N   UNL     1      35.542 -23.242 -15.771  0.00  0.00    -0.238 N 
ATOM     23  C   UNL     1      35.634 -22.489 -16.964  0.00  0.00    +0.212 C 
ATOM     24  C   UNL     1      34.309 -23.424 -15.043  0.00  0.00    +0.064 C 
ATOM     25  C   UNL     1      36.717 -23.858 -15.191  0.00  0.00    +0.064 C 
ATOM     26  C   UNL     1      34.009 -24.615 -14.363  0.00  0.00    +0.043 C 
ATOM     27  C   UNL     1      36.646 -25.095 -14.522  0.00  0.00    +0.043 C 
ATOM     28  C   UNL     1      33.393 -22.361 -14.938  0.00  0.00    +0.016 C 
ATOM     29  C   UNL     1      37.978 -23.237 -15.272  0.00  0.00    +0.016 C 
ATOM     30  C   UNL     1      32.799 -24.752 -13.666  0.00  0.00    +0.008 C 
ATOM     31  C   UNL     1      37.799 -25.689 -13.984  0.00  0.00    +0.008 C 
ATOM     32  C   UNL     1      32.193 -22.498 -14.236  0.00  0.00    +0.001 C 
ATOM     33  C   UNL     1      39.121 -23.829 -14.729  0.00  0.00    +0.001 C 
ATOM     34  C   UNL     1      31.892 -23.699 -13.606  0.00  0.00    +0.001 C 
ATOM     35  C   UNL     1      39.034 -25.058 -14.090  0.00  0.00    +0.001 C 
ENDBRANCH  19  23
ENDBRANCH   2  19
TORSDOF 4
ENDMDL
MODEL 8
REMARK VINA RESULT:      -8.5      9.915     16.478
REMARK  Name = 72098
REMARK  4 active torsions:
REMARK  status: ('A' for Active; 'I' for Inactive)
REMARK    1  A    between atoms: N_1  and  C_9
REMARK    2  A    between atoms: N_2  and  C_19
REMARK    3  A    between atoms: C_9  and  C_12
REMARK    4  A    between atoms: C_19  and  C_23
REMARK                            x       y       z     vdW  Elec       q    Type
REMARK                         _______ _______ _______ _____ _____    ______ ____
ROOT
ATOM      1  N   UNL     1      35.764 -20.105 -20.041  0.00  0.00    +0.387 N 
ATOM      2  N   UNL     1      34.352 -22.397 -18.987  0.00  0.00    +0.390 N 
ATOM      3  C   UNL     1      34.469 -20.523 -20.594  0.00  0.00    -0.100 C 
ATOM      4  C   UNL     1      36.486 -21.260 -19.496  0.00  0.00    -0.100 C 
ATOM      5  C   UNL     1      33.629 -21.241 -19.531  0.00  0.00    -0.100 C 
ATOM      6  C   UNL     1      35.645 -21.978 -18.434  0.00  0.00    -0.100 C 
ATOM      7  H   UNL     1      35.591 -19.446 -19.282  0.00  0.00    -0.079 HD
ATOM      8  H   UNL     1      34.525 -23.054 -19.747  0.00  0.00    -0.079 HD
ENDROOT
BRANCH   1   9
ATOM      9  C   UNL     1      36.565 -19.423 -21.056  0.00  0.00    -0.050 C 
BRANCH   9  12
ATOM     10  O   UNL     1      34.580 -16.818 -24.749  0.00  0.00    -0.435 OA
ATOM     11  O   UNL     1      33.926 -15.019 -23.283  0.00  0.00    -0.435 OA
ATOM     12  C   UNL     1      35.853 -18.223 -21.620  0.00  0.00    -0.040 C 
ATOM     13  C   UNL     1      35.583 -18.172 -22.984  0.00  0.00    +0.034 C 
ATOM     14  C   UNL     1      35.478 -17.185 -20.761  0.00  0.00    -0.003 C 
ATOM     15  C   UNL     1      34.929 -17.053 -23.455  0.00  0.00    +0.176 C 
ATOM     16  C   UNL     1      34.816 -16.062 -21.263  0.00  0.00    +0.040 C 
ATOM     17  C   UNL     1      34.556 -16.026 -22.618  0.00  0.00    +0.176 C 
ATOM     18  C   UNL     1      33.944 -15.528 -24.633  0.00  0.00    +0.429 C 
ENDBRANCH   9  12
ENDBRANCH   1   9
BRANCH   2  19
ATOM     19  C   UNL     1      33.550 -23.080 -17.974  0.00  0.00    +0.011 C 
BRANCH  19  23
ATOM     20  S   UNL     1      32.344 -25.478 -13.736  0.00  0.00    -0.084 S 
ATOM     21  O   UNL     1      35.344 -22.291 -16.682  0.00  0.00    -0.276 OA
ATOM     22  N   UNL     1      33.521 -23.177 -15.474  0.00  0.00    -0.238 N 
ATOM     23  C   UNL     1      34.207 -22.773 -16.642  0.00  0.00    +0.212 C 
ATOM     24  C   UNL     1      32.082 -23.263 -15.392  0.00  0.00    +0.064 C 
ATOM     25  C   UNL     1      34.245 -23.506 -14.264  0.00  0.00    +0.064 C 
ATOM     26  C   UNL     1      31.433 -24.246 -14.629  0.00  0.00    +0.043 C 
ATOM     27  C   UNL     1      33.799 -24.515 -13.389  0.00  0.00    +0.043 C 
ATOM     28  C   UNL     1      31.284 -22.298 -16.034  0.00  0.00    +0.016 C 
ATOM     29  C   UNL     1      35.424 -22.821 -13.915  0.00  0.00    +0.016 C 
ATOM     30  C   UNL     1      30.031 -24.295 -14.574  0.00  0.00    +0.008 C 
ATOM     31  C   UNL     1      34.525 -24.835 -12.231  0.00  0.00    +0.008 C 
ATOM     32  C   UNL     1      29.890 -22.344 -15.970  0.00  0.00    +0.001 C 
ATOM     33  C   UNL     1      36.139 -23.139 -12.757  0.00  0.00    +0.001 C 
ATOM     34  C   UNL     1      29.262 -23.350 -15.247  0.00  0.00    +0.001 C 
ATOM     35  C   UNL     1      35.694 -24.149 -11.918  0.00  0.00    +0.001 C 
ENDBRANCH  19  23
ENDBRANCH   2  19
TORSDOF 4
ENDMDL
MODEL 9
REMARK VINA RESULT:      -8.3     10.060     16.427
REMARK  Name = 72098
REMARK  4 active torsions:
REMARK  status: ('A' for Active; 'I' for Inactive)
REMARK    1  A    between atoms: N_1  and  C_9
REMARK    2  A    between atoms: N_2  and  C_19
REMARK    3  A    between atoms: C_9  and  C_12
REMARK    4  A    between atoms: C_19  and  C_23
REMARK                            x       y       z     vdW  Elec       q    Type
REMARK                         _______ _______ _______ _____ _____    ______ ____
ROOT
ATOM      1  N   UNL     1      35.824 -19.964 -19.943  0.00  0.00    +0.387 N 
ATOM      2  N   UNL     1      34.424 -22.330 -19.050  0.00  0.00    +0.390 N 
ATOM      3  C   UNL     1      34.528 -20.345 -20.519  0.00  0.00    -0.100 C 
ATOM      4  C   UNL     1      36.552 -21.153 -19.486  0.00  0.00    -0.100 C 
ATOM      5  C   UNL     1      33.695 -21.141 -19.507  0.00  0.00    -0.100 C 
ATOM      6  C   UNL     1      35.718 -21.947 -18.475  0.00  0.00    -0.100 C 
ATOM      7  H   UNL     1      35.653 -19.362 -19.139  0.00  0.00    -0.079 HD
ATOM      8  H   UNL     1      34.596 -22.931 -19.855  0.00  0.00    -0.079 HD
ENDROOT
BRANCH   1   9
ATOM      9  C   UNL     1      36.618 -19.209 -20.911  0.00  0.00    -0.050 C 
BRANCH   9  12
ATOM     10  O   UNL     1      34.562 -15.603 -23.584  0.00  0.00    -0.435 OA
ATOM     11  O   UNL     1      33.515 -17.162 -25.095  0.00  0.00    -0.435 OA
ATOM     12  C   UNL     1      35.776 -18.693 -22.048  0.00  0.00    -0.040 C 
ATOM     13  C   UNL     1      35.617 -17.321 -22.208  0.00  0.00    +0.034 C 
ATOM     14  C   UNL     1      35.173 -19.607 -22.919  0.00  0.00    -0.003 C 
ATOM     15  C   UNL     1      34.838 -16.896 -23.264  0.00  0.00    +0.176 C 
ATOM     16  C   UNL     1      34.388 -19.151 -23.981  0.00  0.00    +0.040 C 
ATOM     17  C   UNL     1      34.240 -17.787 -24.126  0.00  0.00    +0.176 C 
ATOM     18  C   UNL     1      33.725 -15.778 -24.746  0.00  0.00    +0.429 C 
ENDBRANCH   9  12
ENDBRANCH   1   9
BRANCH   2  19
ATOM     19  C   UNL     1      33.629 -23.087 -18.084  0.00  0.00    +0.011 C 
BRANCH  19  23
ATOM     20  S   UNL     1      32.213 -25.486 -13.913  0.00  0.00    -0.084 S 
ATOM     21  O   UNL     1      35.370 -22.318 -16.711  0.00  0.00    -0.276 OA
ATOM     22  N   UNL     1      33.487 -23.192 -15.589  0.00  0.00    -0.238 N 
ATOM     23  C   UNL     1      34.229 -22.790 -16.723  0.00  0.00    +0.212 C 
ATOM     24  C   UNL     1      32.046 -23.264 -15.571  0.00  0.00    +0.064 C 
ATOM     25  C   UNL     1      34.153 -23.530 -14.349  0.00  0.00    +0.064 C 
ATOM     26  C   UNL     1      31.354 -24.244 -14.842  0.00  0.00    +0.043 C 
ATOM     27  C   UNL     1      33.660 -24.538 -13.498  0.00  0.00    +0.043 C 
ATOM     28  C   UNL     1      31.286 -22.290 -16.245  0.00  0.00    +0.016 C 
ATOM     29  C   UNL     1      35.322 -22.858 -13.945  0.00  0.00    +0.016 C 
ATOM     30  C   UNL     1      29.950 -24.280 -14.850  0.00  0.00    +0.008 C 
ATOM     31  C   UNL     1      34.331 -24.869 -12.310  0.00  0.00    +0.008 C 
ATOM     32  C   UNL     1      29.890 -22.323 -16.243  0.00  0.00    +0.001 C 
ATOM     33  C   UNL     1      35.982 -23.185 -12.758  0.00  0.00    +0.001 C 
ATOM     34  C   UNL     1      29.222 -23.326 -15.552  0.00  0.00    +0.001 C 
ATOM     35  C   UNL     1      35.491 -24.195 -11.942  0.00  0.00    +0.001 C 
ENDBRANCH  19  23
ENDBRANCH   2  19
TORSDOF 4
ENDMDL
