MODEL 1
REMARK VINA RESULT:     -11.0      0.000      0.000
REMARK  Name = 71166
REMARK  4 active torsions:
REMARK  status: ('A' for Active; 'I' for Inactive)
REMARK    1  A    between atoms: N_2  and  C_10
REMARK    2  A    between atoms: N_3  and  C_24
REMARK    3  A    between atoms: C_12  and  N_18
REMARK    4  A    between atoms: C_26  and  N_32
REMARK                            x       y       z     vdW  Elec       q    Type
REMARK                         _______ _______ _______ _____ _____    ______ ____
ROOT
ATOM      1  O   UNL     1      34.041 -19.789 -19.806  0.00  0.00    -0.252 OA
ATOM      2  N   UNL     1      36.006 -21.034 -19.529  0.00  0.00    -0.268 N 
ATOM      3  N   UNL     1      35.724 -19.751 -21.429  0.00  0.00    -0.268 N 
ATOM      4  C   UNL     1      35.139 -20.150 -20.217  0.00  0.00    +0.308 C 
ATOM      5  H   UNL     1      36.858 -21.234 -19.980  0.00  0.00    +0.156 HD
ATOM      6  H   UNL     1      36.614 -20.126 -21.623  0.00  0.00    +0.156 HD
ENDROOT
BRANCH   2  10
ATOM      7  N   UNL     1      35.275 -23.517 -14.604  0.00  0.00    -0.410 NA
ATOM      8  C   UNL     1      34.350 -22.736 -16.688  0.00  0.00    +0.111 C 
ATOM      9  C   UNL     1      35.430 -22.919 -15.801  0.00  0.00    +0.118 C 
ATOM     10  C   UNL     1      35.813 -21.659 -18.296  0.00  0.00    +0.048 C 
ATOM     11  C   UNL     1      34.548 -22.108 -17.930  0.00  0.00    +0.001 C 
ATOM     12  C   UNL     1      33.086 -23.197 -16.293  0.00  0.00    +0.031 C 
ATOM     13  C   UNL     1      36.685 -22.460 -16.194  0.00  0.00    +0.029 C 
ATOM     14  C   UNL     1      36.883 -21.836 -17.428  0.00  0.00    +0.017 C 
ATOM     15  C   UNL     1      34.039 -23.947 -14.261  0.00  0.00    +0.110 C 
ATOM     16  C   UNL     1      32.922 -23.813 -15.061  0.00  0.00    +0.038 C 
ATOM     17  C   UNL     1      33.910 -24.603 -12.926  0.00  0.00    +0.066 C 
BRANCH  12  18
ATOM     18  N   UNL     1      31.948 -23.054 -17.122  0.00  0.00    -0.360 N 
ATOM     19  H   UNL     1      31.160 -22.563 -16.795  0.00  0.00    +0.142 HD
ATOM     20  H   UNL     1      31.944 -23.446 -18.025  0.00  0.00    +0.142 HD
ENDBRANCH  12  18
ENDBRANCH   2  10
BRANCH   3  24
ATOM     21  N   UNL     1      33.620 -16.356 -25.301  0.00  0.00    -0.410 NA
ATOM     22  C   UNL     1      34.601 -16.655 -23.121  0.00  0.00    +0.111 C 
ATOM     23  C   UNL     1      34.133 -17.160 -24.352  0.00  0.00    +0.118 C 
ATOM     24  C   UNL     1      35.193 -18.879 -22.408  0.00  0.00    +0.048 C 
ATOM     25  C   UNL     1      35.131 -17.523 -22.152  0.00  0.00    +0.001 C 
ATOM     26  C   UNL     1      34.520 -15.273 -22.902  0.00  0.00    +0.031 C 
ATOM     27  C   UNL     1      34.214 -18.533 -24.569  0.00  0.00    +0.029 C 
ATOM     28  C   UNL     1      34.741 -19.398 -23.605  0.00  0.00    +0.017 C 
ATOM     29  C   UNL     1      33.558 -15.028 -25.050  0.00  0.00    +0.110 C 
ATOM     30  C   UNL     1      33.990 -14.441 -23.878  0.00  0.00    +0.038 C 
ATOM     31  C   UNL     1      32.983 -14.173 -26.129  0.00  0.00    +0.066 C 
BRANCH  26  32
ATOM     32  N   UNL     1      34.965 -14.682 -21.696  0.00  0.00    -0.360 N 
ATOM     33  H   UNL     1      34.972 -13.702 -21.600  0.00  0.00    +0.142 HD
ATOM     34  H   UNL     1      35.270 -15.251 -20.952  0.00  0.00    +0.142 HD
ENDBRANCH  26  32
ENDBRANCH   3  24
TORSDOF 4
ENDMDL
MODEL 2
REMARK VINA RESULT:     -11.0      0.024     10.074
REMARK  Name = 71166
REMARK  4 active torsions:
REMARK  status: ('A' for Active; 'I' for Inactive)
REMARK    1  A    between atoms: N_2  and  C_10
REMARK    2  A    between atoms: N_3  and  C_24
REMARK    3  A    between atoms: C_12  and  N_18
REMARK    4  A    between atoms: C_26  and  N_32
REMARK                            x       y       z     vdW  Elec       q    Type
REMARK                         _______ _______ _______ _____ _____    ______ ____
ROOT
ATOM      1  O   UNL     1      34.029 -19.799 -19.814  0.00  0.00    -0.252 OA
ATOM      2  N   UNL     1      35.710 -19.753 -21.445  0.00  0.00    -0.268 N 
ATOM      3  N   UNL     1      35.995 -21.037 -19.546  0.00  0.00    -0.268 N 
ATOM      4  C   UNL     1      35.129 -20.161 -20.220  0.00  0.00    +0.308 C 
ATOM      5  H   UNL     1      36.599 -20.126 -21.641  0.00  0.00    +0.156 HD
ATOM      6  H   UNL     1      36.847 -21.235 -19.999  0.00  0.00    +0.156 HD
ENDROOT
BRANCH   2  10
ATOM      7  N   UNL     1      33.619 -16.357 -25.325  0.00  0.00    -0.410 NA
ATOM      8  C   UNL     1      34.599 -16.656 -23.144  0.00  0.00    +0.111 C 
ATOM      9  C   UNL     1      34.129 -17.162 -24.373  0.00  0.00    +0.118 C 
ATOM     10  C   UNL     1      35.188 -18.894 -22.413  0.00  0.00    +0.048 C 
ATOM     11  C   UNL     1      35.126 -17.525 -22.172  0.00  0.00    +0.001 C 
ATOM     12  C   UNL     1      34.523 -15.273 -22.927  0.00  0.00    +0.031 C 
ATOM     13  C   UNL     1      34.204 -18.536 -24.587  0.00  0.00    +0.029 C 
ATOM     14  C   UNL     1      34.727 -19.400 -23.622  0.00  0.00    +0.017 C 
ATOM     15  C   UNL     1      33.563 -15.029 -25.077  0.00  0.00    +0.110 C 
ATOM     16  C   UNL     1      33.998 -14.441 -23.906  0.00  0.00    +0.038 C 
ATOM     17  C   UNL     1      32.990 -14.174 -26.157  0.00  0.00    +0.066 C 
BRANCH  12  18
ATOM     18  N   UNL     1      34.972 -14.682 -21.722  0.00  0.00    -0.360 N 
ATOM     19  H   UNL     1      34.989 -13.702 -21.632  0.00  0.00    +0.142 HD
ATOM     20  H   UNL     1      35.267 -15.250 -20.975  0.00  0.00    +0.142 HD
ENDBRANCH  12  18
ENDBRANCH   2  10
BRANCH   3  24
ATOM     21  N   UNL     1      35.255 -23.507 -14.617  0.00  0.00    -0.410 NA
ATOM     22  C   UNL     1      34.336 -22.739 -16.707  0.00  0.00    +0.111 C 
ATOM     23  C   UNL     1      35.414 -22.913 -15.814  0.00  0.00    +0.118 C 
ATOM     24  C   UNL     1      35.797 -21.668 -18.296  0.00  0.00    +0.048 C 
ATOM     25  C   UNL     1      34.536 -22.114 -17.950  0.00  0.00    +0.001 C 
ATOM     26  C   UNL     1      33.073 -23.206 -16.317  0.00  0.00    +0.031 C 
ATOM     27  C   UNL     1      36.667 -22.449 -16.203  0.00  0.00    +0.029 C 
ATOM     28  C   UNL     1      36.867 -21.826 -17.438  0.00  0.00    +0.017 C 
ATOM     29  C   UNL     1      34.021 -23.944 -14.277  0.00  0.00    +0.110 C 
ATOM     30  C   UNL     1      32.907 -23.818 -15.083  0.00  0.00    +0.038 C 
ATOM     31  C   UNL     1      33.890 -24.596 -12.942  0.00  0.00    +0.066 C 
BRANCH  26  32
ATOM     32  N   UNL     1      31.938 -23.073 -17.151  0.00  0.00    -0.360 N 
ATOM     33  H   UNL     1      31.035 -23.172 -16.773  0.00  0.00    +0.142 HD
ATOM     34  H   UNL     1      32.052 -22.881 -18.110  0.00  0.00    +0.142 HD
ENDBRANCH  26  32
ENDBRANCH   3  24
TORSDOF 4
ENDMDL
MODEL 3
REMARK VINA RESULT:     -10.9      5.832      9.446
REMARK  Name = 71166
REMARK  4 active torsions:
REMARK  status: ('A' for Active; 'I' for Inactive)
REMARK    1  A    between atoms: N_2  and  C_10
REMARK    2  A    between atoms: N_3  and  C_24
REMARK    3  A    between atoms: C_12  and  N_18
REMARK    4  A    between atoms: C_26  and  N_32
REMARK                            x       y       z     vdW  Elec       q    Type
REMARK                         _______ _______ _______ _____ _____    ______ ____
ROOT
ATOM      1  O   UNL     1      32.836 -11.799 -21.407  0.00  0.00    -0.252 OA
ATOM      2  N   UNL     1      34.261 -12.841 -22.948  0.00  0.00    -0.268 N 
ATOM      3  N   UNL     1      33.528 -10.686 -23.344  0.00  0.00    -0.268 N 
ATOM      4  C   UNL     1      33.472 -11.772 -22.456  0.00  0.00    +0.308 C 
ATOM      5  H   UNL     1      34.716 -12.677 -23.805  0.00  0.00    +0.156 HD
ATOM      6  H   UNL     1      34.082 -10.814 -24.148  0.00  0.00    +0.156 HD
ENDROOT
BRANCH   2  10
ATOM      7  N   UNL     1      35.127 -17.829 -20.641  0.00  0.00    -0.410 NA
ATOM      8  C   UNL     1      34.753 -16.496 -22.614  0.00  0.00    +0.111 C 
ATOM      9  C   UNL     1      34.917 -16.631 -21.220  0.00  0.00    +0.118 C 
ATOM     10  C   UNL     1      34.479 -14.096 -22.378  0.00  0.00    +0.048 C 
ATOM     11  C   UNL     1      34.535 -15.230 -23.184  0.00  0.00    +0.001 C 
ATOM     12  C   UNL     1      34.814 -17.654 -23.401  0.00  0.00    +0.031 C 
ATOM     13  C   UNL     1      34.856 -15.480 -20.438  0.00  0.00    +0.029 C 
ATOM     14  C   UNL     1      34.640 -14.221 -21.004  0.00  0.00    +0.017 C 
ATOM     15  C   UNL     1      35.179 -18.922 -21.436  0.00  0.00    +0.110 C 
ATOM     16  C   UNL     1      35.030 -18.890 -22.808  0.00  0.00    +0.038 C 
ATOM     17  C   UNL     1      35.412 -20.230 -20.756  0.00  0.00    +0.066 C 
BRANCH  12  18
ATOM     18  N   UNL     1      34.660 -17.609 -24.807  0.00  0.00    -0.360 N 
ATOM     19  H   UNL     1      35.394 -17.278 -25.372  0.00  0.00    +0.142 HD
ATOM     20  H   UNL     1      33.818 -17.908 -25.219  0.00  0.00    +0.142 HD
ENDBRANCH  12  18
ENDBRANCH   2  10
BRANCH   3  24
ATOM     21  N   UNL     1      30.978  -5.760 -22.922  0.00  0.00    -0.410 NA
ATOM     22  C   UNL     1      32.434  -7.427 -21.969  0.00  0.00    +0.111 C 
ATOM     23  C   UNL     1      31.604  -6.949 -23.006  0.00  0.00    +0.118 C 
ATOM     24  C   UNL     1      32.886  -9.432 -23.228  0.00  0.00    +0.048 C 
ATOM     25  C   UNL     1      33.073  -8.673 -22.089  0.00  0.00    +0.001 C 
ATOM     26  C   UNL     1      32.596  -6.626 -20.831  0.00  0.00    +0.031 C 
ATOM     27  C   UNL     1      31.444  -7.746 -24.136  0.00  0.00    +0.029 C 
ATOM     28  C   UNL     1      32.078  -8.985 -24.255  0.00  0.00    +0.017 C 
ATOM     29  C   UNL     1      31.160  -5.018 -21.807  0.00  0.00    +0.110 C 
ATOM     30  C   UNL     1      31.951  -5.401 -20.742  0.00  0.00    +0.038 C 
ATOM     31  C   UNL     1      30.448  -3.708 -21.756  0.00  0.00    +0.066 C 
BRANCH  26  32
ATOM     32  N   UNL     1      33.409  -7.029 -19.746  0.00  0.00    -0.360 N 
ATOM     33  H   UNL     1      33.869  -7.899 -19.771  0.00  0.00    +0.142 HD
ATOM     34  H   UNL     1      33.515  -6.440 -18.963  0.00  0.00    +0.142 HD
ENDBRANCH  26  32
ENDBRANCH   3  24
TORSDOF 4
ENDMDL
MODEL 4
REMARK VINA RESULT:     -10.9      5.830     12.532
REMARK  Name = 71166
REMARK  4 active torsions:
REMARK  status: ('A' for Active; 'I' for Inactive)
REMARK    1  A    between atoms: N_2  and  C_10
REMARK    2  A    between atoms: N_3  and  C_24
REMARK    3  A    between atoms: C_12  and  N_18
REMARK    4  A    between atoms: C_26  and  N_32
REMARK                            x       y       z     vdW  Elec       q    Type
REMARK                         _______ _______ _______ _____ _____    ______ ____
ROOT
ATOM      1  O   UNL     1      32.840 -11.815 -21.407  0.00  0.00    -0.252 OA
ATOM      2  N   UNL     1      33.517 -10.689 -23.347  0.00  0.00    -0.268 N 
ATOM      3  N   UNL     1      34.254 -12.844 -22.959  0.00  0.00    -0.268 N 
ATOM      4  C   UNL     1      33.472 -11.791 -22.458  0.00  0.00    +0.308 C 
ATOM      5  H   UNL     1      34.065 -10.814 -24.155  0.00  0.00    +0.156 HD
ATOM      6  H   UNL     1      34.704 -12.676 -23.819  0.00  0.00    +0.156 HD
ENDROOT
BRANCH   2  10
ATOM      7  N   UNL     1      30.977  -5.758 -22.917  0.00  0.00    -0.410 NA
ATOM      8  C   UNL     1      32.426  -7.431 -21.965  0.00  0.00    +0.111 C 
ATOM      9  C   UNL     1      31.601  -6.948 -23.002  0.00  0.00    +0.118 C 
ATOM     10  C   UNL     1      32.885  -9.450 -23.231  0.00  0.00    +0.048 C 
ATOM     11  C   UNL     1      33.063  -8.679 -22.086  0.00  0.00    +0.001 C 
ATOM     12  C   UNL     1      32.587  -6.634 -20.824  0.00  0.00    +0.031 C 
ATOM     13  C   UNL     1      31.441  -7.741 -24.135  0.00  0.00    +0.029 C 
ATOM     14  C   UNL     1      32.073  -8.981 -24.257  0.00  0.00    +0.017 C 
ATOM     15  C   UNL     1      31.158  -5.019 -21.799  0.00  0.00    +0.110 C 
ATOM     16  C   UNL     1      31.945  -5.407 -20.733  0.00  0.00    +0.038 C 
ATOM     17  C   UNL     1      30.448  -3.708 -21.745  0.00  0.00    +0.066 C 
BRANCH  12  18
ATOM     18  N   UNL     1      33.396  -7.043 -19.737  0.00  0.00    -0.360 N 
ATOM     19  H   UNL     1      33.785  -7.947 -19.725  0.00  0.00    +0.142 HD
ATOM     20  H   UNL     1      33.570  -6.423 -18.992  0.00  0.00    +0.142 HD
ENDBRANCH  12  18
ENDBRANCH   2  10
BRANCH   3  24
ATOM     21  N   UNL     1      35.128 -17.828 -20.648  0.00  0.00    -0.410 NA
ATOM     22  C   UNL     1      34.749 -16.498 -22.621  0.00  0.00    +0.111 C 
ATOM     23  C   UNL     1      34.917 -16.631 -21.226  0.00  0.00    +0.118 C 
ATOM     24  C   UNL     1      34.478 -14.115 -22.381  0.00  0.00    +0.048 C 
ATOM     25  C   UNL     1      34.530 -15.233 -23.192  0.00  0.00    +0.001 C 
ATOM     26  C   UNL     1      34.809 -17.657 -23.406  0.00  0.00    +0.031 C 
ATOM     27  C   UNL     1      34.857 -15.479 -20.447  0.00  0.00    +0.029 C 
ATOM     28  C   UNL     1      34.639 -14.220 -21.014  0.00  0.00    +0.017 C 
ATOM     29  C   UNL     1      35.178 -18.922 -21.441  0.00  0.00    +0.110 C 
ATOM     30  C   UNL     1      35.025 -18.892 -22.812  0.00  0.00    +0.038 C 
ATOM     31  C   UNL     1      35.414 -20.228 -20.758  0.00  0.00    +0.066 C 
BRANCH  26  32
ATOM     32  N   UNL     1      34.651 -17.614 -24.811  0.00  0.00    -0.360 N 
ATOM     33  H   UNL     1      33.749 -17.573 -25.205  0.00  0.00    +0.142 HD
ATOM     34  H   UNL     1      35.443 -17.625 -25.397  0.00  0.00    +0.142 HD
ENDBRANCH  26  32
ENDBRANCH   3  24
TORSDOF 4
ENDMDL
MODEL 5
REMARK VINA RESULT:     -10.8      0.932      1.891
REMARK  Name = 71166
REMARK  4 active torsions:
REMARK  status: ('A' for Active; 'I' for Inactive)
REMARK    1  A    between atoms: N_2  and  C_10
REMARK    2  A    between atoms: N_3  and  C_24
REMARK    3  A    between atoms: C_12  and  N_18
REMARK    4  A    between atoms: C_26  and  N_32
REMARK                            x       y       z     vdW  Elec       q    Type
REMARK                         _______ _______ _______ _____ _____    ______ ____
ROOT
ATOM      1  O   UNL     1      33.562 -19.940 -19.860  0.00  0.00    -0.252 OA
ATOM      2  N   UNL     1      35.386 -21.372 -19.526  0.00  0.00    -0.268 N 
ATOM      3  N   UNL     1      35.338 -19.996 -21.380  0.00  0.00    -0.268 N 
ATOM      4  C   UNL     1      34.647 -20.385 -20.222  0.00  0.00    +0.308 C 
ATOM      5  H   UNL     1      36.242 -21.633 -19.935  0.00  0.00    +0.156 HD
ATOM      6  H   UNL     1      36.201 -20.444 -21.539  0.00  0.00    +0.156 HD
ENDROOT
BRANCH   2  10
ATOM      7  N   UNL     1      34.063 -23.984 -14.795  0.00  0.00    -0.410 NA
ATOM      8  C   UNL     1      35.665 -22.739 -16.096  0.00  0.00    +0.111 C 
ATOM      9  C   UNL     1      34.403 -23.346 -15.931  0.00  0.00    +0.118 C 
ATOM     10  C   UNL     1      35.062 -22.024 -18.335  0.00  0.00    +0.048 C 
ATOM     11  C   UNL     1      35.986 -22.082 -17.296  0.00  0.00    +0.001 C 
ATOM     12  C   UNL     1      36.576 -22.814 -15.034  0.00  0.00    +0.031 C 
ATOM     13  C   UNL     1      33.497 -23.273 -16.987  0.00  0.00    +0.029 C 
ATOM     14  C   UNL     1      33.816 -22.620 -18.181  0.00  0.00    +0.017 C 
ATOM     15  C   UNL     1      34.971 -24.033 -13.794  0.00  0.00    +0.110 C 
ATOM     16  C   UNL     1      36.229 -23.470 -13.861  0.00  0.00    +0.038 C 
ATOM     17  C   UNL     1      34.555 -24.749 -12.552  0.00  0.00    +0.066 C 
BRANCH  12  18
ATOM     18  N   UNL     1      37.864 -22.233 -15.114  0.00  0.00    -0.360 N 
ATOM     19  H   UNL     1      38.093 -21.464 -14.544  0.00  0.00    +0.142 HD
ATOM     20  H   UNL     1      38.530 -22.597 -15.740  0.00  0.00    +0.142 HD
ENDBRANCH  12  18
ENDBRANCH   2  10
BRANCH   3  24
ATOM     21  N   UNL     1      33.792 -16.272 -25.213  0.00  0.00    -0.410 NA
ATOM     22  C   UNL     1      34.549 -16.749 -22.976  0.00  0.00    +0.111 C 
ATOM     23  C   UNL     1      34.170 -17.157 -24.272  0.00  0.00    +0.118 C 
ATOM     24  C   UNL     1      34.948 -19.041 -22.349  0.00  0.00    +0.048 C 
ATOM     25  C   UNL     1      34.939 -17.700 -22.018  0.00  0.00    +0.001 C 
ATOM     26  C   UNL     1      34.525 -15.379 -22.683  0.00  0.00    +0.031 C 
ATOM     27  C   UNL     1      34.195 -18.519 -24.563  0.00  0.00    +0.029 C 
ATOM     28  C   UNL     1      34.581 -19.465 -23.610  0.00  0.00    +0.017 C 
ATOM     29  C   UNL     1      33.782 -14.959 -24.890  0.00  0.00    +0.110 C 
ATOM     30  C   UNL     1      34.135 -14.465 -23.650  0.00  0.00    +0.038 C 
ATOM     31  C   UNL     1      33.356 -14.013 -25.962  0.00  0.00    +0.066 C 
BRANCH  26  32
ATOM     32  N   UNL     1      34.890 -14.883 -21.408  0.00  0.00    -0.360 N 
ATOM     33  H   UNL     1      34.629 -13.972 -21.141  0.00  0.00    +0.142 HD
ATOM     34  H   UNL     1      35.405 -15.450 -20.789  0.00  0.00    +0.142 HD
ENDBRANCH  26  32
ENDBRANCH   3  24
TORSDOF 4
ENDMDL
MODEL 6
REMARK VINA RESULT:     -10.8      0.934     10.145
REMARK  Name = 71166
REMARK  4 active torsions:
REMARK  status: ('A' for Active; 'I' for Inactive)
REMARK    1  A    between atoms: N_2  and  C_10
REMARK    2  A    between atoms: N_3  and  C_24
REMARK    3  A    between atoms: C_12  and  N_18
REMARK    4  A    between atoms: C_26  and  N_32
REMARK                            x       y       z     vdW  Elec       q    Type
REMARK                         _______ _______ _______ _____ _____    ______ ____
ROOT
ATOM      1  O   UNL     1      33.563 -19.944 -19.851  0.00  0.00    -0.252 OA
ATOM      2  N   UNL     1      35.321 -20.008 -21.398  0.00  0.00    -0.268 N 
ATOM      3  N   UNL     1      35.377 -21.388 -19.547  0.00  0.00    -0.268 N 
ATOM      4  C   UNL     1      34.640 -20.402 -20.221  0.00  0.00    +0.308 C 
ATOM      5  H   UNL     1      36.177 -20.462 -21.569  0.00  0.00    +0.156 HD
ATOM      6  H   UNL     1      36.227 -21.655 -19.968  0.00  0.00    +0.156 HD
ENDROOT
BRANCH   2  10
ATOM      7  N   UNL     1      33.789 -16.263 -25.218  0.00  0.00    -0.410 NA
ATOM      8  C   UNL     1      34.541 -16.752 -22.981  0.00  0.00    +0.111 C 
ATOM      9  C   UNL     1      34.164 -17.154 -24.279  0.00  0.00    +0.118 C 
ATOM     10  C   UNL     1      34.939 -19.061 -22.350  0.00  0.00    +0.048 C 
ATOM     11  C   UNL     1      34.927 -17.708 -22.026  0.00  0.00    +0.001 C 
ATOM     12  C   UNL     1      34.519 -15.383 -22.681  0.00  0.00    +0.031 C 
ATOM     13  C   UNL     1      34.185 -18.514 -24.576  0.00  0.00    +0.029 C 
ATOM     14  C   UNL     1      34.568 -19.465 -23.627  0.00  0.00    +0.017 C 
ATOM     15  C   UNL     1      33.780 -14.952 -24.888  0.00  0.00    +0.110 C 
ATOM     16  C   UNL     1      34.133 -14.463 -23.646  0.00  0.00    +0.038 C 
ATOM     17  C   UNL     1      33.358 -13.999 -25.956  0.00  0.00    +0.066 C 
BRANCH  12  18
ATOM     18  N   UNL     1      34.882 -14.894 -21.404  0.00  0.00    -0.360 N 
ATOM     19  H   UNL     1      34.294 -14.260 -20.933  0.00  0.00    +0.142 HD
ATOM     20  H   UNL     1      35.724 -15.187 -20.986  0.00  0.00    +0.142 HD
ENDBRANCH  12  18
ENDBRANCH   2  10
BRANCH   3  24
ATOM     21  N   UNL     1      34.066 -23.986 -14.806  0.00  0.00    -0.410 NA
ATOM     22  C   UNL     1      35.659 -22.733 -16.108  0.00  0.00    +0.111 C 
ATOM     23  C   UNL     1      34.402 -23.352 -15.944  0.00  0.00    +0.118 C 
ATOM     24  C   UNL     1      35.053 -22.044 -18.337  0.00  0.00    +0.048 C 
ATOM     25  C   UNL     1      35.978 -22.079 -17.310  0.00  0.00    +0.001 C 
ATOM     26  C   UNL     1      36.568 -22.792 -15.043  0.00  0.00    +0.031 C 
ATOM     27  C   UNL     1      33.501 -23.292 -17.003  0.00  0.00    +0.029 C 
ATOM     28  C   UNL     1      33.817 -22.643 -18.200  0.00  0.00    +0.017 C 
ATOM     29  C   UNL     1      34.971 -24.021 -13.801  0.00  0.00    +0.110 C 
ATOM     30  C   UNL     1      36.225 -23.445 -13.868  0.00  0.00    +0.038 C 
ATOM     31  C   UNL     1      34.558 -24.734 -12.558  0.00  0.00    +0.066 C 
BRANCH  26  32
ATOM     32  N   UNL     1      37.850 -22.198 -15.123  0.00  0.00    -0.360 N 
ATOM     33  H   UNL     1      38.153 -21.583 -14.416  0.00  0.00    +0.142 HD
ATOM     34  H   UNL     1      38.439 -22.399 -15.886  0.00  0.00    +0.142 HD
ENDBRANCH  26  32
ENDBRANCH   3  24
TORSDOF 4
ENDMDL
MODEL 7
REMARK VINA RESULT:     -10.5      6.926     13.807
REMARK  Name = 71166
REMARK  4 active torsions:
REMARK  status: ('A' for Active; 'I' for Inactive)
REMARK    1  A    between atoms: N_2  and  C_10
REMARK    2  A    between atoms: N_3  and  C_24
REMARK    3  A    between atoms: C_12  and  N_18
REMARK    4  A    between atoms: C_26  and  N_32
REMARK                            x       y       z     vdW  Elec       q    Type
REMARK                         _______ _______ _______ _____ _____    ______ ____
ROOT
ATOM      1  O   UNL     1      33.369 -10.320 -23.192  0.00  0.00    -0.252 OA
ATOM      2  N   UNL     1      31.342  -9.547 -22.306  0.00  0.00    -0.268 N 
ATOM      3  N   UNL     1      32.076 -11.677 -21.793  0.00  0.00    -0.268 N 
ATOM      4  C   UNL     1      32.371 -10.501 -22.502  0.00  0.00    +0.308 C 
ATOM      5  H   UNL     1      30.601  -9.832 -21.725  0.00  0.00    +0.156 HD
ATOM      6  H   UNL     1      31.234 -11.673 -21.282  0.00  0.00    +0.156 HD
ENDROOT
BRANCH   2  10
ATOM      7  N   UNL     1      30.923  -4.414 -24.410  0.00  0.00    -0.410 NA
ATOM      8  C   UNL     1      31.530  -5.859 -22.580  0.00  0.00    +0.111 C 
ATOM      9  C   UNL     1      31.033  -5.648 -23.882  0.00  0.00    +0.118 C 
ATOM     10  C   UNL     1      31.242  -8.256 -22.826  0.00  0.00    +0.048 C 
ATOM     11  C   UNL     1      31.631  -7.161 -22.060  0.00  0.00    +0.001 C 
ATOM     12  C   UNL     1      31.913  -4.739 -21.830  0.00  0.00    +0.031 C 
ATOM     13  C   UNL     1      30.651  -6.762 -24.626  0.00  0.00    +0.029 C 
ATOM     14  C   UNL     1      30.751  -8.056 -24.111  0.00  0.00    +0.017 C 
ATOM     15  C   UNL     1      31.304  -3.359 -23.654  0.00  0.00    +0.110 C 
ATOM     16  C   UNL     1      31.801  -3.465 -22.371  0.00  0.00    +0.038 C 
ATOM     17  C   UNL     1      31.164  -2.009 -24.276  0.00  0.00    +0.066 C 
BRANCH  12  18
ATOM     18  N   UNL     1      32.422  -4.860 -20.515  0.00  0.00    -0.360 N 
ATOM     19  H   UNL     1      33.394  -4.897 -20.365  0.00  0.00    +0.142 HD
ATOM     20  H   UNL     1      31.804  -4.907 -19.751  0.00  0.00    +0.142 HD
ENDBRANCH  12  18
ENDBRANCH   2  10
BRANCH   3  24
ATOM     21  N   UNL     1      35.070 -16.354 -21.475  0.00  0.00    -0.410 NA
ATOM     22  C   UNL     1      33.840 -14.770 -22.809  0.00  0.00    +0.111 C 
ATOM     23  C   UNL     1      34.345 -15.225 -21.573  0.00  0.00    +0.118 C 
ATOM     24  C   UNL     1      32.838 -12.866 -21.723  0.00  0.00    +0.048 C 
ATOM     25  C   UNL     1      33.086 -13.586 -22.876  0.00  0.00    +0.001 C 
ATOM     26  C   UNL     1      34.116 -15.530 -23.954  0.00  0.00    +0.031 C 
ATOM     27  C   UNL     1      34.071 -14.469 -20.436  0.00  0.00    +0.029 C 
ATOM     28  C   UNL     1      33.320 -13.292 -20.502  0.00  0.00    +0.017 C 
ATOM     29  C   UNL     1      35.313 -17.059 -22.603  0.00  0.00    +0.110 C 
ATOM     30  C   UNL     1      34.862 -16.694 -23.856  0.00  0.00    +0.038 C 
ATOM     31  C   UNL     1      36.121 -18.304 -22.449  0.00  0.00    +0.066 C 
BRANCH  26  32
ATOM     32  N   UNL     1      33.648 -15.146 -25.234  0.00  0.00    -0.360 N 
ATOM     33  H   UNL     1      32.801 -14.652 -25.321  0.00  0.00    +0.142 HD
ATOM     34  H   UNL     1      34.170 -15.373 -26.037  0.00  0.00    +0.142 HD
ENDBRANCH  26  32
ENDBRANCH   3  24
TORSDOF 4
ENDMDL
MODEL 8
REMARK VINA RESULT:     -10.5      7.011     11.064
REMARK  Name = 71166
REMARK  4 active torsions:
REMARK  status: ('A' for Active; 'I' for Inactive)
REMARK    1  A    between atoms: N_2  and  C_10
REMARK    2  A    between atoms: N_3  and  C_24
REMARK    3  A    between atoms: C_12  and  N_18
REMARK    4  A    between atoms: C_26  and  N_32
REMARK                            x       y       z     vdW  Elec       q    Type
REMARK                         _______ _______ _______ _____ _____    ______ ____
ROOT
ATOM      1  O   UNL     1      33.416 -10.125 -23.098  0.00  0.00    -0.252 OA
ATOM      2  N   UNL     1      31.989 -11.584 -21.947  0.00  0.00    -0.268 N 
ATOM      3  N   UNL     1      31.271  -9.449 -22.457  0.00  0.00    -0.268 N 
ATOM      4  C   UNL     1      32.338 -10.355 -22.559  0.00  0.00    +0.308 C 
ATOM      5  H   UNL     1      31.087 -11.625 -21.555  0.00  0.00    +0.156 HD
ATOM      6  H   UNL     1      30.466  -9.779 -21.995  0.00  0.00    +0.156 HD
ENDROOT
BRANCH   2  10
ATOM      7  N   UNL     1      35.036 -16.210 -21.430  0.00  0.00    -0.410 NA
ATOM      8  C   UNL     1      33.809 -14.685 -22.834  0.00  0.00    +0.111 C 
ATOM      9  C   UNL     1      34.298 -15.094 -21.577  0.00  0.00    +0.118 C 
ATOM     10  C   UNL     1      32.753 -12.745 -21.827  0.00  0.00    +0.048 C 
ATOM     11  C   UNL     1      33.040 -13.513 -22.952  0.00  0.00    +0.001 C 
ATOM     12  C   UNL     1      34.112 -15.477 -23.950  0.00  0.00    +0.031 C 
ATOM     13  C   UNL     1      33.995 -14.306 -20.468  0.00  0.00    +0.029 C 
ATOM     14  C   UNL     1      33.232 -13.142 -20.584  0.00  0.00    +0.017 C 
ATOM     15  C   UNL     1      35.307 -16.947 -22.531  0.00  0.00    +0.110 C 
ATOM     16  C   UNL     1      34.873 -16.628 -23.802  0.00  0.00    +0.038 C 
ATOM     17  C   UNL     1      36.127 -18.177 -22.324  0.00  0.00    +0.066 C 
BRANCH  12  18
ATOM     18  N   UNL     1      33.662 -15.141 -25.248  0.00  0.00    -0.360 N 
ATOM     19  H   UNL     1      33.512 -15.848 -25.916  0.00  0.00    +0.142 HD
ATOM     20  H   UNL     1      33.498 -14.199 -25.484  0.00  0.00    +0.142 HD
ENDBRANCH  12  18
ENDBRANCH   2  10
BRANCH   3  24
ATOM     21  N   UNL     1      31.005  -4.231 -24.367  0.00  0.00    -0.410 NA
ATOM     22  C   UNL     1      31.545  -5.758 -22.584  0.00  0.00    +0.111 C 
ATOM     23  C   UNL     1      31.078  -5.486 -23.887  0.00  0.00    +0.118 C 
ATOM     24  C   UNL     1      31.209  -8.119 -22.934  0.00  0.00    +0.048 C 
ATOM     25  C   UNL     1      31.608  -7.081 -22.114  0.00  0.00    +0.001 C 
ATOM     26  C   UNL     1      31.940  -4.676 -21.785  0.00  0.00    +0.031 C 
ATOM     27  C   UNL     1      30.686  -6.561 -24.680  0.00  0.00    +0.029 C 
ATOM     28  C   UNL     1      30.747  -7.877 -24.212  0.00  0.00    +0.017 C 
ATOM     29  C   UNL     1      31.394  -3.215 -23.565  0.00  0.00    +0.110 C 
ATOM     30  C   UNL     1      31.865  -3.382 -22.277  0.00  0.00    +0.038 C 
ATOM     31  C   UNL     1      31.297  -1.840 -24.137  0.00  0.00    +0.066 C 
BRANCH  26  32
ATOM     32  N   UNL     1      32.420  -4.860 -20.467  0.00  0.00    -0.360 N 
ATOM     33  H   UNL     1      32.106  -5.622 -19.930  0.00  0.00    +0.142 HD
ATOM     34  H   UNL     1      33.069  -4.223 -20.086  0.00  0.00    +0.142 HD
ENDBRANCH  26  32
ENDBRANCH   3  24
TORSDOF 4
ENDMDL
MODEL 9
REMARK VINA RESULT:     -10.3      5.862     13.046
REMARK  Name = 71166
REMARK  4 active torsions:
REMARK  status: ('A' for Active; 'I' for Inactive)
REMARK    1  A    between atoms: N_2  and  C_10
REMARK    2  A    between atoms: N_3  and  C_24
REMARK    3  A    between atoms: C_12  and  N_18
REMARK    4  A    between atoms: C_26  and  N_32
REMARK                            x       y       z     vdW  Elec       q    Type
REMARK                         _______ _______ _______ _____ _____    ______ ____
ROOT
ATOM      1  O   UNL     1      32.682 -11.845 -21.716  0.00  0.00    -0.252 OA
ATOM      2  N   UNL     1      33.592 -10.698 -23.544  0.00  0.00    -0.268 N 
ATOM      3  N   UNL     1      34.350 -12.819 -23.033  0.00  0.00    -0.268 N 
ATOM      4  C   UNL     1      33.461 -11.798 -22.662  0.00  0.00    +0.308 C 
ATOM      5  H   UNL     1      34.259 -10.802 -24.261  0.00  0.00    +0.156 HD
ATOM      6  H   UNL     1      34.915 -12.635 -23.819  0.00  0.00    +0.156 HD
ENDROOT
BRANCH   2  10
ATOM      7  N   UNL     1      30.806  -5.882 -23.485  0.00  0.00    -0.410 NA
ATOM      8  C   UNL     1      32.865  -7.079 -23.850  0.00  0.00    +0.111 C 
ATOM      9  C   UNL     1      31.498  -7.037 -23.506  0.00  0.00    +0.118 C 
ATOM     10  C   UNL     1      32.901  -9.485 -23.533  0.00  0.00    +0.048 C 
ATOM     11  C   UNL     1      33.557  -8.303 -23.862  0.00  0.00    +0.001 C 
ATOM     12  C   UNL     1      33.501  -5.874 -24.176  0.00  0.00    +0.031 C 
ATOM     13  C   UNL     1      30.867  -8.235 -23.181  0.00  0.00    +0.029 C 
ATOM     14  C   UNL     1      31.554  -9.452 -23.193  0.00  0.00    +0.017 C 
ATOM     15  C   UNL     1      31.457  -4.741 -23.806  0.00  0.00    +0.110 C 
ATOM     16  C   UNL     1      32.791  -4.682 -24.155  0.00  0.00    +0.038 C 
ATOM     17  C   UNL     1      30.653  -3.484 -23.769  0.00  0.00    +0.066 C 
BRANCH  12  18
ATOM     18  N   UNL     1      34.870  -5.826 -24.533  0.00  0.00    -0.360 N 
ATOM     19  H   UNL     1      35.136  -5.921 -25.476  0.00  0.00    +0.142 HD
ATOM     20  H   UNL     1      35.555  -5.697 -23.839  0.00  0.00    +0.142 HD
ENDBRANCH  12  18
ENDBRANCH   2  10
BRANCH   3  24
ATOM     21  N   UNL     1      35.074 -17.757 -20.575  0.00  0.00    -0.410 NA
ATOM     22  C   UNL     1      34.773 -16.471 -22.590  0.00  0.00    +0.111 C 
ATOM     23  C   UNL     1      34.900 -16.572 -21.189  0.00  0.00    +0.118 C 
ATOM     24  C   UNL     1      34.536 -14.079 -22.418  0.00  0.00    +0.048 C 
ATOM     25  C   UNL     1      34.592 -15.218 -23.199  0.00  0.00    +0.001 C 
ATOM     26  C   UNL     1      34.836 -17.651 -23.345  0.00  0.00    +0.031 C 
ATOM     27  C   UNL     1      34.837 -15.399 -20.440  0.00  0.00    +0.029 C 
ATOM     28  C   UNL     1      34.656 -14.152 -21.045  0.00  0.00    +0.017 C 
ATOM     29  C   UNL     1      35.128 -18.871 -21.339  0.00  0.00    +0.110 C 
ATOM     30  C   UNL     1      35.015 -18.873 -22.715  0.00  0.00    +0.038 C 
ATOM     31  C   UNL     1      35.323 -20.163 -20.618  0.00  0.00    +0.066 C 
BRANCH  26  32
ATOM     32  N   UNL     1      34.719 -17.640 -24.755  0.00  0.00    -0.360 N 
ATOM     33  H   UNL     1      34.401 -18.443 -25.229  0.00  0.00    +0.142 HD
ATOM     34  H   UNL     1      34.956 -16.830 -25.263  0.00  0.00    +0.142 HD
ENDBRANCH  26  32
ENDBRANCH   3  24
TORSDOF 4
ENDMDL
