MODEL 1
REMARK VINA RESULT:     -10.1      0.000      0.000
REMARK  Name = 135435181
REMARK  5 active torsions:
REMARK  status: ('A' for Active; 'I' for Inactive)
REMARK    1  A    between atoms: N_3  and  C_28
REMARK    2  A    between atoms: C_7  and  C_18
REMARK    3  A    between atoms: C_8  and  O_26
REMARK    4  A    between atoms: C_28  and  C_29
REMARK    5  A    between atoms: C_29  and  C_30
REMARK                            x       y       z     vdW  Elec       q    Type
REMARK                         _______ _______ _______ _____ _____    ______ ____
ROOT
ATOM      1  F   UNL     1      30.464  -9.667 -18.233  0.00  0.00    -0.204 F 
ATOM      2  O   UNL     1      34.394 -12.074 -24.331  0.00  0.00    -0.267 OA
ATOM      3  N   UNL     1      33.328 -10.559 -22.937  0.00  0.00    -0.295 N 
ATOM      4  C   UNL     1      32.594 -10.318 -21.737  0.00  0.00    +0.065 A 
ATOM      5  C   UNL     1      33.759 -11.834 -23.303  0.00  0.00    +0.267 A 
ATOM      6  C   UNL     1      32.291 -11.397 -20.890  0.00  0.00    +0.052 A 
ATOM      7  C   UNL     1      33.426 -12.974 -22.384  0.00  0.00    +0.123 A 
ATOM      8  C   UNL     1      32.732 -12.756 -21.251  0.00  0.00    +0.142 A 
ATOM      9  C   UNL     1      32.166  -9.027 -21.377  0.00  0.00    +0.020 C 
ATOM     10  C   UNL     1      31.567 -11.157 -19.706  0.00  0.00    +0.034 C 
ATOM     11  C   UNL     1      31.451  -8.805 -20.200  0.00  0.00    +0.031 C 
ATOM     12  C   UNL     1      31.151  -9.871 -19.364  0.00  0.00    +0.140 C 
ENDROOT
BRANCH   7  18
ATOM     13  S   UNL     1      34.199 -16.098 -24.597  0.00  0.00    +0.103 S 
ATOM     14  O   UNL     1      35.335 -15.922 -25.484  0.00  0.00    -0.146 OA
ATOM     15  O   UNL     1      33.014 -16.804 -25.050  0.00  0.00    -0.146 OA
ATOM     16  N   UNL     1      34.371 -15.152 -21.749  0.00  0.00    -0.295 N 
ATOM     17  N   UNL     1      33.757 -14.646 -24.014  0.00  0.00    -0.112 NA
ATOM     18  C   UNL     1      33.873 -14.333 -22.748  0.00  0.00    +0.161 C 
ATOM     19  C   UNL     1      34.826 -16.456 -21.966  0.00  0.00    +0.069 C 
ATOM     20  C   UNL     1      34.809 -17.034 -23.233  0.00  0.00    +0.143 C 
ATOM     21  C   UNL     1      35.318 -17.225 -20.903  0.00  0.00    +0.016 C 
ATOM     22  C   UNL     1      35.262 -18.333 -23.465  0.00  0.00    +0.022 C 
ATOM     23  C   UNL     1      35.776 -18.528 -21.116  0.00  0.00    +0.001 C 
ATOM     24  C   UNL     1      35.747 -19.081 -22.396  0.00  0.00    +0.001 C 
ATOM     25  H   UNL     1      34.404 -14.797 -20.832  0.00  0.00    +0.154 HD
ENDBRANCH   7  18
BRANCH   8  26
ATOM     26  O   UNL     1      32.368 -13.726 -20.341  0.00  0.00    -0.505 OA
ATOM     27  H   UNL     1      32.723 -13.713 -19.474  0.00  0.00    +0.292 HD
ENDBRANCH   8  26
BRANCH   3  28
ATOM     28  C   UNL     1      33.638  -9.431 -23.814  0.00  0.00    +0.109 C 
BRANCH  28  29
ATOM     29  C   UNL     1      35.054  -8.908 -23.605  0.00  0.00    +0.025 C 
BRANCH  29  30
ATOM     30  C   UNL     1      35.085  -7.505 -23.076  0.00  0.00    +0.002 C 
ATOM     31  C   UNL     1      35.358  -6.353 -24.002  0.00  0.00    +0.000 C 
ATOM     32  C   UNL     1      33.984  -6.542 -23.424  0.00  0.00    +0.000 C 
ENDBRANCH  29  30
ENDBRANCH  28  29
ENDBRANCH   3  28
TORSDOF 5
ENDMDL
MODEL 2
REMARK VINA RESULT:     -10.0      4.377      9.024
REMARK  Name = 135435181
REMARK  5 active torsions:
REMARK  status: ('A' for Active; 'I' for Inactive)
REMARK    1  A    between atoms: N_3  and  C_28
REMARK    2  A    between atoms: C_7  and  C_18
REMARK    3  A    between atoms: C_8  and  O_26
REMARK    4  A    between atoms: C_28  and  C_29
REMARK    5  A    between atoms: C_29  and  C_30
REMARK                            x       y       z     vdW  Elec       q    Type
REMARK                         _______ _______ _______ _____ _____    ______ ____
ROOT
ATOM      1  F   UNL     1      31.723 -10.350 -17.094  0.00  0.00    -0.204 F 
ATOM      2  O   UNL     1      32.361  -8.672 -24.525  0.00  0.00    -0.267 OA
ATOM      3  N   UNL     1      32.201 -10.018 -22.644  0.00  0.00    -0.295 N 
ATOM      4  C   UNL     1      32.079 -10.116 -21.225  0.00  0.00    +0.065 A 
ATOM      5  C   UNL     1      32.256  -8.790 -23.303  0.00  0.00    +0.267 A 
ATOM      6  C   UNL     1      32.013  -8.940 -20.459  0.00  0.00    +0.052 A 
ATOM      7  C   UNL     1      32.184  -7.545 -22.467  0.00  0.00    +0.123 A 
ATOM      8  C   UNL     1      32.071  -7.628 -21.128  0.00  0.00    +0.142 A 
ATOM      9  C   UNL     1      32.022 -11.360 -20.570  0.00  0.00    +0.020 C 
ATOM     10  C   UNL     1      31.893  -9.039 -19.059  0.00  0.00    +0.034 C 
ATOM     11  C   UNL     1      31.902 -11.442 -19.183  0.00  0.00    +0.031 C 
ATOM     12  C   UNL     1      31.837 -10.281 -18.427  0.00  0.00    +0.140 C 
ENDROOT
BRANCH   7  18
ATOM     13  S   UNL     1      31.258  -3.860 -23.376  0.00  0.00    +0.103 S 
ATOM     14  O   UNL     1      31.610  -2.896 -22.349  0.00  0.00    -0.146 OA
ATOM     15  O   UNL     1      30.010  -3.733 -24.108  0.00  0.00    -0.146 OA
ATOM     16  N   UNL     1      33.202  -6.032 -24.114  0.00  0.00    -0.295 N 
ATOM     17  N   UNL     1      31.348  -5.357 -22.746  0.00  0.00    -0.112 NA
ATOM     18  C   UNL     1      32.238  -6.233 -23.141  0.00  0.00    +0.161 C 
ATOM     19  C   UNL     1      33.356  -4.836 -24.822  0.00  0.00    +0.069 C 
ATOM     20  C   UNL     1      32.529  -3.739 -24.591  0.00  0.00    +0.143 C 
ATOM     21  C   UNL     1      34.358  -4.707 -25.793  0.00  0.00    +0.016 C 
ATOM     22  C   UNL     1      32.673  -2.539 -25.288  0.00  0.00    +0.022 C 
ATOM     23  C   UNL     1      34.516  -3.513 -26.501  0.00  0.00    +0.001 C 
ATOM     24  C   UNL     1      33.674  -2.431 -26.250  0.00  0.00    +0.001 C 
ATOM     25  H   UNL     1      33.813  -6.774 -24.322  0.00  0.00    +0.154 HD
ENDBRANCH   7  18
BRANCH   8  26
ATOM     26  O   UNL     1      32.003  -6.554 -20.266  0.00  0.00    -0.505 OA
ATOM     27  H   UNL     1      31.503  -5.796 -20.499  0.00  0.00    +0.292 HD
ENDBRANCH   8  26
BRANCH   3  28
ATOM     28  C   UNL     1      32.270 -11.247 -23.434  0.00  0.00    +0.109 C 
BRANCH  28  29
ATOM     29  C   UNL     1      33.706 -11.688 -23.691  0.00  0.00    +0.025 C 
BRANCH  29  30
ATOM     30  C   UNL     1      33.874 -13.177 -23.644  0.00  0.00    +0.002 C 
ATOM     31  C   UNL     1      34.540 -13.827 -22.462  0.00  0.00    +0.000 C 
ATOM     32  C   UNL     1      33.063 -14.000 -22.682  0.00  0.00    +0.000 C 
ENDBRANCH  29  30
ENDBRANCH  28  29
ENDBRANCH   3  28
TORSDOF 5
ENDMDL
MODEL 3
REMARK VINA RESULT:      -9.9     10.083     13.556
REMARK  Name = 135435181
REMARK  5 active torsions:
REMARK  status: ('A' for Active; 'I' for Inactive)
REMARK    1  A    between atoms: N_3  and  C_28
REMARK    2  A    between atoms: C_7  and  C_18
REMARK    3  A    between atoms: C_8  and  O_26
REMARK    4  A    between atoms: C_28  and  C_29
REMARK    5  A    between atoms: C_29  and  C_30
REMARK                            x       y       z     vdW  Elec       q    Type
REMARK                         _______ _______ _______ _____ _____    ______ ____
ROOT
ATOM      1  F   UNL     1      35.376 -19.745 -21.283  0.00  0.00    -0.204 F 
ATOM      2  O   UNL     1      32.976 -23.788 -15.255  0.00  0.00    -0.267 OA
ATOM      3  N   UNL     1      32.799 -22.583 -17.229  0.00  0.00    -0.295 N 
ATOM      4  C   UNL     1      33.447 -21.855 -18.271  0.00  0.00    +0.065 A 
ATOM      5  C   UNL     1      33.506 -23.154 -16.170  0.00  0.00    +0.267 A 
ATOM      6  C   UNL     1      34.843 -21.701 -18.236  0.00  0.00    +0.052 A 
ATOM      7  C   UNL     1      34.996 -22.980 -16.151  0.00  0.00    +0.123 A 
ATOM      8  C   UNL     1      35.615 -22.292 -17.129  0.00  0.00    +0.142 A 
ATOM      9  C   UNL     1      32.724 -21.285 -19.336  0.00  0.00    +0.020 C 
ATOM     10  C   UNL     1      35.480 -20.982 -19.266  0.00  0.00    +0.034 C 
ATOM     11  C   UNL     1      33.371 -20.576 -20.349  0.00  0.00    +0.031 C 
ATOM     12  C   UNL     1      34.748 -20.424 -20.314  0.00  0.00    +0.140 C 
ENDROOT
BRANCH   7  18
ATOM     13  S   UNL     1      37.799 -24.982 -14.307  0.00  0.00    +0.103 S 
ATOM     14  O   UNL     1      39.094 -24.325 -14.321  0.00  0.00    -0.146 OA
ATOM     15  O   UNL     1      37.701 -26.420 -14.478  0.00  0.00    -0.146 OA
ATOM     16  N   UNL     1      35.320 -23.377 -13.747  0.00  0.00    -0.295 N 
ATOM     17  N   UNL     1      36.830 -24.255 -15.393  0.00  0.00    -0.112 NA
ATOM     18  C   UNL     1      35.767 -23.576 -15.042  0.00  0.00    +0.161 C 
ATOM     19  C   UNL     1      35.960 -23.887 -12.615  0.00  0.00    +0.069 C 
ATOM     20  C   UNL     1      37.121 -24.651 -12.714  0.00  0.00    +0.143 C 
ATOM     21  C   UNL     1      35.448 -23.641 -11.334  0.00  0.00    +0.016 C 
ATOM     22  C   UNL     1      37.772 -25.165 -11.593  0.00  0.00    +0.022 C 
ATOM     23  C   UNL     1      36.087 -24.148 -10.199  0.00  0.00    +0.001 C 
ATOM     24  C   UNL     1      37.247 -24.910 -10.329  0.00  0.00    +0.001 C 
ATOM     25  H   UNL     1      34.501 -22.846 -13.616  0.00  0.00    +0.154 HD
ENDBRANCH   7  18
BRANCH   8  26
ATOM     26  O   UNL     1      36.973 -22.067 -17.207  0.00  0.00    -0.505 OA
ATOM     27  H   UNL     1      37.511 -22.165 -16.446  0.00  0.00    +0.292 HD
ENDBRANCH   8  26
BRANCH   3  28
ATOM     28  C   UNL     1      31.345 -22.737 -17.271  0.00  0.00    +0.109 C 
BRANCH  28  29
ATOM     29  C   UNL     1      30.690 -22.409 -15.936  0.00  0.00    +0.025 C 
BRANCH  29  30
ATOM     30  C   UNL     1      29.503 -23.276 -15.641  0.00  0.00    +0.002 C 
ATOM     31  C   UNL     1      28.193 -22.656 -15.241  0.00  0.00    +0.000 C 
ATOM     32  C   UNL     1      28.335 -23.307 -16.588  0.00  0.00    +0.000 C 
ENDBRANCH  29  30
ENDBRANCH  28  29
ENDBRANCH   3  28
TORSDOF 5
ENDMDL
MODEL 4
REMARK VINA RESULT:      -9.4      9.381     13.946
REMARK  Name = 135435181
REMARK  5 active torsions:
REMARK  status: ('A' for Active; 'I' for Inactive)
REMARK    1  A    between atoms: N_3  and  C_28
REMARK    2  A    between atoms: C_7  and  C_18
REMARK    3  A    between atoms: C_8  and  O_26
REMARK    4  A    between atoms: C_28  and  C_29
REMARK    5  A    between atoms: C_29  and  C_30
REMARK                            x       y       z     vdW  Elec       q    Type
REMARK                         _______ _______ _______ _____ _____    ______ ____
ROOT
ATOM      1  F   UNL     1      39.088 -25.533 -12.026  0.00  0.00    -0.204 F 
ATOM      2  O   UNL     1      32.789 -22.808 -15.392  0.00  0.00    -0.267 OA
ATOM      3  N   UNL     1      34.058 -23.845 -13.751  0.00  0.00    -0.295 N 
ATOM      4  C   UNL     1      35.339 -24.282 -13.299  0.00  0.00    +0.065 A 
ATOM      5  C   UNL     1      33.881 -23.197 -14.974  0.00  0.00    +0.267 A 
ATOM      6  C   UNL     1      36.465 -24.057 -14.108  0.00  0.00    +0.052 A 
ATOM      7  C   UNL     1      35.097 -22.966 -15.823  0.00  0.00    +0.123 A 
ATOM      8  C   UNL     1      36.309 -23.377 -15.406  0.00  0.00    +0.142 A 
ATOM      9  C   UNL     1      35.506 -24.932 -12.062  0.00  0.00    +0.020 C 
ATOM     10  C   UNL     1      37.729 -24.489 -13.660  0.00  0.00    +0.034 C 
ATOM     11  C   UNL     1      36.765 -25.353 -11.632  0.00  0.00    +0.031 C 
ATOM     12  C   UNL     1      37.876 -25.132 -12.431  0.00  0.00    +0.140 C 
ENDROOT
BRANCH   7  18
ATOM     13  S   UNL     1      33.408 -21.735 -19.124  0.00  0.00    +0.103 S 
ATOM     14  O   UNL     1      32.388 -20.721 -18.918  0.00  0.00    -0.146 OA
ATOM     15  O   UNL     1      33.217 -22.782 -20.110  0.00  0.00    -0.146 OA
ATOM     16  N   UNL     1      36.007 -21.560 -17.623  0.00  0.00    -0.295 N 
ATOM     17  N   UNL     1      33.767 -22.419 -17.692  0.00  0.00    -0.112 NA
ATOM     18  C   UNL     1      34.937 -22.280 -17.121  0.00  0.00    +0.161 C 
ATOM     19  C   UNL     1      35.979 -20.868 -18.837  0.00  0.00    +0.069 C 
ATOM     20  C   UNL     1      34.844 -20.856 -19.645  0.00  0.00    +0.143 C 
ATOM     21  C   UNL     1      37.104 -20.159 -19.278  0.00  0.00    +0.016 C 
ATOM     22  C   UNL     1      34.802 -20.168 -20.858  0.00  0.00    +0.022 C 
ATOM     23  C   UNL     1      37.079 -19.464 -20.491  0.00  0.00    +0.001 C 
ATOM     24  C   UNL     1      35.930 -19.470 -21.280  0.00  0.00    +0.001 C 
ATOM     25  H   UNL     1      36.837 -21.536 -17.095  0.00  0.00    +0.154 HD
ENDBRANCH   7  18
BRANCH   8  26
ATOM     26  O   UNL     1      37.487 -23.221 -16.105  0.00  0.00    -0.505 OA
ATOM     27  H   UNL     1      37.657 -23.748 -16.862  0.00  0.00    +0.292 HD
ENDBRANCH   8  26
BRANCH   3  28
ATOM     28  C   UNL     1      32.890 -24.084 -12.904  0.00  0.00    +0.109 C 
BRANCH  28  29
ATOM     29  C   UNL     1      31.978 -25.166 -13.469  0.00  0.00    +0.025 C 
BRANCH  29  30
ATOM     30  C   UNL     1      30.526 -24.800 -13.399  0.00  0.00    +0.002 C 
ATOM     31  C   UNL     1      29.847 -24.166 -14.581  0.00  0.00    +0.000 C 
ATOM     32  C   UNL     1      29.510 -25.577 -14.188  0.00  0.00    +0.000 C 
ENDBRANCH  29  30
ENDBRANCH  28  29
ENDBRANCH   3  28
TORSDOF 5
ENDMDL
MODEL 5
REMARK VINA RESULT:      -9.3     10.147     13.590
REMARK  Name = 135435181
REMARK  5 active torsions:
REMARK  status: ('A' for Active; 'I' for Inactive)
REMARK    1  A    between atoms: N_3  and  C_28
REMARK    2  A    between atoms: C_7  and  C_18
REMARK    3  A    between atoms: C_8  and  O_26
REMARK    4  A    between atoms: C_28  and  C_29
REMARK    5  A    between atoms: C_29  and  C_30
REMARK                            x       y       z     vdW  Elec       q    Type
REMARK                         _______ _______ _______ _____ _____    ______ ____
ROOT
ATOM      1  F   UNL     1      35.206 -19.752 -21.249  0.00  0.00    -0.204 F 
ATOM      2  O   UNL     1      33.271 -23.847 -15.091  0.00  0.00    -0.267 OA
ATOM      3  N   UNL     1      32.950 -22.672 -17.064  0.00  0.00    -0.295 N 
ATOM      4  C   UNL     1      33.516 -21.923 -18.139  0.00  0.00    +0.065 A 
ATOM      5  C   UNL     1      33.729 -23.197 -16.032  0.00  0.00    +0.267 A 
ATOM      6  C   UNL     1      34.902 -21.702 -18.167  0.00  0.00    +0.052 A 
ATOM      7  C   UNL     1      35.209 -22.951 -16.081  0.00  0.00    +0.123 A 
ATOM      8  C   UNL     1      35.750 -22.244 -17.090  0.00  0.00    +0.142 A 
ATOM      9  C   UNL     1      32.720 -21.400 -19.176  0.00  0.00    +0.020 C 
ATOM     10  C   UNL     1      35.458 -20.963 -19.229  0.00  0.00    +0.034 C 
ATOM     11  C   UNL     1      33.286 -20.670 -20.222  0.00  0.00    +0.031 C 
ATOM     12  C   UNL     1      34.655 -20.452 -20.249  0.00  0.00    +0.140 C 
ENDROOT
BRANCH   7  18
ATOM     13  S   UNL     1      36.401 -23.859 -12.473  0.00  0.00    +0.103 S 
ATOM     14  O   UNL     1      35.619 -24.908 -11.843  0.00  0.00    -0.146 OA
ATOM     15  O   UNL     1      36.857 -22.717 -11.702  0.00  0.00    -0.146 OA
ATOM     16  N   UNL     1      37.232 -24.140 -15.349  0.00  0.00    -0.295 N 
ATOM     17  N   UNL     1      35.604 -23.323 -13.786  0.00  0.00    -0.112 NA
ATOM     18  C   UNL     1      36.055 -23.498 -15.002  0.00  0.00    +0.161 C 
ATOM     19  C   UNL     1      38.115 -24.701 -14.422  0.00  0.00    +0.069 C 
ATOM     20  C   UNL     1      37.866 -24.650 -13.052  0.00  0.00    +0.143 C 
ATOM     21  C   UNL     1      39.287 -25.338 -14.850  0.00  0.00    +0.016 C 
ATOM     22  C   UNL     1      38.738 -25.207 -12.116  0.00  0.00    +0.022 C 
ATOM     23  C   UNL     1      40.172 -25.901 -13.927  0.00  0.00    +0.001 C 
ATOM     24  C   UNL     1      39.898 -25.834 -12.561  0.00  0.00    +0.001 C 
ATOM     25  H   UNL     1      37.460 -24.204 -16.303  0.00  0.00    +0.154 HD
ENDBRANCH   7  18
BRANCH   8  26
ATOM     26  O   UNL     1      37.091 -21.954 -17.230  0.00  0.00    -0.505 OA
ATOM     27  H   UNL     1      37.702 -22.638 -17.422  0.00  0.00    +0.292 HD
ENDBRANCH   8  26
BRANCH   3  28
ATOM     28  C   UNL     1      31.505 -22.896 -17.041  0.00  0.00    +0.109 C 
BRANCH  28  29
ATOM     29  C   UNL     1      30.881 -22.507 -15.707  0.00  0.00    +0.025 C 
BRANCH  29  30
ATOM     30  C   UNL     1      29.632 -23.279 -15.401  0.00  0.00    +0.002 C 
ATOM     31  C   UNL     1      28.342 -22.557 -15.130  0.00  0.00    +0.000 C 
ATOM     32  C   UNL     1      28.513 -23.336 -16.404  0.00  0.00    +0.000 C 
ENDBRANCH  29  30
ENDBRANCH  28  29
ENDBRANCH   3  28
TORSDOF 5
ENDMDL
MODEL 6
REMARK VINA RESULT:      -9.2      9.268     13.544
REMARK  Name = 135435181
REMARK  5 active torsions:
REMARK  status: ('A' for Active; 'I' for Inactive)
REMARK    1  A    between atoms: N_3  and  C_28
REMARK    2  A    between atoms: C_7  and  C_18
REMARK    3  A    between atoms: C_8  and  O_26
REMARK    4  A    between atoms: C_28  and  C_29
REMARK    5  A    between atoms: C_29  and  C_30
REMARK                            x       y       z     vdW  Elec       q    Type
REMARK                         _______ _______ _______ _____ _____    ______ ____
ROOT
ATOM      1  F   UNL     1      38.393 -24.574 -11.147  0.00  0.00    -0.204 F 
ATOM      2  O   UNL     1      32.880 -23.235 -16.270  0.00  0.00    -0.267 OA
ATOM      3  N   UNL     1      33.832 -24.046 -14.317  0.00  0.00    -0.295 N 
ATOM      4  C   UNL     1      34.993 -24.187 -13.498  0.00  0.00    +0.065 A 
ATOM      5  C   UNL     1      33.863 -23.375 -15.540  0.00  0.00    +0.267 A 
ATOM      6  C   UNL     1      36.210 -23.637 -13.931  0.00  0.00    +0.052 A 
ATOM      7  C   UNL     1      35.173 -22.792 -15.984  0.00  0.00    +0.123 A 
ATOM      8  C   UNL     1      36.273 -22.924 -15.219  0.00  0.00    +0.142 A 
ATOM      9  C   UNL     1      34.950 -24.865 -12.265  0.00  0.00    +0.020 C 
ATOM     10  C   UNL     1      37.353 -23.778 -13.120  0.00  0.00    +0.034 C 
ATOM     11  C   UNL     1      36.091 -24.996 -11.473  0.00  0.00    +0.031 C 
ATOM     12  C   UNL     1      37.293 -24.452 -11.901  0.00  0.00    +0.140 C 
ENDROOT
BRANCH   7  18
ATOM     13  S   UNL     1      36.688 -20.979 -19.095  0.00  0.00    +0.103 S 
ATOM     14  O   UNL     1      37.370 -21.868 -20.018  0.00  0.00    -0.146 OA
ATOM     15  O   UNL     1      37.233 -19.665 -18.800  0.00  0.00    -0.146 OA
ATOM     16  N   UNL     1      34.042 -21.790 -17.922  0.00  0.00    -0.295 N 
ATOM     17  N   UNL     1      36.431 -21.768 -17.696  0.00  0.00    -0.112 NA
ATOM     18  C   UNL     1      35.231 -22.075 -17.273  0.00  0.00    +0.161 C 
ATOM     19  C   UNL     1      33.964 -21.119 -19.146  0.00  0.00    +0.069 C 
ATOM     20  C   UNL     1      35.106 -20.680 -19.812  0.00  0.00    +0.143 C 
ATOM     21  C   UNL     1      32.722 -20.867 -19.743  0.00  0.00    +0.016 C 
ATOM     22  C   UNL     1      35.044 -20.011 -21.035  0.00  0.00    +0.022 C 
ATOM     23  C   UNL     1      32.640 -20.199 -20.967  0.00  0.00    +0.001 C 
ATOM     24  C   UNL     1      33.800 -19.770 -21.612  0.00  0.00    +0.001 C 
ATOM     25  H   UNL     1      33.202 -22.074 -17.496  0.00  0.00    +0.154 HD
ENDBRANCH   7  18
BRANCH   8  26
ATOM     26  O   UNL     1      37.524 -22.435 -15.531  0.00  0.00    -0.505 OA
ATOM     27  H   UNL     1      37.818 -21.625 -15.161  0.00  0.00    +0.292 HD
ENDBRANCH   8  26
BRANCH   3  28
ATOM     28  C   UNL     1      32.569 -24.623 -13.861  0.00  0.00    +0.109 C 
BRANCH  28  29
ATOM     29  C   UNL     1      31.585 -23.561 -13.387  0.00  0.00    +0.025 C 
BRANCH  29  30
ATOM     30  C   UNL     1      30.177 -23.837 -13.820  0.00  0.00    +0.002 C 
ATOM     31  C   UNL     1      29.546 -23.019 -14.912  0.00  0.00    +0.000 C 
ATOM     32  C   UNL     1      29.905 -24.456 -15.163  0.00  0.00    +0.000 C 
ENDBRANCH  29  30
ENDBRANCH  28  29
ENDBRANCH   3  28
TORSDOF 5
ENDMDL
MODEL 7
REMARK VINA RESULT:      -9.0      3.802      8.690
REMARK  Name = 135435181
REMARK  5 active torsions:
REMARK  status: ('A' for Active; 'I' for Inactive)
REMARK    1  A    between atoms: N_3  and  C_28
REMARK    2  A    between atoms: C_7  and  C_18
REMARK    3  A    between atoms: C_8  and  O_26
REMARK    4  A    between atoms: C_28  and  C_29
REMARK    5  A    between atoms: C_29  and  C_30
REMARK                            x       y       z     vdW  Elec       q    Type
REMARK                         _______ _______ _______ _____ _____    ______ ____
ROOT
ATOM      1  F   UNL     1      31.872 -10.094 -17.000  0.00  0.00    -0.204 F 
ATOM      2  O   UNL     1      32.307  -9.698 -24.622  0.00  0.00    -0.267 OA
ATOM      3  N   UNL     1      32.152 -10.705 -22.539  0.00  0.00    -0.295 N 
ATOM      4  C   UNL     1      32.080 -10.561 -21.120  0.00  0.00    +0.065 A 
ATOM      5  C   UNL     1      32.244  -9.607 -23.394  0.00  0.00    +0.267 A 
ATOM      6  C   UNL     1      32.103  -9.274 -20.559  0.00  0.00    +0.052 A 
ATOM      7  C   UNL     1      32.265  -8.240 -22.775  0.00  0.00    +0.123 A 
ATOM      8  C   UNL     1      32.201  -8.095 -21.438  0.00  0.00    +0.142 A 
ATOM      9  C   UNL     1      31.986 -11.677 -20.267  0.00  0.00    +0.020 C 
ATOM     10  C   UNL     1      32.032  -9.135 -19.159  0.00  0.00    +0.034 C 
ATOM     11  C   UNL     1      31.916 -11.522 -18.882  0.00  0.00    +0.031 C 
ATOM     12  C   UNL     1      31.939 -10.251 -18.328  0.00  0.00    +0.140 C 
ENDROOT
BRANCH   7  18
ATOM     13  S   UNL     1      33.639  -5.838 -25.533  0.00  0.00    +0.103 S 
ATOM     14  O   UNL     1      33.464  -6.338 -26.886  0.00  0.00    -0.146 OA
ATOM     15  O   UNL     1      34.859  -5.149 -25.155  0.00  0.00    -0.146 OA
ATOM     16  N   UNL     1      31.390  -6.079 -23.553  0.00  0.00    -0.295 N 
ATOM     17  N   UNL     1      33.375  -7.054 -24.485  0.00  0.00    -0.112 NA
ATOM     18  C   UNL     1      32.359  -7.061 -23.659  0.00  0.00    +0.161 C 
ATOM     19  C   UNL     1      31.367  -4.919 -24.332  0.00  0.00    +0.069 C 
ATOM     20  C   UNL     1      32.344  -4.667 -25.294  0.00  0.00    +0.143 C 
ATOM     21  C   UNL     1      30.351  -3.969 -24.168  0.00  0.00    +0.016 C 
ATOM     22  C   UNL     1      32.333  -3.515 -26.081  0.00  0.00    +0.022 C 
ATOM     23  C   UNL     1      30.325  -2.809 -24.947  0.00  0.00    +0.001 C 
ATOM     24  C   UNL     1      31.315  -2.582 -25.902  0.00  0.00    +0.001 C 
ATOM     25  H   UNL     1      30.676  -6.203 -22.887  0.00  0.00    +0.154 HD
ENDBRANCH   7  18
BRANCH   8  26
ATOM     26  O   UNL     1      32.219  -6.892 -20.765  0.00  0.00    -0.505 OA
ATOM     27  H   UNL     1      32.150  -6.875 -19.830  0.00  0.00    +0.292 HD
ENDBRANCH   8  26
BRANCH   3  28
ATOM     28  C   UNL     1      32.130 -12.049 -23.115  0.00  0.00    +0.109 C 
BRANCH  28  29
ATOM     29  C   UNL     1      33.516 -12.679 -23.166  0.00  0.00    +0.025 C 
BRANCH  29  30
ATOM     30  C   UNL     1      33.544 -14.070 -22.605  0.00  0.00    +0.002 C 
ATOM     31  C   UNL     1      34.761 -14.935 -22.785  0.00  0.00    +0.000 C 
ATOM     32  C   UNL     1      34.418 -14.393 -21.426  0.00  0.00    +0.000 C 
ENDBRANCH  29  30
ENDBRANCH  28  29
ENDBRANCH   3  28
TORSDOF 5
ENDMDL
MODEL 8
REMARK VINA RESULT:      -9.0      4.096      6.254
REMARK  Name = 135435181
REMARK  5 active torsions:
REMARK  status: ('A' for Active; 'I' for Inactive)
REMARK    1  A    between atoms: N_3  and  C_28
REMARK    2  A    between atoms: C_7  and  C_18
REMARK    3  A    between atoms: C_8  and  O_26
REMARK    4  A    between atoms: C_28  and  C_29
REMARK    5  A    between atoms: C_29  and  C_30
REMARK                            x       y       z     vdW  Elec       q    Type
REMARK                         _______ _______ _______ _____ _____    ______ ____
ROOT
ATOM      1  F   UNL     1      29.574  -2.750 -24.855  0.00  0.00    -0.204 F 
ATOM      2  O   UNL     1      34.955  -8.087 -23.856  0.00  0.00    -0.267 OA
ATOM      3  N   UNL     1      34.057  -6.056 -24.522  0.00  0.00    -0.295 N 
ATOM      4  C   UNL     1      32.917  -5.201 -24.614  0.00  0.00    +0.065 A 
ATOM      5  C   UNL     1      33.990  -7.326 -23.949  0.00  0.00    +0.267 A 
ATOM      6  C   UNL     1      31.683  -5.648 -24.113  0.00  0.00    +0.052 A 
ATOM      7  C   UNL     1      32.663  -7.784 -23.419  0.00  0.00    +0.123 A 
ATOM      8  C   UNL     1      31.582  -6.986 -23.504  0.00  0.00    +0.142 A 
ATOM      9  C   UNL     1      32.996  -3.920 -25.192  0.00  0.00    +0.020 C 
ATOM     10  C   UNL     1      30.560  -4.802 -24.204  0.00  0.00    +0.034 C 
ATOM     11  C   UNL     1      31.875  -3.095 -25.274  0.00  0.00    +0.031 C 
ATOM     12  C   UNL     1      30.656  -3.536 -24.780  0.00  0.00    +0.140 C 
ENDROOT
BRANCH   7  18
ATOM     13  S   UNL     1      31.663 -10.580 -20.881  0.00  0.00    +0.103 S 
ATOM     14  O   UNL     1      30.259 -10.946 -20.934  0.00  0.00    -0.146 OA
ATOM     15  O   UNL     1      32.353 -10.489 -19.607  0.00  0.00    -0.146 OA
ATOM     16  N   UNL     1      33.198 -10.183 -23.435  0.00  0.00    -0.295 N 
ATOM     17  N   UNL     1      31.876  -9.189 -21.696  0.00  0.00    -0.112 NA
ATOM     18  C   UNL     1      32.567  -9.124 -22.806  0.00  0.00    +0.161 C 
ATOM     19  C   UNL     1      33.180 -11.496 -22.956  0.00  0.00    +0.069 C 
ATOM     20  C   UNL     1      32.510 -11.836 -21.783  0.00  0.00    +0.143 C 
ATOM     21  C   UNL     1      33.842 -12.517 -23.651  0.00  0.00    +0.016 C 
ATOM     22  C   UNL     1      32.482 -13.142 -21.294  0.00  0.00    +0.022 C 
ATOM     23  C   UNL     1      33.825 -13.831 -23.176  0.00  0.00    +0.001 C 
ATOM     24  C   UNL     1      33.146 -14.143 -21.998  0.00  0.00    +0.001 C 
ATOM     25  H   UNL     1      33.690 -10.001 -24.268  0.00  0.00    +0.154 HD
ENDBRANCH   7  18
BRANCH   8  26
ATOM     26  O   UNL     1      30.318  -7.306 -23.056  0.00  0.00    -0.505 OA
ATOM     27  H   UNL     1      30.012  -6.974 -22.235  0.00  0.00    +0.292 HD
ENDBRANCH   8  26
BRANCH   3  28
ATOM     28  C   UNL     1      35.338  -5.585 -25.047  0.00  0.00    +0.109 C 
BRANCH  28  29
ATOM     29  C   UNL     1      35.692  -6.237 -26.378  0.00  0.00    +0.025 C 
BRANCH  29  30
ATOM     30  C   UNL     1      35.148  -5.486 -27.557  0.00  0.00    +0.002 C 
ATOM     31  C   UNL     1      35.121  -6.128 -28.917  0.00  0.00    +0.000 C 
ATOM     32  C   UNL     1      33.837  -5.890 -28.172  0.00  0.00    +0.000 C 
ENDBRANCH  29  30
ENDBRANCH  28  29
ENDBRANCH   3  28
TORSDOF 5
ENDMDL
MODEL 9
REMARK VINA RESULT:      -9.0      4.514      6.970
REMARK  Name = 135435181
REMARK  5 active torsions:
REMARK  status: ('A' for Active; 'I' for Inactive)
REMARK    1  A    between atoms: N_3  and  C_28
REMARK    2  A    between atoms: C_7  and  C_18
REMARK    3  A    between atoms: C_8  and  O_26
REMARK    4  A    between atoms: C_28  and  C_29
REMARK    5  A    between atoms: C_29  and  C_30
REMARK                            x       y       z     vdW  Elec       q    Type
REMARK                         _______ _______ _______ _____ _____    ______ ____
ROOT
ATOM      1  F   UNL     1      36.685  -4.848 -26.408  0.00  0.00    -0.204 F 
ATOM      2  O   UNL     1      30.436  -7.153 -22.654  0.00  0.00    -0.267 OA
ATOM      3  N   UNL     1      31.718  -5.827 -24.060  0.00  0.00    -0.295 N 
ATOM      4  C   UNL     1      32.984  -5.566 -24.666  0.00  0.00    +0.065 A 
ATOM      5  C   UNL     1      31.516  -6.901 -23.193  0.00  0.00    +0.267 A 
ATOM      6  C   UNL     1      34.067  -6.414 -24.384  0.00  0.00    +0.052 A 
ATOM      7  C   UNL     1      32.686  -7.796 -22.905  0.00  0.00    +0.123 A 
ATOM      8  C   UNL     1      33.884  -7.556 -23.471  0.00  0.00    +0.142 A 
ATOM      9  C   UNL     1      33.176  -4.481 -25.541  0.00  0.00    +0.020 C 
ATOM     10  C   UNL     1      35.315  -6.155 -24.984  0.00  0.00    +0.034 C 
ATOM     11  C   UNL     1      34.418  -4.238 -26.127  0.00  0.00    +0.031 C 
ATOM     12  C   UNL     1      35.488  -5.075 -25.849  0.00  0.00    +0.140 C 
ENDROOT
BRANCH   7  18
ATOM     13  S   UNL     1      31.922  -9.765 -19.619  0.00  0.00    +0.103 S 
ATOM     14  O   UNL     1      30.521  -9.743 -19.234  0.00  0.00    -0.146 OA
ATOM     15  O   UNL     1      32.963  -9.654 -18.613  0.00  0.00    -0.146 OA
ATOM     16  N   UNL     1      32.671 -10.219 -22.494  0.00  0.00    -0.295 N 
ATOM     17  N   UNL     1      32.171  -8.635 -20.762  0.00  0.00    -0.112 NA
ATOM     18  C   UNL     1      32.497  -8.941 -21.993  0.00  0.00    +0.161 C 
ATOM     19  C   UNL     1      32.520 -11.382 -21.734  0.00  0.00    +0.069 C 
ATOM     20  C   UNL     1      32.174 -11.332 -20.385  0.00  0.00    +0.143 C 
ATOM     21  C   UNL     1      32.712 -12.643 -22.313  0.00  0.00    +0.016 C 
ATOM     22  C   UNL     1      32.017 -12.484 -19.613  0.00  0.00    +0.022 C 
ATOM     23  C   UNL     1      32.559 -13.808 -21.555  0.00  0.00    +0.001 C 
ATOM     24  C   UNL     1      32.213 -13.728 -20.207  0.00  0.00    +0.001 C 
ATOM     25  H   UNL     1      32.919 -10.316 -23.442  0.00  0.00    +0.154 HD
ENDBRANCH   7  18
BRANCH   8  26
ATOM     26  O   UNL     1      35.023  -8.307 -23.273  0.00  0.00    -0.505 OA
ATOM     27  H   UNL     1      35.233  -8.626 -22.417  0.00  0.00    +0.292 HD
ENDBRANCH   8  26
BRANCH   3  28
ATOM     28  C   UNL     1      30.595  -4.938 -24.356  0.00  0.00    +0.109 C 
BRANCH  28  29
ATOM     29  C   UNL     1      30.888  -3.491 -23.980  0.00  0.00    +0.025 C 
BRANCH  29  30
ATOM     30  C   UNL     1      31.224  -3.324 -22.528  0.00  0.00    +0.002 C 
ATOM     31  C   UNL     1      30.503  -2.299 -21.697  0.00  0.00    +0.000 C 
ATOM     32  C   UNL     1      30.249  -3.762 -21.471  0.00  0.00    +0.000 C 
ENDBRANCH  29  30
ENDBRANCH  28  29
ENDBRANCH   3  28
TORSDOF 5
ENDMDL
