MODEL 1
REMARK VINA RESULT:     -12.3      0.000      0.000
REMARK  Name = 25174099
REMARK  5 active torsions:
REMARK  status: ('A' for Active; 'I' for Inactive)
REMARK    1  A    between atoms: C_5  and  C_33
REMARK    2  A    between atoms: C_14  and  C_18
REMARK    3  A    between atoms: N_17  and  C_20
REMARK    4  A    between atoms: C_20  and  C_24
REMARK    5  A    between atoms: C_33  and  C_36
REMARK                            x       y       z     vdW  Elec       q    Type
REMARK                         _______ _______ _______ _____ _____    ______ ____
ROOT
ATOM      1  S   UNL     1      37.230 -21.528 -16.933  0.00  0.00    -0.064 S 
ATOM      2  O   UNL     1      32.693 -22.606 -18.569  0.00  0.00    -0.274 OA
ATOM      3  N   UNL     1      36.204 -20.510 -19.187  0.00  0.00    -0.379 NA
ATOM      4  N   UNL     1      33.985 -21.147 -19.813  0.00  0.00    -0.255 N 
ATOM      5  C   UNL     1      33.972 -23.657 -15.905  0.00  0.00    +0.028 C 
ATOM      6  C   UNL     1      34.646 -24.623 -14.898  0.00  0.00    +0.005 C 
ATOM      7  C   UNL     1      35.003 -22.779 -16.573  0.00  0.00    -0.027 C 
ATOM      8  C   UNL     1      35.652 -23.907 -13.985  0.00  0.00    +0.006 C 
ATOM      9  C   UNL     1      36.784 -23.252 -14.787  0.00  0.00    +0.032 C 
ATOM     10  C   UNL     1      36.259 -22.587 -16.023  0.00  0.00    +0.002 C 
ATOM     11  C   UNL     1      34.868 -22.051 -17.801  0.00  0.00    +0.154 C 
ATOM     12  C   UNL     1      36.007 -21.316 -18.104  0.00  0.00    +0.152 C 
ATOM     13  C   UNL     1      33.740 -21.985 -18.726  0.00  0.00    +0.239 C 
ATOM     14  C   UNL     1      35.181 -20.466 -19.984  0.00  0.00    +0.240 C 
ATOM     15  H   UNL     1      33.278 -21.034 -20.489  0.00  0.00    +0.157 HD
ENDROOT
BRANCH  14  18
ATOM     16  O   UNL     1      34.864 -20.111 -22.256  0.00  0.00    -0.266 OA
ATOM     17  N   UNL     1      35.774 -18.371 -20.972  0.00  0.00    -0.294 N 
ATOM     18  C   UNL     1      35.255 -19.627 -21.202  0.00  0.00    +0.290 C 
ATOM     19  H   UNL     1      36.043 -18.137 -20.055  0.00  0.00    +0.150 HD
BRANCH  17  20
ATOM     20  C   UNL     1      35.938 -17.382 -22.012  0.00  0.00    +0.117 C 
BRANCH  20  24
ATOM     21  O   UNL     1      33.006 -12.681 -20.873  0.00  0.00    -0.464 OA
ATOM     22  O   UNL     1      32.983 -11.142 -24.143  0.00  0.00    -0.271 OA
ATOM     23  N   UNL     1      33.941 -13.134 -23.504  0.00  0.00    -0.279 N 
ATOM     24  C   UNL     1      35.151 -16.135 -21.730  0.00  0.00    -0.001 C 
ATOM     25  C   UNL     1      34.163 -14.068 -22.488  0.00  0.00    +0.085 C 
ATOM     26  C   UNL     1      34.901 -15.222 -22.755  0.00  0.00    +0.015 C 
ATOM     27  C   UNL     1      33.683 -13.821 -21.202  0.00  0.00    +0.153 C 
ATOM     28  C   UNL     1      34.675 -15.889 -20.442  0.00  0.00    +0.001 C 
ATOM     29  C   UNL     1      33.948 -14.728 -20.175  0.00  0.00    +0.038 C 
ATOM     30  C   UNL     1      32.415 -12.020 -21.975  0.00  0.00    +0.290 C 
ATOM     31  C   UNL     1      33.152 -12.025 -23.304  0.00  0.00    +0.271 C 
ATOM     32  H   UNL     1      34.359 -13.272 -24.384  0.00  0.00    +0.155 HD
ENDBRANCH  20  24
ENDBRANCH  17  20
ENDBRANCH  14  18
BRANCH   5  33
ATOM     33  C   UNL     1      32.895 -22.816 -15.211  0.00  0.00    +0.089 C 
BRANCH  33  36
ATOM     34  O   UNL     1      31.053 -24.323 -14.743  0.00  0.00    -0.275 OA
ATOM     35  N   UNL     1      30.827 -22.759 -16.413  0.00  0.00    -0.329 N 
ATOM     36  C   UNL     1      31.515 -23.396 -15.403  0.00  0.00    +0.220 C 
ATOM     37  H   UNL     1      29.912 -23.041 -16.640  0.00  0.00    +0.145 HD
ATOM     38  H   UNL     1      31.251 -22.021 -16.907  0.00  0.00    +0.145 HD
ENDBRANCH  33  36
ENDBRANCH   5  33
TORSDOF 5
ENDMDL
MODEL 2
REMARK VINA RESULT:     -11.9      2.127      3.153
REMARK  Name = 25174099
REMARK  5 active torsions:
REMARK  status: ('A' for Active; 'I' for Inactive)
REMARK    1  A    between atoms: C_5  and  C_33
REMARK    2  A    between atoms: C_14  and  C_18
REMARK    3  A    between atoms: N_17  and  C_20
REMARK    4  A    between atoms: C_20  and  C_24
REMARK    5  A    between atoms: C_33  and  C_36
REMARK                            x       y       z     vdW  Elec       q    Type
REMARK                         _______ _______ _______ _____ _____    ______ ____
ROOT
ATOM      1  S   UNL     1      35.474 -23.502 -14.976  0.00  0.00    -0.064 S 
ATOM      2  O   UNL     1      31.964 -22.375 -18.268  0.00  0.00    -0.274 OA
ATOM      3  N   UNL     1      35.982 -22.268 -17.297  0.00  0.00    -0.379 NA
ATOM      4  N   UNL     1      34.149 -21.802 -18.760  0.00  0.00    -0.255 N 
ATOM      5  C   UNL     1      31.486 -23.733 -15.481  0.00  0.00    +0.028 C 
ATOM      6  C   UNL     1      31.192 -24.834 -14.432  0.00  0.00    +0.005 C 
ATOM      7  C   UNL     1      32.973 -23.504 -15.611  0.00  0.00    -0.027 C 
ATOM      8  C   UNL     1      31.985 -24.631 -13.133  0.00  0.00    +0.006 C 
ATOM      9  C   UNL     1      33.499 -24.654 -13.379  0.00  0.00    +0.032 C 
ATOM     10  C   UNL     1      33.858 -23.902 -14.624  0.00  0.00    +0.002 C 
ATOM     11  C   UNL     1      33.671 -22.883 -16.700  0.00  0.00    +0.154 C 
ATOM     12  C   UNL     1      35.039 -22.808 -16.473  0.00  0.00    +0.152 C 
ATOM     13  C   UNL     1      33.150 -22.345 -17.954  0.00  0.00    +0.239 C 
ATOM     14  C   UNL     1      35.487 -21.791 -18.397  0.00  0.00    +0.240 C 
ATOM     15  H   UNL     1      33.893 -21.408 -19.625  0.00  0.00    +0.157 HD
ENDROOT
BRANCH  14  18
ATOM     16  O   UNL     1      37.316 -21.856 -19.825  0.00  0.00    -0.266 OA
ATOM     17  N   UNL     1      36.079 -19.868 -19.687  0.00  0.00    -0.294 N 
ATOM     18  C   UNL     1      36.400 -21.173 -19.386  0.00  0.00    +0.290 C 
ATOM     19  H   UNL     1      35.301 -19.462 -19.242  0.00  0.00    +0.150 HD
BRANCH  17  20
ATOM     20  C   UNL     1      36.830 -19.067 -20.628  0.00  0.00    +0.117 C 
BRANCH  20  24
ATOM     21  O   UNL     1      33.523 -17.192 -24.816  0.00  0.00    -0.464 OA
ATOM     22  O   UNL     1      33.576 -13.646 -24.124  0.00  0.00    -0.271 OA
ATOM     23  N   UNL     1      34.626 -15.344 -22.981  0.00  0.00    -0.279 N 
ATOM     24  C   UNL     1      35.965 -18.551 -21.741  0.00  0.00    -0.001 C 
ATOM     25  C   UNL     1      34.911 -16.709 -22.890  0.00  0.00    +0.085 C 
ATOM     26  C   UNL     1      35.711 -17.183 -21.849  0.00  0.00    +0.015 C 
ATOM     27  C   UNL     1      34.359 -17.596 -23.813  0.00  0.00    +0.153 C 
ATOM     28  C   UNL     1      35.410 -19.441 -22.662  0.00  0.00    +0.001 C 
ATOM     29  C   UNL     1      34.601 -18.965 -23.694  0.00  0.00    +0.038 C 
ATOM     30  C   UNL     1      33.638 -15.822 -25.149  0.00  0.00    +0.290 C 
ATOM     31  C   UNL     1      33.910 -14.825 -24.035  0.00  0.00    +0.271 C 
ATOM     32  H   UNL     1      34.945 -14.738 -22.274  0.00  0.00    +0.155 HD
ENDBRANCH  20  24
ENDBRANCH  17  20
ENDBRANCH  14  18
BRANCH   5  33
ATOM     33  C   UNL     1      30.755 -22.434 -15.122  0.00  0.00    +0.089 C 
BRANCH  33  36
ATOM     34  O   UNL     1      28.376 -22.059 -14.839  0.00  0.00    -0.275 OA
ATOM     35  N   UNL     1      29.137 -23.027 -16.781  0.00  0.00    -0.329 N 
ATOM     36  C   UNL     1      29.303 -22.472 -15.531  0.00  0.00    +0.220 C 
ATOM     37  H   UNL     1      28.235 -23.110 -17.167  0.00  0.00    +0.145 HD
ATOM     38  H   UNL     1      29.920 -23.340 -17.289  0.00  0.00    +0.145 HD
ENDBRANCH  33  36
ENDBRANCH   5  33
TORSDOF 5
ENDMDL
MODEL 3
REMARK VINA RESULT:     -11.8      2.564     10.316
REMARK  Name = 25174099
REMARK  5 active torsions:
REMARK  status: ('A' for Active; 'I' for Inactive)
REMARK    1  A    between atoms: C_5  and  C_33
REMARK    2  A    between atoms: C_14  and  C_18
REMARK    3  A    between atoms: N_17  and  C_20
REMARK    4  A    between atoms: C_20  and  C_24
REMARK    5  A    between atoms: C_33  and  C_36
REMARK                            x       y       z     vdW  Elec       q    Type
REMARK                         _______ _______ _______ _____ _____    ______ ____
ROOT
ATOM      1  S   UNL     1      34.557 -16.423 -24.537  0.00  0.00    -0.064 S 
ATOM      2  O   UNL     1      34.689 -14.802 -19.870  0.00  0.00    -0.274 OA
ATOM      3  N   UNL     1      35.591 -17.846 -22.519  0.00  0.00    -0.379 NA
ATOM      4  N   UNL     1      35.560 -16.894 -20.325  0.00  0.00    -0.255 N 
ATOM      5  C   UNL     1      33.426 -13.273 -22.300  0.00  0.00    +0.028 C 
ATOM      6  C   UNL     1      33.264 -12.237 -23.440  0.00  0.00    +0.005 C 
ATOM      7  C   UNL     1      33.977 -14.573 -22.835  0.00  0.00    -0.027 C 
ATOM      8  C   UNL     1      32.576 -12.831 -24.677  0.00  0.00    +0.006 C 
ATOM      9  C   UNL     1      33.371 -14.005 -25.262  0.00  0.00    +0.032 C 
ATOM     10  C   UNL     1      33.906 -14.892 -24.180  0.00  0.00    +0.002 C 
ATOM     11  C   UNL     1      34.623 -15.619 -22.096  0.00  0.00    +0.154 C 
ATOM     12  C   UNL     1      34.976 -16.692 -22.905  0.00  0.00    +0.152 C 
ATOM     13  C   UNL     1      34.938 -15.697 -20.673  0.00  0.00    +0.239 C 
ATOM     14  C   UNL     1      35.849 -17.889 -21.248  0.00  0.00    +0.240 C 
ATOM     15  H   UNL     1      35.805 -17.042 -19.383  0.00  0.00    +0.157 HD
ENDROOT
BRANCH  14  18
ATOM     16  O   UNL     1      37.739 -19.098 -20.654  0.00  0.00    -0.266 OA
ATOM     17  N   UNL     1      35.634 -20.061 -20.274  0.00  0.00    -0.294 N 
ATOM     18  C   UNL     1      36.515 -19.087 -20.690  0.00  0.00    +0.290 C 
ATOM     19  H   UNL     1      34.669 -19.893 -20.374  0.00  0.00    +0.150 HD
BRANCH  17  20
ATOM     20  C   UNL     1      36.059 -21.315 -19.695  0.00  0.00    +0.117 C 
BRANCH  20  24
ATOM     21  O   UNL     1      32.273 -23.302 -15.991  0.00  0.00    -0.464 OA
ATOM     22  O   UNL     1      34.490 -24.472 -13.388  0.00  0.00    -0.271 OA
ATOM     23  N   UNL     1      35.031 -23.473 -15.388  0.00  0.00    -0.279 N 
ATOM     24  C   UNL     1      35.067 -21.836 -18.695  0.00  0.00    -0.001 C 
ATOM     25  C   UNL     1      34.587 -22.875 -16.571  0.00  0.00    +0.085 C 
ATOM     26  C   UNL     1      35.514 -22.399 -17.500  0.00  0.00    +0.015 C 
ATOM     27  C   UNL     1      33.221 -22.798 -16.838  0.00  0.00    +0.153 C 
ATOM     28  C   UNL     1      33.700 -21.761 -18.966  0.00  0.00    +0.001 C 
ATOM     29  C   UNL     1      32.776 -22.249 -18.041  0.00  0.00    +0.038 C 
ATOM     30  C   UNL     1      32.714 -23.456 -14.656  0.00  0.00    +0.290 C 
ATOM     31  C   UNL     1      34.152 -23.881 -14.412  0.00  0.00    +0.271 C 
ATOM     32  H   UNL     1      35.997 -23.604 -15.249  0.00  0.00    +0.155 HD
ENDBRANCH  20  24
ENDBRANCH  17  20
ENDBRANCH  14  18
BRANCH   5  33
ATOM     33  C   UNL     1      32.093 -13.493 -21.575  0.00  0.00    +0.089 C 
BRANCH  33  36
ATOM     34  O   UNL     1      32.306 -12.031 -19.652  0.00  0.00    -0.275 OA
ATOM     35  N   UNL     1      30.660 -11.614 -21.203  0.00  0.00    -0.329 N 
ATOM     36  C   UNL     1      31.727 -12.323 -20.695  0.00  0.00    +0.220 C 
ATOM     37  H   UNL     1      30.321 -10.824 -20.723  0.00  0.00    +0.145 HD
ATOM     38  H   UNL     1      30.238 -11.897 -22.045  0.00  0.00    +0.145 HD
ENDBRANCH  33  36
ENDBRANCH   5  33
TORSDOF 5
ENDMDL
MODEL 4
REMARK VINA RESULT:     -11.7      3.369     11.368
REMARK  Name = 25174099
REMARK  5 active torsions:
REMARK  status: ('A' for Active; 'I' for Inactive)
REMARK    1  A    between atoms: C_5  and  C_33
REMARK    2  A    between atoms: C_14  and  C_18
REMARK    3  A    between atoms: N_17  and  C_20
REMARK    4  A    between atoms: C_20  and  C_24
REMARK    5  A    between atoms: C_33  and  C_36
REMARK                            x       y       z     vdW  Elec       q    Type
REMARK                         _______ _______ _______ _____ _____    ______ ____
ROOT
ATOM      1  S   UNL     1      32.369 -12.704 -20.072  0.00  0.00    -0.064 S 
ATOM      2  O   UNL     1      33.164 -10.838 -24.578  0.00  0.00    -0.274 OA
ATOM      3  N   UNL     1      33.261 -14.167 -22.128  0.00  0.00    -0.379 NA
ATOM      4  N   UNL     1      33.590 -13.084 -24.235  0.00  0.00    -0.255 N 
ATOM      5  C   UNL     1      32.211  -9.212 -22.071  0.00  0.00    +0.028 C 
ATOM      6  C   UNL     1      31.272  -8.446 -21.106  0.00  0.00    +0.005 C 
ATOM      7  C   UNL     1      32.368 -10.649 -21.632  0.00  0.00    -0.027 C 
ATOM      8  C   UNL     1      31.620  -8.692 -19.632  0.00  0.00    +0.006 C 
ATOM      9  C   UNL     1      31.512 -10.177 -19.260  0.00  0.00    +0.032 C 
ATOM     10  C   UNL     1      32.076 -11.049 -20.339  0.00  0.00    +0.002 C 
ATOM     11  C   UNL     1      32.812 -11.761 -22.421  0.00  0.00    +0.154 C 
ATOM     12  C   UNL     1      32.870 -12.938 -21.686  0.00  0.00    +0.152 C 
ATOM     13  C   UNL     1      33.195 -11.810 -23.830  0.00  0.00    +0.239 C 
ATOM     14  C   UNL     1      33.602 -14.176 -23.380  0.00  0.00    +0.240 C 
ATOM     15  H   UNL     1      33.873 -13.214 -25.169  0.00  0.00    +0.157 HD
ENDROOT
BRANCH  14  18
ATOM     16  O   UNL     1      33.853 -15.605 -25.191  0.00  0.00    -0.266 OA
ATOM     17  N   UNL     1      34.646 -16.308 -23.099  0.00  0.00    -0.294 N 
ATOM     18  C   UNL     1      34.049 -15.447 -23.993  0.00  0.00    +0.290 C 
ATOM     19  H   UNL     1      34.728 -16.025 -22.159  0.00  0.00    +0.150 HD
BRANCH  17  20
ATOM     20  C   UNL     1      35.161 -17.605 -23.474  0.00  0.00    +0.117 C 
BRANCH  20  24
ATOM     21  O   UNL     1      36.147 -20.833 -18.935  0.00  0.00    -0.464 OA
ATOM     22  O   UNL     1      32.886 -22.330 -18.504  0.00  0.00    -0.271 OA
ATOM     23  N   UNL     1      33.570 -20.823 -20.101  0.00  0.00    -0.279 N 
ATOM     24  C   UNL     1      35.409 -18.477 -22.277  0.00  0.00    -0.001 C 
ATOM     25  C   UNL     1      34.613 -20.070 -20.648  0.00  0.00    +0.085 C 
ATOM     26  C   UNL     1      34.374 -19.255 -21.756  0.00  0.00    +0.015 C 
ATOM     27  C   UNL     1      35.874 -20.100 -20.056  0.00  0.00    +0.153 C 
ATOM     28  C   UNL     1      36.671 -18.504 -21.684  0.00  0.00    +0.001 C 
ATOM     29  C   UNL     1      36.903 -19.309 -20.569  0.00  0.00    +0.038 C 
ATOM     30  C   UNL     1      35.245 -21.899 -18.708  0.00  0.00    +0.290 C 
ATOM     31  C   UNL     1      33.781 -21.698 -19.061  0.00  0.00    +0.271 C 
ATOM     32  H   UNL     1      32.662 -20.726 -20.470  0.00  0.00    +0.155 HD
ENDBRANCH  20  24
ENDBRANCH  17  20
ENDBRANCH  14  18
BRANCH   5  33
ATOM     33  C   UNL     1      33.571  -8.512 -22.172  0.00  0.00    +0.089 C 
BRANCH  33  36
ATOM     34  O   UNL     1      34.298  -6.488 -23.293  0.00  0.00    -0.275 OA
ATOM     35  N   UNL     1      32.757  -7.850 -24.323  0.00  0.00    -0.329 N 
ATOM     36  C   UNL     1      33.603  -7.501 -23.292  0.00  0.00    +0.220 C 
ATOM     37  H   UNL     1      32.684  -7.273 -25.117  0.00  0.00    +0.145 HD
ATOM     38  H   UNL     1      32.226  -8.677 -24.264  0.00  0.00    +0.145 HD
ENDBRANCH  33  36
ENDBRANCH   5  33
TORSDOF 5
ENDMDL
MODEL 5
REMARK VINA RESULT:     -11.3      1.107      1.711
REMARK  Name = 25174099
REMARK  5 active torsions:
REMARK  status: ('A' for Active; 'I' for Inactive)
REMARK    1  A    between atoms: C_5  and  C_33
REMARK    2  A    between atoms: C_14  and  C_18
REMARK    3  A    between atoms: N_17  and  C_20
REMARK    4  A    between atoms: C_20  and  C_24
REMARK    5  A    between atoms: C_33  and  C_36
REMARK                            x       y       z     vdW  Elec       q    Type
REMARK                         _______ _______ _______ _____ _____    ______ ____
ROOT
ATOM      1  S   UNL     1      37.133 -21.574 -16.716  0.00  0.00    -0.064 S 
ATOM      2  O   UNL     1      32.647 -22.693 -18.461  0.00  0.00    -0.274 OA
ATOM      3  N   UNL     1      36.189 -20.639 -19.040  0.00  0.00    -0.379 NA
ATOM      4  N   UNL     1      33.989 -21.290 -19.716  0.00  0.00    -0.255 N 
ATOM      5  C   UNL     1      33.829 -23.647 -15.717  0.00  0.00    +0.028 C 
ATOM      6  C   UNL     1      34.463 -24.576 -14.652  0.00  0.00    +0.005 C 
ATOM      7  C   UNL     1      34.887 -22.800 -16.383  0.00  0.00    -0.027 C 
ATOM      8  C   UNL     1      35.442 -23.830 -13.734  0.00  0.00    +0.006 C 
ATOM      9  C   UNL     1      36.604 -23.211 -14.521  0.00  0.00    +0.032 C 
ATOM     10  C   UNL     1      36.125 -22.593 -15.798  0.00  0.00    +0.002 C 
ATOM     11  C   UNL     1      34.798 -22.119 -17.642  0.00  0.00    +0.154 C 
ATOM     12  C   UNL     1      35.951 -21.402 -17.935  0.00  0.00    +0.152 C 
ATOM     13  C   UNL     1      33.702 -22.084 -18.607  0.00  0.00    +0.239 C 
ATOM     14  C   UNL     1      35.194 -20.621 -19.872  0.00  0.00    +0.240 C 
ATOM     15  H   UNL     1      33.305 -21.199 -20.419  0.00  0.00    +0.157 HD
ENDROOT
BRANCH  14  18
ATOM     16  O   UNL     1      34.519 -20.057 -22.021  0.00  0.00    -0.266 OA
ATOM     17  N   UNL     1      36.342 -18.913 -21.089  0.00  0.00    -0.294 N 
ATOM     18  C   UNL     1      35.314 -19.830 -21.118  0.00  0.00    +0.290 C 
ATOM     19  H   UNL     1      36.895 -18.855 -20.276  0.00  0.00    +0.150 HD
BRANCH  17  20
ATOM     20  C   UNL     1      36.646 -18.031 -22.192  0.00  0.00    +0.117 C 
BRANCH  20  24
ATOM     21  O   UNL     1      32.842 -13.876 -22.709  0.00  0.00    -0.464 OA
ATOM     22  O   UNL     1      32.353 -13.032 -19.230  0.00  0.00    -0.271 OA
ATOM     23  N   UNL     1      33.730 -14.637 -20.133  0.00  0.00    -0.279 N 
ATOM     24  C   UNL     1      35.646 -16.918 -22.312  0.00  0.00    -0.001 C 
ATOM     25  C   UNL     1      34.241 -15.248 -21.282  0.00  0.00    +0.085 C 
ATOM     26  C   UNL     1      35.165 -16.287 -21.164  0.00  0.00    +0.015 C 
ATOM     27  C   UNL     1      33.790 -14.847 -22.539  0.00  0.00    +0.153 C 
ATOM     28  C   UNL     1      35.193 -16.520 -23.571  0.00  0.00    +0.001 C 
ATOM     29  C   UNL     1      34.260 -15.490 -23.685  0.00  0.00    +0.038 C 
ATOM     30  C   UNL     1      32.712 -12.996 -21.609  0.00  0.00    +0.290 C 
ATOM     31  C   UNL     1      32.880 -13.558 -20.207  0.00  0.00    +0.271 C 
ATOM     32  H   UNL     1      33.985 -14.987 -19.249  0.00  0.00    +0.155 HD
ENDBRANCH  20  24
ENDBRANCH  17  20
ENDBRANCH  14  18
BRANCH   5  33
ATOM     33  C   UNL     1      32.734 -22.774 -15.093  0.00  0.00    +0.089 C 
BRANCH  33  36
ATOM     34  O   UNL     1      30.864 -24.262 -14.674  0.00  0.00    -0.275 OA
ATOM     35  N   UNL     1      30.708 -22.709 -16.364  0.00  0.00    -0.329 N 
ATOM     36  C   UNL     1      31.356 -23.344 -15.326  0.00  0.00    +0.220 C 
ATOM     37  H   UNL     1      29.799 -22.986 -16.619  0.00  0.00    +0.145 HD
ATOM     38  H   UNL     1      31.155 -21.979 -16.849  0.00  0.00    +0.145 HD
ENDBRANCH  33  36
ENDBRANCH   5  33
TORSDOF 5
ENDMDL
MODEL 6
REMARK VINA RESULT:     -11.0      2.744     11.131
REMARK  Name = 25174099
REMARK  5 active torsions:
REMARK  status: ('A' for Active; 'I' for Inactive)
REMARK    1  A    between atoms: C_5  and  C_33
REMARK    2  A    between atoms: C_14  and  C_18
REMARK    3  A    between atoms: N_17  and  C_20
REMARK    4  A    between atoms: C_20  and  C_24
REMARK    5  A    between atoms: C_33  and  C_36
REMARK                            x       y       z     vdW  Elec       q    Type
REMARK                         _______ _______ _______ _____ _____    ______ ____
ROOT
ATOM      1  S   UNL     1      32.705 -13.291 -19.875  0.00  0.00    -0.064 S 
ATOM      2  O   UNL     1      33.637 -12.926 -24.715  0.00  0.00    -0.274 OA
ATOM      3  N   UNL     1      33.946 -15.204 -21.277  0.00  0.00    -0.379 NA
ATOM      4  N   UNL     1      34.313 -14.843 -23.613  0.00  0.00    -0.255 N 
ATOM      5  C   UNL     1      32.276 -10.723 -22.946  0.00  0.00    +0.028 C 
ATOM      6  C   UNL     1      31.168  -9.828 -22.335  0.00  0.00    +0.005 C 
ATOM      7  C   UNL     1      32.576 -11.893 -22.040  0.00  0.00    -0.027 C 
ATOM      8  C   UNL     1      31.418  -9.518 -20.853  0.00  0.00    +0.006 C 
ATOM      9  C   UNL     1      31.468 -10.794 -20.003  0.00  0.00    +0.032 C 
ATOM     10  C   UNL     1      32.228 -11.881 -20.700  0.00  0.00    +0.002 C 
ATOM     11  C   UNL     1      33.223 -13.125 -22.387  0.00  0.00    +0.154 C 
ATOM     12  C   UNL     1      33.367 -13.969 -21.294  0.00  0.00    +0.152 C 
ATOM     13  C   UNL     1      33.727 -13.580 -23.680  0.00  0.00    +0.239 C 
ATOM     14  C   UNL     1      34.392 -15.575 -22.438  0.00  0.00    +0.240 C 
ATOM     15  H   UNL     1      34.689 -15.232 -24.436  0.00  0.00    +0.157 HD
ENDROOT
BRANCH  14  18
ATOM     16  O   UNL     1      35.201 -17.354 -23.691  0.00  0.00    -0.266 OA
ATOM     17  N   UNL     1      35.406 -17.451 -21.357  0.00  0.00    -0.294 N 
ATOM     18  C   UNL     1      35.047 -16.897 -22.566  0.00  0.00    +0.290 C 
ATOM     19  H   UNL     1      35.209 -16.947 -20.534  0.00  0.00    +0.150 HD
BRANCH  17  20
ATOM     20  C   UNL     1      36.060 -18.734 -21.239  0.00  0.00    +0.117 C 
BRANCH  20  24
ATOM     21  O   UNL     1      32.861 -22.476 -18.455  0.00  0.00    -0.464 OA
ATOM     22  O   UNL     1      35.302 -23.795 -16.139  0.00  0.00    -0.271 OA
ATOM     23  N   UNL     1      35.585 -22.182 -17.754  0.00  0.00    -0.279 N 
ATOM     24  C   UNL     1      35.222 -19.723 -20.481  0.00  0.00    -0.001 C 
ATOM     25  C   UNL     1      35.008 -21.394 -18.754  0.00  0.00    +0.085 C 
ATOM     26  C   UNL     1      35.794 -20.482 -19.459  0.00  0.00    +0.015 C 
ATOM     27  C   UNL     1      33.660 -21.556 -19.073  0.00  0.00    +0.153 C 
ATOM     28  C   UNL     1      33.875 -19.886 -20.804  0.00  0.00    +0.001 C 
ATOM     29  C   UNL     1      33.095 -20.808 -20.105  0.00  0.00    +0.038 C 
ATOM     30  C   UNL     1      33.332 -22.894 -17.188  0.00  0.00    +0.290 C 
ATOM     31  C   UNL     1      34.831 -23.035 -16.982  0.00  0.00    +0.271 C 
ATOM     32  H   UNL     1      36.556 -22.126 -17.598  0.00  0.00    +0.155 HD
ENDBRANCH  20  24
ENDBRANCH  17  20
ENDBRANCH  14  18
BRANCH   5  33
ATOM     33  C   UNL     1      33.539  -9.903 -23.229  0.00  0.00    +0.089 C 
BRANCH  33  36
ATOM     34  O   UNL     1      33.545  -7.568 -22.570  0.00  0.00    -0.275 OA
ATOM     35  N   UNL     1      32.567  -8.170 -24.562  0.00  0.00    -0.329 N 
ATOM     36  C   UNL     1      33.236  -8.433 -23.386  0.00  0.00    +0.220 C 
ATOM     37  H   UNL     1      32.309  -7.247 -24.787  0.00  0.00    +0.145 HD
ATOM     38  H   UNL     1      32.347  -8.906 -25.178  0.00  0.00    +0.145 HD
ENDBRANCH  33  36
ENDBRANCH   5  33
TORSDOF 5
ENDMDL
MODEL 7
REMARK VINA RESULT:     -10.6      3.781     10.919
REMARK  Name = 25174099
REMARK  5 active torsions:
REMARK  status: ('A' for Active; 'I' for Inactive)
REMARK    1  A    between atoms: C_5  and  C_33
REMARK    2  A    between atoms: C_14  and  C_18
REMARK    3  A    between atoms: N_17  and  C_20
REMARK    4  A    between atoms: C_20  and  C_24
REMARK    5  A    between atoms: C_33  and  C_36
REMARK                            x       y       z     vdW  Elec       q    Type
REMARK                         _______ _______ _______ _____ _____    ______ ____
ROOT
ATOM      1  S   UNL     1      32.855 -10.614 -24.793  0.00  0.00    -0.064 S 
ATOM      2  O   UNL     1      33.072 -12.931 -20.434  0.00  0.00    -0.274 OA
ATOM      3  N   UNL     1      33.464 -13.209 -24.541  0.00  0.00    -0.379 NA
ATOM      4  N   UNL     1      33.514 -14.155 -22.345  0.00  0.00    -0.255 N 
ATOM      5  C   UNL     1      32.283  -9.927 -20.868  0.00  0.00    +0.028 C 
ATOM      6  C   UNL     1      32.400  -8.382 -20.893  0.00  0.00    +0.005 C 
ATOM      7  C   UNL     1      32.582 -10.506 -22.230  0.00  0.00    -0.027 C 
ATOM      8  C   UNL     1      31.671  -7.760 -22.092  0.00  0.00    +0.006 C 
ATOM      9  C   UNL     1      32.236  -8.263 -23.427  0.00  0.00    +0.032 C 
ATOM     10  C   UNL     1      32.517  -9.733 -23.377  0.00  0.00    +0.002 C 
ATOM     11  C   UNL     1      32.956 -11.854 -22.545  0.00  0.00    +0.154 C 
ATOM     12  C   UNL     1      33.123 -12.049 -23.910  0.00  0.00    +0.152 C 
ATOM     13  C   UNL     1      33.172 -12.993 -21.656  0.00  0.00    +0.239 C 
ATOM     14  C   UNL     1      33.639 -14.202 -23.725  0.00  0.00    +0.240 C 
ATOM     15  H   UNL     1      33.673 -14.978 -21.829  0.00  0.00    +0.157 HD
ENDROOT
BRANCH  14  18
ATOM     16  O   UNL     1      33.760 -15.749 -25.452  0.00  0.00    -0.266 OA
ATOM     17  N   UNL     1      34.616 -16.352 -23.353  0.00  0.00    -0.294 N 
ATOM     18  C   UNL     1      34.013 -15.525 -24.275  0.00  0.00    +0.290 C 
ATOM     19  H   UNL     1      34.748 -16.015 -22.438  0.00  0.00    +0.150 HD
BRANCH  17  20
ATOM     20  C   UNL     1      35.066 -17.689 -23.666  0.00  0.00    +0.117 C 
BRANCH  20  24
ATOM     21  O   UNL     1      36.071 -20.682 -18.973  0.00  0.00    -0.464 OA
ATOM     22  O   UNL     1      32.871 -22.311 -18.565  0.00  0.00    -0.271 OA
ATOM     23  N   UNL     1      33.530 -20.839 -20.206  0.00  0.00    -0.279 N 
ATOM     24  C   UNL     1      35.320 -18.500 -22.428  0.00  0.00    -0.001 C 
ATOM     25  C   UNL     1      34.552 -20.060 -20.756  0.00  0.00    +0.085 C 
ATOM     26  C   UNL     1      34.308 -19.304 -21.903  0.00  0.00    +0.015 C 
ATOM     27  C   UNL     1      35.797 -20.008 -20.130  0.00  0.00    +0.153 C 
ATOM     28  C   UNL     1      36.565 -18.444 -21.802  0.00  0.00    +0.001 C 
ATOM     29  C   UNL     1      36.802 -19.192 -20.648  0.00  0.00    +0.038 C 
ATOM     30  C   UNL     1      35.212 -21.779 -18.725  0.00  0.00    +0.290 C 
ATOM     31  C   UNL     1      33.751 -21.661 -19.124  0.00  0.00    +0.271 C 
ATOM     32  H   UNL     1      32.629 -20.800 -20.601  0.00  0.00    +0.155 HD
ENDBRANCH  20  24
ENDBRANCH  17  20
ENDBRANCH  14  18
BRANCH   5  33
ATOM     33  C   UNL     1      30.897 -10.357 -20.375  0.00  0.00    +0.089 C 
BRANCH  33  36
ATOM     34  O   UNL     1      29.816  -9.968 -18.238  0.00  0.00    -0.275 OA
ATOM     35  N   UNL     1      31.962 -10.797 -18.278  0.00  0.00    -0.329 N 
ATOM     36  C   UNL     1      30.803 -10.341 -18.869  0.00  0.00    +0.220 C 
ATOM     37  H   UNL     1      32.031 -10.837 -17.297  0.00  0.00    +0.145 HD
ATOM     38  H   UNL     1      32.719 -11.082 -18.837  0.00  0.00    +0.145 HD
ENDBRANCH  33  36
ENDBRANCH   5  33
TORSDOF 5
ENDMDL
MODEL 8
REMARK VINA RESULT:     -10.5      7.917     15.150
REMARK  Name = 25174099
REMARK  5 active torsions:
REMARK  status: ('A' for Active; 'I' for Inactive)
REMARK    1  A    between atoms: C_5  and  C_33
REMARK    2  A    between atoms: C_14  and  C_18
REMARK    3  A    between atoms: N_17  and  C_20
REMARK    4  A    between atoms: C_20  and  C_24
REMARK    5  A    between atoms: C_33  and  C_36
REMARK                            x       y       z     vdW  Elec       q    Type
REMARK                         _______ _______ _______ _____ _____    ______ ____
ROOT
ATOM      1  S   UNL     1      34.314  -6.645 -24.405  0.00  0.00    -0.064 S 
ATOM      2  O   UNL     1      30.708  -4.613 -21.705  0.00  0.00    -0.274 OA
ATOM      3  N   UNL     1      33.202  -7.858 -22.293  0.00  0.00    -0.379 NA
ATOM      4  N   UNL     1      31.464  -6.716 -21.113  0.00  0.00    -0.255 N 
ATOM      5  C   UNL     1      32.026  -3.337 -24.249  0.00  0.00    +0.028 C 
ATOM      6  C   UNL     1      32.914  -2.410 -25.116  0.00  0.00    +0.005 C 
ATOM      7  C   UNL     1      32.706  -4.665 -24.019  0.00  0.00    -0.027 C 
ATOM      8  C   UNL     1      33.480  -3.129 -26.349  0.00  0.00    +0.006 C 
ATOM      9  C   UNL     1      34.350  -4.331 -25.960  0.00  0.00    +0.032 C 
ATOM     10  C   UNL     1      33.735  -5.104 -24.835  0.00  0.00    +0.002 C 
ATOM     11  C   UNL     1      32.424  -5.626 -22.992  0.00  0.00    +0.154 C 
ATOM     12  C   UNL     1      33.223  -6.757 -23.098  0.00  0.00    +0.152 C 
ATOM     13  C   UNL     1      31.451  -5.569 -21.905  0.00  0.00    +0.239 C 
ATOM     14  C   UNL     1      32.322  -7.781 -21.343  0.00  0.00    +0.240 C 
ATOM     15  H   UNL     1      30.836  -6.773 -20.357  0.00  0.00    +0.157 HD
ENDROOT
BRANCH  14  18
ATOM     16  O   UNL     1      32.450  -8.699 -19.216  0.00  0.00    -0.266 OA
ATOM     17  N   UNL     1      31.777 -10.081 -20.987  0.00  0.00    -0.294 N 
ATOM     18  C   UNL     1      32.190  -8.909 -20.393  0.00  0.00    +0.290 C 
ATOM     19  H   UNL     1      31.608 -10.080 -21.957  0.00  0.00    +0.150 HD
BRANCH  17  20
ATOM     20  C   UNL     1      31.579 -11.311 -20.255  0.00  0.00    +0.117 C 
BRANCH  20  24
ATOM     21  O   UNL     1      34.422 -15.665 -22.479  0.00  0.00    -0.464 OA
ATOM     22  O   UNL     1      33.403 -15.386 -25.935  0.00  0.00    -0.271 OA
ATOM     23  N   UNL     1      32.794 -14.067 -24.152  0.00  0.00    -0.279 N 
ATOM     24  C   UNL     1      32.336 -12.455 -20.864  0.00  0.00    -0.001 C 
ATOM     25  C   UNL     1      32.934 -13.778 -22.791  0.00  0.00    +0.085 C 
ATOM     26  C   UNL     1      32.222 -12.718 -22.229  0.00  0.00    +0.015 C 
ATOM     27  C   UNL     1      33.750 -14.579 -21.993  0.00  0.00    +0.153 C 
ATOM     28  C   UNL     1      33.149 -13.257 -20.062  0.00  0.00    +0.001 C 
ATOM     29  C   UNL     1      33.850 -14.325 -20.625  0.00  0.00    +0.038 C 
ATOM     30  C   UNL     1      34.627 -15.639 -23.879  0.00  0.00    +0.290 C 
ATOM     31  C   UNL     1      33.539 -15.051 -24.760  0.00  0.00    +0.271 C 
ATOM     32  H   UNL     1      32.148 -13.553 -24.688  0.00  0.00    +0.155 HD
ENDBRANCH  20  24
ENDBRANCH  17  20
ENDBRANCH  14  18
BRANCH   5  33
ATOM     33  C   UNL     1      30.648  -3.524 -24.894  0.00  0.00    +0.089 C 
BRANCH  33  36
ATOM     34  O   UNL     1      28.742  -2.039 -25.110  0.00  0.00    -0.275 OA
ATOM     35  N   UNL     1      29.904  -2.094 -23.126  0.00  0.00    -0.329 N 
ATOM     36  C   UNL     1      29.658  -2.486 -24.425  0.00  0.00    +0.220 C 
ATOM     37  H   UNL     1      29.329  -1.420 -22.698  0.00  0.00    +0.145 HD
ATOM     38  H   UNL     1      30.655  -2.489 -22.627  0.00  0.00    +0.145 HD
ENDBRANCH  33  36
ENDBRANCH   5  33
TORSDOF 5
ENDMDL
MODEL 9
REMARK VINA RESULT:     -10.4      3.353     10.545
REMARK  Name = 25174099
REMARK  5 active torsions:
REMARK  status: ('A' for Active; 'I' for Inactive)
REMARK    1  A    between atoms: C_5  and  C_33
REMARK    2  A    between atoms: C_14  and  C_18
REMARK    3  A    between atoms: N_17  and  C_20
REMARK    4  A    between atoms: C_20  and  C_24
REMARK    5  A    between atoms: C_33  and  C_36
REMARK                            x       y       z     vdW  Elec       q    Type
REMARK                         _______ _______ _______ _____ _____    ______ ____
ROOT
ATOM      1  S   UNL     1      37.047 -20.650 -19.355  0.00  0.00    -0.064 S 
ATOM      2  O   UNL     1      32.262 -20.454 -20.574  0.00  0.00    -0.274 OA
ATOM      3  N   UNL     1      35.175 -22.174 -18.197  0.00  0.00    -0.379 NA
ATOM      4  N   UNL     1      32.909 -21.940 -18.926  0.00  0.00    -0.255 N 
ATOM      5  C   UNL     1      34.558 -18.792 -21.916  0.00  0.00    +0.028 C 
ATOM      6  C   UNL     1      35.462 -17.585 -22.270  0.00  0.00    +0.005 C 
ATOM      7  C   UNL     1      35.197 -19.640 -20.843  0.00  0.00    -0.027 C 
ATOM      8  C   UNL     1      36.927 -17.995 -22.483  0.00  0.00    +0.006 C 
ATOM      9  C   UNL     1      37.527 -18.638 -21.226  0.00  0.00    +0.032 C 
ATOM     10  C   UNL     1      36.553 -19.573 -20.577  0.00  0.00    +0.002 C 
ATOM     11  C   UNL     1      34.554 -20.588 -19.979  0.00  0.00    +0.154 C 
ATOM     12  C   UNL     1      35.454 -21.218 -19.129  0.00  0.00    +0.152 C 
ATOM     13  C   UNL     1      33.145 -20.958 -19.887  0.00  0.00    +0.239 C 
ATOM     14  C   UNL     1      33.917 -22.487 -18.146  0.00  0.00    +0.240 C 
ATOM     15  H   UNL     1      31.987 -22.260 -18.795  0.00  0.00    +0.157 HD
ENDROOT
BRANCH  14  18
ATOM     16  O   UNL     1      33.231 -24.637 -17.603  0.00  0.00    -0.266 OA
ATOM     17  N   UNL     1      33.388 -23.050 -15.883  0.00  0.00    -0.294 N 
ATOM     18  C   UNL     1      33.472 -23.515 -17.177  0.00  0.00    +0.290 C 
ATOM     19  H   UNL     1      33.621 -22.110 -15.708  0.00  0.00    +0.150 HD
BRANCH  17  20
ATOM     20  C   UNL     1      32.977 -23.877 -14.772  0.00  0.00    +0.117 C 
BRANCH  20  24
ATOM     21  O   UNL     1      37.333 -25.619 -11.612  0.00  0.00    -0.464 OA
ATOM     22  O   UNL     1      39.541 -26.841 -14.199  0.00  0.00    -0.271 OA
ATOM     23  N   UNL     1      37.452 -25.905 -14.424  0.00  0.00    -0.279 N 
ATOM     24  C   UNL     1      34.147 -24.333 -13.949  0.00  0.00    -0.001 C 
ATOM     25  C   UNL     1      36.349 -25.310 -13.805  0.00  0.00    +0.085 C 
ATOM     26  C   UNL     1      35.261 -24.894 -14.574  0.00  0.00    +0.015 C 
ATOM     27  C   UNL     1      36.322 -25.175 -12.417  0.00  0.00    +0.153 C 
ATOM     28  C   UNL     1      34.116 -24.200 -12.561  0.00  0.00    +0.001 C 
ATOM     29  C   UNL     1      35.200 -24.628 -11.793  0.00  0.00    +0.038 C 
ATOM     30  C   UNL     1      38.575 -25.769 -12.273  0.00  0.00    +0.290 C 
ATOM     31  C   UNL     1      38.576 -26.255 -13.712  0.00  0.00    +0.271 C 
ATOM     32  H   UNL     1      37.424 -26.078 -15.392  0.00  0.00    +0.155 HD
ENDBRANCH  20  24
ENDBRANCH  17  20
ENDBRANCH  14  18
BRANCH   5  33
ATOM     33  C   UNL     1      34.247 -19.622 -23.167  0.00  0.00    +0.089 C 
BRANCH  33  36
ATOM     34  O   UNL     1      34.400 -17.793 -24.753  0.00  0.00    -0.275 OA
ATOM     35  N   UNL     1      32.575 -19.191 -24.822  0.00  0.00    -0.329 N 
ATOM     36  C   UNL     1      33.782 -18.761 -24.316  0.00  0.00    +0.220 C 
ATOM     37  H   UNL     1      32.159 -18.714 -25.577  0.00  0.00    +0.145 HD
ATOM     38  H   UNL     1      32.127 -19.974 -24.429  0.00  0.00    +0.145 HD
ENDBRANCH  33  36
ENDBRANCH   5  33
TORSDOF 5
ENDMDL
