MODEL 1
REMARK VINA RESULT:     -10.1      0.000      0.000
REMARK  Name = 24905144
REMARK  1 active torsions:
REMARK  status: ('A' for Active; 'I' for Inactive)
REMARK    1  A    between atoms: C_5  and  C_11
REMARK                            x       y       z     vdW  Elec       q    Type
REMARK                         _______ _______ _______ _____ _____    ______ ____
ROOT
ATOM      1  N   UNL     1      34.555 -14.551 -22.106  0.00  0.00    -0.196 N 
ATOM      2  N   UNL     1      34.955 -15.491 -21.229  0.00  0.00    -0.180 NA
ATOM      3  N   UNL     1      33.762 -14.364 -24.385  0.00  0.00    -0.231 NA
ATOM      4  N   UNL     1      33.633 -16.542 -25.477  0.00  0.00    -0.234 NA
ATOM      5  C   UNL     1      34.847 -16.630 -21.922  0.00  0.00    +0.090 C 
ATOM      6  C   UNL     1      34.380 -16.425 -23.234  0.00  0.00    +0.150 C 
ATOM      7  C   UNL     1      34.199 -15.056 -23.320  0.00  0.00    +0.137 C 
ATOM      8  C   UNL     1      34.079 -17.175 -24.365  0.00  0.00    +0.112 C 
ATOM      9  C   UNL     1      34.537 -13.165 -21.703  0.00  0.00    +0.141 C 
ATOM     10  C   UNL     1      33.504 -15.195 -25.419  0.00  0.00    +0.252 C 
ATOM     11  N   UNL     1      34.229 -18.574 -24.375  0.00  0.00    -0.346 N 
ATOM     12  H   UNL     1      34.010 -19.087 -25.187  0.00  0.00    +0.143 HD
ATOM     13  H   UNL     1      34.553 -19.041 -23.571  0.00  0.00    +0.143 HD
ENDROOT
BRANCH   5  14
ATOM     14  C   UNL     1      35.195 -17.878 -21.303  0.00  0.00    +0.016 C 
ATOM     15  C   UNL     1      34.515 -19.956 -20.235  0.00  0.00    +0.000 C 
ATOM     16  C   UNL     1      34.192 -18.733 -20.844  0.00  0.00    +0.001 C 
ATOM     17  C   UNL     1      35.875 -20.319 -20.089  0.00  0.00    +0.000 C 
ATOM     18  C   UNL     1      36.532 -18.234 -21.159  0.00  0.00    +0.001 C 
ATOM     19  C   UNL     1      36.872 -19.446 -20.557  0.00  0.00    +0.000 C 
ATOM     20  C   UNL     1      33.518 -20.828 -19.768  0.00  0.00    +0.000 C 
ATOM     21  C   UNL     1      36.199 -21.541 -19.480  0.00  0.00    +0.000 C 
ATOM     22  C   UNL     1      33.858 -22.039 -19.165  0.00  0.00    +0.000 C 
ATOM     23  C   UNL     1      35.195 -22.395 -19.022  0.00  0.00    +0.000 C 
ENDBRANCH   5  14
TORSDOF 1
ENDMDL
MODEL 2
REMARK VINA RESULT:     -10.0      7.392     11.022
REMARK  Name = 24905144
REMARK  1 active torsions:
REMARK  status: ('A' for Active; 'I' for Inactive)
REMARK    1  A    between atoms: C_5  and  C_11
REMARK                            x       y       z     vdW  Elec       q    Type
REMARK                         _______ _______ _______ _____ _____    ______ ____
ROOT
ATOM      1  N   UNL     1      38.087 -24.850 -13.427  0.00  0.00    -0.196 N 
ATOM      2  N   UNL     1      37.722 -24.427 -14.651  0.00  0.00    -0.180 NA
ATOM      3  N   UNL     1      37.184 -25.041 -11.189  0.00  0.00    -0.231 NA
ATOM      4  N   UNL     1      34.891 -24.218 -11.068  0.00  0.00    -0.234 NA
ATOM      5  C   UNL     1      36.466 -24.002 -14.472  0.00  0.00    +0.090 C 
ATOM      6  C   UNL     1      36.027 -24.151 -13.144  0.00  0.00    +0.150 C 
ATOM      7  C   UNL     1      37.110 -24.708 -12.488  0.00  0.00    +0.137 C 
ATOM      8  C   UNL     1      34.887 -23.906 -12.386  0.00  0.00    +0.112 C 
ATOM      9  C   UNL     1      39.411 -25.389 -13.226  0.00  0.00    +0.141 C 
ATOM     10  C   UNL     1      36.024 -24.758 -10.558  0.00  0.00    +0.252 C 
ATOM     11  N   UNL     1      33.733 -23.344 -12.963  0.00  0.00    -0.346 N 
ATOM     12  H   UNL     1      32.936 -23.179 -12.410  0.00  0.00    +0.143 HD
ATOM     13  H   UNL     1      33.723 -23.115 -13.921  0.00  0.00    +0.143 HD
ENDROOT
BRANCH   5  14
ATOM     14  C   UNL     1      35.728 -23.467 -15.583  0.00  0.00    +0.016 C 
ATOM     15  C   UNL     1      35.654 -22.095 -17.591  0.00  0.00    +0.000 C 
ATOM     16  C   UNL     1      36.361 -22.629 -16.501  0.00  0.00    +0.001 C 
ATOM     17  C   UNL     1      34.286 -22.419 -17.753  0.00  0.00    +0.000 C 
ATOM     18  C   UNL     1      34.383 -23.784 -15.741  0.00  0.00    +0.001 C 
ATOM     19  C   UNL     1      33.665 -23.265 -16.819  0.00  0.00    +0.000 C 
ATOM     20  C   UNL     1      36.276 -21.251 -18.525  0.00  0.00    +0.000 C 
ATOM     21  C   UNL     1      33.578 -21.886 -18.842  0.00  0.00    +0.000 C 
ATOM     22  C   UNL     1      35.558 -20.731 -19.602  0.00  0.00    +0.000 C 
ATOM     23  C   UNL     1      34.212 -21.048 -19.761  0.00  0.00    +0.000 C 
ENDBRANCH   5  14
TORSDOF 1
ENDMDL
MODEL 3
REMARK VINA RESULT:      -9.9      3.572      6.001
REMARK  Name = 24905144
REMARK  1 active torsions:
REMARK  status: ('A' for Active; 'I' for Inactive)
REMARK    1  A    between atoms: C_5  and  C_11
REMARK                            x       y       z     vdW  Elec       q    Type
REMARK                         _______ _______ _______ _____ _____    ______ ____
ROOT
ATOM      1  N   UNL     1      33.510  -9.866 -23.246  0.00  0.00    -0.196 N 
ATOM      2  N   UNL     1      33.981 -10.989 -23.819  0.00  0.00    -0.180 NA
ATOM      3  N   UNL     1      32.052  -9.179 -21.440  0.00  0.00    -0.231 NA
ATOM      4  N   UNL     1      31.117 -11.097 -20.257  0.00  0.00    -0.234 NA
ATOM      5  C   UNL     1      33.412 -11.965 -23.102  0.00  0.00    +0.090 C 
ATOM      6  C   UNL     1      32.583 -11.474 -22.077  0.00  0.00    +0.150 C 
ATOM      7  C   UNL     1      32.670 -10.099 -22.199  0.00  0.00    +0.137 C 
ATOM      8  C   UNL     1      31.772 -11.968 -21.062  0.00  0.00    +0.112 C 
ATOM      9  C   UNL     1      33.916  -8.580 -23.764  0.00  0.00    +0.141 C 
ATOM     10  C   UNL     1      31.295  -9.775 -20.493  0.00  0.00    +0.252 C 
ATOM     11  N   UNL     1      31.620 -13.352 -20.856  0.00  0.00    -0.346 N 
ATOM     12  H   UNL     1      31.041 -13.682 -20.131  0.00  0.00    +0.143 HD
ATOM     13  H   UNL     1      32.093 -13.991 -21.437  0.00  0.00    +0.143 HD
ENDROOT
BRANCH   5  14
ATOM     14  C   UNL     1      33.684 -13.339 -23.425  0.00  0.00    +0.016 C 
ATOM     15  C   UNL     1      34.620 -15.497 -22.807  0.00  0.00    +0.000 C 
ATOM     16  C   UNL     1      34.345 -14.153 -22.506  0.00  0.00    +0.001 C 
ATOM     17  C   UNL     1      34.216 -16.023 -24.057  0.00  0.00    +0.000 C 
ATOM     18  C   UNL     1      33.288 -13.855 -24.655  0.00  0.00    +0.001 C 
ATOM     19  C   UNL     1      33.551 -15.188 -24.971  0.00  0.00    +0.000 C 
ATOM     20  C   UNL     1      35.284 -16.332 -21.893  0.00  0.00    +0.000 C 
ATOM     21  C   UNL     1      34.491 -17.366 -24.359  0.00  0.00    +0.000 C 
ATOM     22  C   UNL     1      35.548 -17.665 -22.209  0.00  0.00    +0.000 C 
ATOM     23  C   UNL     1      35.152 -18.181 -23.439  0.00  0.00    +0.000 C 
ENDBRANCH   5  14
TORSDOF 1
ENDMDL
MODEL 4
REMARK VINA RESULT:      -9.9      3.493      6.873
REMARK  Name = 24905144
REMARK  1 active torsions:
REMARK  status: ('A' for Active; 'I' for Inactive)
REMARK    1  A    between atoms: C_5  and  C_11
REMARK                            x       y       z     vdW  Elec       q    Type
REMARK                         _______ _______ _______ _____ _____    ______ ____
ROOT
ATOM      1  N   UNL     1      36.465 -21.387 -18.229  0.00  0.00    -0.196 N 
ATOM      2  N   UNL     1      36.662 -20.519 -19.238  0.00  0.00    -0.180 NA
ATOM      3  N   UNL     1      34.690 -22.701 -17.237  0.00  0.00    -0.231 NA
ATOM      4  N   UNL     1      32.571 -22.380 -18.402  0.00  0.00    -0.234 NA
ATOM      5  C   UNL     1      35.452 -20.416 -19.801  0.00  0.00    +0.090 C 
ATOM      6  C   UNL     1      34.486 -21.213 -19.160  0.00  0.00    +0.150 C 
ATOM      7  C   UNL     1      35.181 -21.834 -18.138  0.00  0.00    +0.137 C 
ATOM      8  C   UNL     1      33.133 -21.512 -19.277  0.00  0.00    +0.112 C 
ATOM      9  C   UNL     1      37.573 -21.751 -17.378  0.00  0.00    +0.141 C 
ATOM     10  C   UNL     1      33.373 -22.913 -17.449  0.00  0.00    +0.252 C 
ATOM     11  N   UNL     1      32.342 -20.933 -20.286  0.00  0.00    -0.346 N 
ATOM     12  H   UNL     1      31.385 -21.158 -20.352  0.00  0.00    +0.143 HD
ATOM     13  H   UNL     1      32.744 -20.301 -20.926  0.00  0.00    +0.143 HD
ENDROOT
BRANCH   5  14
ATOM     14  C   UNL     1      35.264 -19.557 -20.937  0.00  0.00    +0.016 C 
ATOM     15  C   UNL     1      35.074 -17.318 -21.869  0.00  0.00    +0.000 C 
ATOM     16  C   UNL     1      35.259 -18.172 -20.770  0.00  0.00    +0.001 C 
ATOM     17  C   UNL     1      34.895 -17.877 -23.157  0.00  0.00    +0.000 C 
ATOM     18  C   UNL     1      35.087 -20.107 -22.203  0.00  0.00    +0.001 C 
ATOM     19  C   UNL     1      34.903 -19.274 -23.307  0.00  0.00    +0.000 C 
ATOM     20  C   UNL     1      35.067 -15.922 -21.719  0.00  0.00    +0.000 C 
ATOM     21  C   UNL     1      34.710 -17.024 -24.257  0.00  0.00    +0.000 C 
ATOM     22  C   UNL     1      34.883 -15.089 -22.823  0.00  0.00    +0.000 C 
ATOM     23  C   UNL     1      34.705 -15.638 -24.089  0.00  0.00    +0.000 C 
ENDBRANCH   5  14
TORSDOF 1
ENDMDL
MODEL 5
REMARK VINA RESULT:      -9.8      5.610      8.954
REMARK  Name = 24905144
REMARK  1 active torsions:
REMARK  status: ('A' for Active; 'I' for Inactive)
REMARK    1  A    between atoms: C_5  and  C_11
REMARK                            x       y       z     vdW  Elec       q    Type
REMARK                         _______ _______ _______ _____ _____    ______ ____
ROOT
ATOM      1  N   UNL     1      35.602 -23.929 -15.118  0.00  0.00    -0.196 N 
ATOM      2  N   UNL     1      35.917 -23.223 -16.219  0.00  0.00    -0.180 NA
ATOM      3  N   UNL     1      33.655 -24.635 -13.865  0.00  0.00    -0.231 NA
ATOM      4  N   UNL     1      31.587 -23.836 -14.885  0.00  0.00    -0.234 NA
ATOM      5  C   UNL     1      34.726 -22.838 -16.693  0.00  0.00    +0.090 C 
ATOM      6  C   UNL     1      33.655 -23.293 -15.903  0.00  0.00    +0.150 C 
ATOM      7  C   UNL     1      34.262 -24.003 -14.882  0.00  0.00    +0.137 C 
ATOM      8  C   UNL     1      32.266 -23.221 -15.883  0.00  0.00    +0.112 C 
ATOM      9  C   UNL     1      36.656 -24.517 -14.325  0.00  0.00    +0.141 C 
ATOM     10  C   UNL     1      32.314 -24.496 -13.951  0.00  0.00    +0.252 C 
ATOM     11  N   UNL     1      31.557 -22.523 -16.878  0.00  0.00    -0.346 N 
ATOM     12  H   UNL     1      30.573 -22.484 -16.847  0.00  0.00    +0.143 HD
ATOM     13  H   UNL     1      32.044 -22.074 -17.607  0.00  0.00    +0.143 HD
ENDROOT
BRANCH   5  14
ATOM     14  C   UNL     1      34.657 -22.045 -17.889  0.00  0.00    +0.016 C 
ATOM     15  C   UNL     1      35.733 -20.576 -19.502  0.00  0.00    +0.000 C 
ATOM     16  C   UNL     1      35.785 -21.357 -18.336  0.00  0.00    +0.001 C 
ATOM     17  C   UNL     1      34.520 -20.494 -20.227  0.00  0.00    +0.000 C 
ATOM     18  C   UNL     1      33.464 -21.964 -18.600  0.00  0.00    +0.001 C 
ATOM     19  C   UNL     1      33.394 -21.194 -19.762  0.00  0.00    +0.000 C 
ATOM     20  C   UNL     1      36.859 -19.878 -19.967  0.00  0.00    +0.000 C 
ATOM     21  C   UNL     1      34.467 -19.714 -21.393  0.00  0.00    +0.000 C 
ATOM     22  C   UNL     1      36.789 -19.107 -21.128  0.00  0.00    +0.000 C 
ATOM     23  C   UNL     1      35.596 -19.026 -21.839  0.00  0.00    +0.000 C 
ENDBRANCH   5  14
TORSDOF 1
ENDMDL
MODEL 6
REMARK VINA RESULT:      -9.7      8.884     11.008
REMARK  Name = 24905144
REMARK  1 active torsions:
REMARK  status: ('A' for Active; 'I' for Inactive)
REMARK    1  A    between atoms: C_5  and  C_11
REMARK                            x       y       z     vdW  Elec       q    Type
REMARK                         _______ _______ _______ _____ _____    ______ ____
ROOT
ATOM      1  N   UNL     1      35.685 -23.758 -11.979  0.00  0.00    -0.196 N 
ATOM      2  N   UNL     1      34.363 -24.011 -11.995  0.00  0.00    -0.180 NA
ATOM      3  N   UNL     1      37.479 -23.186 -13.499  0.00  0.00    -0.231 NA
ATOM      4  N   UNL     1      36.688 -23.000 -15.800  0.00  0.00    -0.234 NA
ATOM      5  C   UNL     1      34.038 -23.884 -13.287  0.00  0.00    +0.090 C 
ATOM      6  C   UNL     1      35.141 -23.551 -14.094  0.00  0.00    +0.150 C 
ATOM      7  C   UNL     1      36.201 -23.476 -13.208  0.00  0.00    +0.137 C 
ATOM      8  C   UNL     1      35.419 -23.299 -15.434  0.00  0.00    +0.112 C 
ATOM      9  C   UNL     1      36.402 -23.803 -10.726  0.00  0.00    +0.141 C 
ATOM     10  C   UNL     1      37.627 -22.962 -14.823  0.00  0.00    +0.252 C 
ATOM     11  N   UNL     1      34.408 -23.349 -16.410  0.00  0.00    -0.346 N 
ATOM     12  H   UNL     1      34.624 -23.168 -17.354  0.00  0.00    +0.143 HD
ATOM     13  H   UNL     1      33.483 -23.566 -16.152  0.00  0.00    +0.143 HD
ENDROOT
BRANCH   5  14
ATOM     14  C   UNL     1      32.678 -24.086 -13.704  0.00  0.00    +0.016 C 
ATOM     15  C   UNL     1      30.727 -23.331 -14.946  0.00  0.00    +0.000 C 
ATOM     16  C   UNL     1      32.057 -23.150 -14.531  0.00  0.00    +0.001 C 
ATOM     17  C   UNL     1      30.019 -24.479 -14.518  0.00  0.00    +0.000 C 
ATOM     18  C   UNL     1      31.982 -25.214 -13.282  0.00  0.00    +0.001 C 
ATOM     19  C   UNL     1      30.661 -25.411 -13.685  0.00  0.00    +0.000 C 
ATOM     20  C   UNL     1      30.086 -22.400 -15.779  0.00  0.00    +0.000 C 
ATOM     21  C   UNL     1      28.690 -24.661 -14.932  0.00  0.00    +0.000 C 
ATOM     22  C   UNL     1      28.765 -22.597 -16.182  0.00  0.00    +0.000 C 
ATOM     23  C   UNL     1      28.068 -23.725 -15.760  0.00  0.00    +0.000 C 
ENDBRANCH   5  14
TORSDOF 1
ENDMDL
MODEL 7
REMARK VINA RESULT:      -9.3      9.705     11.643
REMARK  Name = 24905144
REMARK  1 active torsions:
REMARK  status: ('A' for Active; 'I' for Inactive)
REMARK    1  A    between atoms: C_5  and  C_11
REMARK                            x       y       z     vdW  Elec       q    Type
REMARK                         _______ _______ _______ _____ _____    ______ ____
ROOT
ATOM      1  N   UNL     1      37.194 -23.526 -12.217  0.00  0.00    -0.196 N 
ATOM      2  N   UNL     1      35.946 -23.147 -12.550  0.00  0.00    -0.180 NA
ATOM      3  N   UNL     1      38.808 -25.250 -12.746  0.00  0.00    -0.231 NA
ATOM      4  N   UNL     1      37.941 -26.822 -14.399  0.00  0.00    -0.234 NA
ATOM      5  C   UNL     1      35.571 -24.065 -13.449  0.00  0.00    +0.090 C 
ATOM      6  C   UNL     1      36.570 -25.025 -13.693  0.00  0.00    +0.150 C 
ATOM      7  C   UNL     1      37.617 -24.643 -12.873  0.00  0.00    +0.137 C 
ATOM      8  C   UNL     1      36.762 -26.158 -14.476  0.00  0.00    +0.112 C 
ATOM      9  C   UNL     1      37.936 -22.755 -11.248  0.00  0.00    +0.141 C 
ATOM     10  C   UNL     1      38.878 -26.333 -13.550  0.00  0.00    +0.252 C 
ATOM     11  N   UNL     1      35.758 -26.625 -15.343  0.00  0.00    -0.346 N 
ATOM     12  H   UNL     1      35.914 -27.430 -15.890  0.00  0.00    +0.143 HD
ATOM     13  H   UNL     1      34.899 -26.148 -15.404  0.00  0.00    +0.143 HD
ENDROOT
BRANCH   5  14
ATOM     14  C   UNL     1      34.266 -23.990 -14.045  0.00  0.00    +0.016 C 
ATOM     15  C   UNL     1      31.897 -24.538 -13.990  0.00  0.00    +0.000 C 
ATOM     16  C   UNL     1      33.179 -24.600 -13.420  0.00  0.00    +0.001 C 
ATOM     17  C   UNL     1      31.715 -23.844 -15.210  0.00  0.00    +0.000 C 
ATOM     18  C   UNL     1      34.088 -23.308 -15.245  0.00  0.00    +0.001 C 
ATOM     19  C   UNL     1      32.822 -23.235 -15.825  0.00  0.00    +0.000 C 
ATOM     20  C   UNL     1      30.791 -25.146 -13.375  0.00  0.00    +0.000 C 
ATOM     21  C   UNL     1      30.434 -23.781 -15.781  0.00  0.00    +0.000 C 
ATOM     22  C   UNL     1      29.524 -25.073 -13.955  0.00  0.00    +0.000 C 
ATOM     23  C   UNL     1      29.346 -24.392 -15.156  0.00  0.00    +0.000 C 
ENDBRANCH   5  14
TORSDOF 1
ENDMDL
MODEL 8
REMARK VINA RESULT:      -9.2      5.079      8.376
REMARK  Name = 24905144
REMARK  1 active torsions:
REMARK  status: ('A' for Active; 'I' for Inactive)
REMARK    1  A    between atoms: C_5  and  C_11
REMARK                            x       y       z     vdW  Elec       q    Type
REMARK                         _______ _______ _______ _____ _____    ______ ____
ROOT
ATOM      1  N   UNL     1      32.501 -23.404 -16.382  0.00  0.00    -0.196 N 
ATOM      2  N   UNL     1      32.419 -22.648 -17.492  0.00  0.00    -0.180 NA
ATOM      3  N   UNL     1      34.150 -24.190 -14.795  0.00  0.00    -0.231 NA
ATOM      4  N   UNL     1      36.387 -23.383 -15.342  0.00  0.00    -0.234 NA
ATOM      5  C   UNL     1      33.684 -22.263 -17.700  0.00  0.00    +0.090 C 
ATOM      6  C   UNL     1      34.571 -22.766 -16.731  0.00  0.00    +0.150 C 
ATOM      7  C   UNL     1      33.765 -23.507 -15.884  0.00  0.00    +0.137 C 
ATOM      8  C   UNL     1      35.927 -22.716 -16.429  0.00  0.00    +0.112 C 
ATOM      9  C   UNL     1      31.304 -24.006 -15.843  0.00  0.00    +0.141 C 
ATOM     10  C   UNL     1      35.482 -24.070 -14.603  0.00  0.00    +0.252 C 
ATOM     11  N   UNL     1      36.827 -21.988 -17.228  0.00  0.00    -0.346 N 
ATOM     12  H   UNL     1      37.784 -21.965 -16.997  0.00  0.00    +0.143 HD
ATOM     13  H   UNL     1      36.500 -21.500 -18.019  0.00  0.00    +0.143 HD
ENDROOT
BRANCH   5  14
ATOM     14  C   UNL     1      33.999 -21.423 -18.822  0.00  0.00    +0.016 C 
ATOM     15  C   UNL     1      35.633 -20.159 -20.108  0.00  0.00    +0.000 C 
ATOM     16  C   UNL     1      35.308 -20.982 -19.017  0.00  0.00    +0.001 C 
ATOM     17  C   UNL     1      34.615 -19.780 -21.016  0.00  0.00    +0.000 C 
ATOM     18  C   UNL     1      32.998 -21.050 -19.714  0.00  0.00    +0.001 C 
ATOM     19  C   UNL     1      33.303 -20.234 -20.804  0.00  0.00    +0.000 C 
ATOM     20  C   UNL     1      36.945 -19.707 -20.319  0.00  0.00    +0.000 C 
ATOM     21  C   UNL     1      34.939 -18.958 -22.106  0.00  0.00    +0.000 C 
ATOM     22  C   UNL     1      37.249 -18.890 -21.409  0.00  0.00    +0.000 C 
ATOM     23  C   UNL     1      36.248 -18.517 -22.300  0.00  0.00    +0.000 C 
ENDBRANCH   5  14
TORSDOF 1
ENDMDL
MODEL 9
REMARK VINA RESULT:      -8.9      3.608      5.935
REMARK  Name = 24905144
REMARK  1 active torsions:
REMARK  status: ('A' for Active; 'I' for Inactive)
REMARK    1  A    between atoms: C_5  and  C_11
REMARK                            x       y       z     vdW  Elec       q    Type
REMARK                         _______ _______ _______ _____ _____    ______ ____
ROOT
ATOM      1  N   UNL     1      31.465 -10.925 -20.891  0.00  0.00    -0.196 N 
ATOM      2  N   UNL     1      31.746 -12.228 -21.078  0.00  0.00    -0.180 NA
ATOM      3  N   UNL     1      32.134  -8.750 -21.717  0.00  0.00    -0.231 NA
ATOM      4  N   UNL     1      33.863  -8.927 -23.429  0.00  0.00    -0.234 NA
ATOM      5  C   UNL     1      32.693 -12.209 -22.023  0.00  0.00    +0.090 C 
ATOM      6  C   UNL     1      33.017 -10.906 -22.441  0.00  0.00    +0.150 C 
ATOM      7  C   UNL     1      32.197 -10.091 -21.682  0.00  0.00    +0.137 C 
ATOM      8  C   UNL     1      33.873 -10.279 -23.341  0.00  0.00    +0.112 C 
ATOM      9  C   UNL     1      30.464 -10.545 -19.922  0.00  0.00    +0.141 C 
ATOM     10  C   UNL     1      33.006  -8.256 -22.622  0.00  0.00    +0.252 C 
ATOM     11  N   UNL     1      34.744 -11.022 -24.158  0.00  0.00    -0.346 N 
ATOM     12  H   UNL     1      35.343 -10.559 -24.789  0.00  0.00    +0.143 HD
ATOM     13  H   UNL     1      34.757 -12.005 -24.100  0.00  0.00    +0.143 HD
ENDROOT
BRANCH   5  14
ATOM     14  C   UNL     1      33.255 -13.445 -22.494  0.00  0.00    +0.016 C 
ATOM     15  C   UNL     1      34.461 -15.510 -22.048  0.00  0.00    +0.000 C 
ATOM     16  C   UNL     1      33.905 -14.299 -21.604  0.00  0.00    +0.001 C 
ATOM     17  C   UNL     1      34.355 -15.859 -23.415  0.00  0.00    +0.000 C 
ATOM     18  C   UNL     1      33.151 -13.788 -23.839  0.00  0.00    +0.001 C 
ATOM     19  C   UNL     1      33.697 -14.986 -24.298  0.00  0.00    +0.000 C 
ATOM     20  C   UNL     1      35.118 -16.382 -21.165  0.00  0.00    +0.000 C 
ATOM     21  C   UNL     1      34.911 -17.069 -23.861  0.00  0.00    +0.000 C 
ATOM     22  C   UNL     1      35.665 -17.581 -21.625  0.00  0.00    +0.000 C 
ATOM     23  C   UNL     1      35.561 -17.924 -22.969  0.00  0.00    +0.000 C 
ENDBRANCH   5  14
TORSDOF 1
ENDMDL
