MODEL 1
REMARK VINA RESULT:     -11.1      0.000      0.000
REMARK  Name = 9823820
REMARK  6 active torsions:
REMARK  status: ('A' for Active; 'I' for Inactive)
REMARK    1  A    between atoms: O_1  and  C_4
REMARK    2  A    between atoms: O_1  and  C_23
REMARK    3  A    between atoms: C_7  and  C_14
REMARK    4  A    between atoms: C_8  and  O_17
REMARK    5  A    between atoms: C_20  and  N_28
REMARK    6  A    between atoms: N_27  and  C_32
REMARK                            x       y       z     vdW  Elec       q    Type
REMARK                         _______ _______ _______ _____ _____    ______ ____
ROOT
ATOM      1  O   UNL     1      33.881 -23.589 -17.847  0.00  0.00    -0.454 OA
ENDROOT
BRANCH   1   4
ATOM      2  N   UNL     1      32.331 -23.191 -14.022  0.00  0.00    -0.248 NA
ATOM      3  C   UNL     1      34.205 -23.678 -15.455  0.00  0.00    +0.031 C 
ATOM      4  C   UNL     1      33.393 -23.464 -16.578  0.00  0.00    +0.144 C 
ATOM      5  C   UNL     1      33.624 -23.529 -14.179  0.00  0.00    +0.066 C 
ATOM      6  C   UNL     1      35.558 -24.031 -15.583  0.00  0.00    +0.064 C 
ATOM      7  C   UNL     1      36.342 -24.237 -14.451  0.00  0.00    +0.065 C 
ATOM      8  C   UNL     1      35.777 -24.092 -13.190  0.00  0.00    +0.123 C 
ATOM      9  C   UNL     1      34.431 -23.741 -13.064  0.00  0.00    +0.109 C 
ATOM     10  C   UNL     1      32.060 -23.116 -16.419  0.00  0.00    +0.058 C 
ATOM     11  C   UNL     1      31.581 -22.994 -15.131  0.00  0.00    +0.102 C 
BRANCH   7  14
ATOM     12  O   UNL     1      38.626 -23.735 -14.734  0.00  0.00    -0.271 OA
ATOM     13  N   UNL     1      38.064 -25.954 -14.596  0.00  0.00    -0.325 N 
ATOM     14  C   UNL     1      37.743 -24.601 -14.609  0.00  0.00    +0.242 C 
ATOM     15  H   UNL     1      39.001 -26.239 -14.699  0.00  0.00    +0.145 HD
ATOM     16  H   UNL     1      37.355 -26.628 -14.483  0.00  0.00    +0.145 HD
ENDBRANCH   7  14
BRANCH   8  17
ATOM     17  O   UNL     1      36.519 -24.286 -12.063  0.00  0.00    -0.475 OA
ATOM     18  C   UNL     1      36.878 -23.125 -11.316  0.00  0.00    +0.252 C 
ENDBRANCH   8  17
ENDBRANCH   1   4
BRANCH   1  23
ATOM     19 CL   UNL     1      37.224 -20.261 -19.712  0.00  0.00    -0.081 Cl
ATOM     20  C   UNL     1      34.516 -20.103 -20.010  0.00  0.00    +0.062 C 
ATOM     21  C   UNL     1      35.601 -20.806 -19.485  0.00  0.00    +0.074 C 
ATOM     22  C   UNL     1      33.218 -20.573 -19.808  0.00  0.00    +0.019 C 
ATOM     23  C   UNL     1      34.093 -22.428 -18.568  0.00  0.00    +0.146 C 
ATOM     24  C   UNL     1      35.387 -21.977 -18.758  0.00  0.00    +0.050 C 
ATOM     25  C   UNL     1      33.005 -21.745 -19.082  0.00  0.00    +0.039 C 
BRANCH  20  28
ATOM     26  O   UNL     1      34.812 -19.679 -22.969  0.00  0.00    -0.252 OA
ATOM     27  N   UNL     1      34.991 -17.429 -22.478  0.00  0.00    -0.290 N 
ATOM     28  N   UNL     1      34.694 -18.927 -20.743  0.00  0.00    -0.268 N 
ATOM     29  C   UNL     1      34.830 -18.776 -22.135  0.00  0.00    +0.304 C 
ATOM     30  H   UNL     1      34.996 -16.757 -21.758  0.00  0.00    +0.151 HD
ATOM     31  H   UNL     1      34.731 -18.095 -20.216  0.00  0.00    +0.156 HD
BRANCH  27  32
ATOM     32  C   UNL     1      35.152 -16.987 -23.833  0.00  0.00    +0.073 C 
ATOM     33  C   UNL     1      34.598 -15.673 -24.281  0.00  0.00    +0.021 C 
ATOM     34  C   UNL     1      33.988 -16.954 -24.769  0.00  0.00    +0.021 C 
ENDBRANCH  27  32
ENDBRANCH  20  28
ENDBRANCH   1  23
TORSDOF 6
ENDMDL
MODEL 2
REMARK VINA RESULT:     -10.8      2.205      3.860
REMARK  Name = 9823820
REMARK  6 active torsions:
REMARK  status: ('A' for Active; 'I' for Inactive)
REMARK    1  A    between atoms: O_1  and  C_4
REMARK    2  A    between atoms: O_1  and  C_23
REMARK    3  A    between atoms: C_7  and  C_14
REMARK    4  A    between atoms: C_8  and  O_17
REMARK    5  A    between atoms: C_20  and  N_28
REMARK    6  A    between atoms: N_27  and  C_32
REMARK                            x       y       z     vdW  Elec       q    Type
REMARK                         _______ _______ _______ _____ _____    ______ ____
ROOT
ATOM      1  O   UNL     1      34.424 -23.036 -18.382  0.00  0.00    -0.454 OA
ENDROOT
BRANCH   1   4
ATOM      2  N   UNL     1      35.163 -22.860 -14.306  0.00  0.00    -0.248 NA
ATOM      3  C   UNL     1      33.586 -23.053 -16.118  0.00  0.00    +0.031 C 
ATOM      4  C   UNL     1      34.643 -22.980 -17.036  0.00  0.00    +0.144 C 
ATOM      5  C   UNL     1      33.896 -22.988 -14.744  0.00  0.00    +0.066 C 
ATOM      6  C   UNL     1      32.253 -23.187 -16.539  0.00  0.00    +0.064 C 
ATOM      7  C   UNL     1      31.222 -23.257 -15.606  0.00  0.00    +0.065 C 
ATOM      8  C   UNL     1      31.520 -23.194 -14.250  0.00  0.00    +0.123 C 
ATOM      9  C   UNL     1      32.846 -23.061 -13.831  0.00  0.00    +0.109 C 
ATOM     10  C   UNL     1      35.948 -22.848 -16.588  0.00  0.00    +0.058 C 
ATOM     11  C   UNL     1      36.153 -22.793 -15.225  0.00  0.00    +0.102 C 
BRANCH   7  14
ATOM     12  O   UNL     1      29.295 -22.503 -16.730  0.00  0.00    -0.271 OA
ATOM     13  N   UNL     1      29.179 -24.575 -15.756  0.00  0.00    -0.325 N 
ATOM     14  C   UNL     1      29.849 -23.397 -16.067  0.00  0.00    +0.242 C 
ATOM     15  H   UNL     1      28.249 -24.706 -16.052  0.00  0.00    +0.145 HD
ATOM     16  H   UNL     1      29.636 -25.280 -15.242  0.00  0.00    +0.145 HD
ENDBRANCH   7  14
BRANCH   8  17
ATOM     17  O   UNL     1      30.534 -23.261 -13.312  0.00  0.00    -0.475 OA
ATOM     18  C   UNL     1      30.533 -24.401 -12.453  0.00  0.00    +0.252 C 
ENDBRANCH   8  17
ENDBRANCH   1   4
BRANCH   1  23
ATOM     19 CL   UNL     1      37.491 -19.523 -20.378  0.00  0.00    -0.081 Cl
ATOM     20  C   UNL     1      34.766 -19.502 -20.532  0.00  0.00    +0.062 C 
ATOM     21  C   UNL     1      35.912 -20.152 -20.073  0.00  0.00    +0.074 C 
ATOM     22  C   UNL     1      33.507 -20.040 -20.269  0.00  0.00    +0.019 C 
ATOM     23  C   UNL     1      34.539 -21.859 -19.099  0.00  0.00    +0.146 C 
ATOM     24  C   UNL     1      35.797 -21.341 -19.351  0.00  0.00    +0.050 C 
ATOM     25  C   UNL     1      33.391 -21.228 -19.547  0.00  0.00    +0.039 C 
BRANCH  20  28
ATOM     26  O   UNL     1      34.544 -19.005 -23.486  0.00  0.00    -0.252 OA
ATOM     27  N   UNL     1      34.873 -16.775 -22.985  0.00  0.00    -0.290 N 
ATOM     28  N   UNL     1      34.846 -18.311 -21.258  0.00  0.00    -0.268 N 
ATOM     29  C   UNL     1      34.736 -18.126 -22.648  0.00  0.00    +0.304 C 
ATOM     30  H   UNL     1      35.024 -16.122 -22.263  0.00  0.00    +0.151 HD
ATOM     31  H   UNL     1      34.999 -17.495 -20.729  0.00  0.00    +0.156 HD
BRANCH  27  32
ATOM     32  C   UNL     1      34.803 -16.300 -24.337  0.00  0.00    +0.073 C 
ATOM     33  C   UNL     1      34.145 -14.997 -24.658  0.00  0.00    +0.021 C 
ATOM     34  C   UNL     1      33.505 -16.288 -25.076  0.00  0.00    +0.021 C 
ENDBRANCH  27  32
ENDBRANCH  20  28
ENDBRANCH   1  23
TORSDOF 6
ENDMDL
MODEL 3
REMARK VINA RESULT:     -10.7      1.282      1.555
REMARK  Name = 9823820
REMARK  6 active torsions:
REMARK  status: ('A' for Active; 'I' for Inactive)
REMARK    1  A    between atoms: O_1  and  C_4
REMARK    2  A    between atoms: O_1  and  C_23
REMARK    3  A    between atoms: C_7  and  C_14
REMARK    4  A    between atoms: C_8  and  O_17
REMARK    5  A    between atoms: C_20  and  N_28
REMARK    6  A    between atoms: N_27  and  C_32
REMARK                            x       y       z     vdW  Elec       q    Type
REMARK                         _______ _______ _______ _____ _____    ______ ____
ROOT
ATOM      1  O   UNL     1      34.324 -23.678 -17.570  0.00  0.00    -0.454 OA
ENDROOT
BRANCH   1   4
ATOM      2  N   UNL     1      32.470 -23.241 -13.886  0.00  0.00    -0.248 NA
ATOM      3  C   UNL     1      34.367 -23.980 -15.174  0.00  0.00    +0.031 C 
ATOM      4  C   UNL     1      33.733 -23.545 -16.346  0.00  0.00    +0.144 C 
ATOM      5  C   UNL     1      33.690 -23.806 -13.950  0.00  0.00    +0.066 C 
ATOM      6  C   UNL     1      35.640 -24.574 -15.203  0.00  0.00    +0.064 C 
ATOM      7  C   UNL     1      36.247 -24.997 -14.024  0.00  0.00    +0.065 C 
ATOM      8  C   UNL     1      35.586 -24.829 -12.814  0.00  0.00    +0.123 C 
ATOM      9  C   UNL     1      34.320 -24.238 -12.786  0.00  0.00    +0.109 C 
ATOM     10  C   UNL     1      32.476 -22.962 -16.284  0.00  0.00    +0.058 C 
ATOM     11  C   UNL     1      31.893 -22.834 -15.040  0.00  0.00    +0.102 C 
BRANCH   7  14
ATOM     12  O   UNL     1      37.793 -26.595 -14.803  0.00  0.00    -0.271 OA
ATOM     13  N   UNL     1      38.575 -25.043 -13.308  0.00  0.00    -0.325 N 
ATOM     14  C   UNL     1      37.567 -25.609 -14.079  0.00  0.00    +0.242 C 
ATOM     15  H   UNL     1      39.481 -25.428 -13.320  0.00  0.00    +0.145 HD
ATOM     16  H   UNL     1      38.384 -24.254 -12.750  0.00  0.00    +0.145 HD
ENDBRANCH   7  14
BRANCH   8  17
ATOM     17  O   UNL     1      36.154 -25.232 -11.642  0.00  0.00    -0.475 OA
ATOM     18  C   UNL     1      35.776 -24.525 -10.462  0.00  0.00    +0.252 C 
ENDBRANCH   8  17
ENDBRANCH   1   4
BRANCH   1  23
ATOM     19 CL   UNL     1      32.208 -20.071 -20.441  0.00  0.00    -0.081 Cl
ATOM     20  C   UNL     1      34.862 -20.239 -19.831  0.00  0.00    +0.062 C 
ATOM     21  C   UNL     1      33.588 -20.789 -19.691  0.00  0.00    +0.074 C 
ATOM     22  C   UNL     1      35.955 -20.844 -19.210  0.00  0.00    +0.019 C 
ATOM     23  C   UNL     1      34.503 -22.532 -18.322  0.00  0.00    +0.146 C 
ATOM     24  C   UNL     1      33.407 -21.945 -18.931  0.00  0.00    +0.050 C 
ATOM     25  C   UNL     1      35.774 -22.000 -18.449  0.00  0.00    +0.039 C 
BRANCH  20  28
ATOM     26  O   UNL     1      34.764 -19.805 -22.801  0.00  0.00    -0.252 OA
ATOM     27  N   UNL     1      35.303 -17.605 -22.347  0.00  0.00    -0.290 N 
ATOM     28  N   UNL     1      35.079 -19.082 -20.585  0.00  0.00    -0.268 N 
ATOM     29  C   UNL     1      35.023 -18.926 -21.981  0.00  0.00    +0.304 C 
ATOM     30  H   UNL     1      35.502 -16.951 -21.638  0.00  0.00    +0.151 HD
ATOM     31  H   UNL     1      35.301 -18.272 -20.071  0.00  0.00    +0.156 HD
BRANCH  27  32
ATOM     32  C   UNL     1      35.315 -17.164 -23.712  0.00  0.00    +0.073 C 
ATOM     33  C   UNL     1      34.591 -15.922 -24.122  0.00  0.00    +0.021 C 
ATOM     34  C   UNL     1      34.089 -17.266 -24.560  0.00  0.00    +0.021 C 
ENDBRANCH  27  32
ENDBRANCH  20  28
ENDBRANCH   1  23
TORSDOF 6
ENDMDL
MODEL 4
REMARK VINA RESULT:      -9.7      7.449     11.678
REMARK  Name = 9823820
REMARK  6 active torsions:
REMARK  status: ('A' for Active; 'I' for Inactive)
REMARK    1  A    between atoms: O_1  and  C_4
REMARK    2  A    between atoms: O_1  and  C_23
REMARK    3  A    between atoms: C_7  and  C_14
REMARK    4  A    between atoms: C_8  and  O_17
REMARK    5  A    between atoms: C_20  and  N_28
REMARK    6  A    between atoms: N_27  and  C_32
REMARK                            x       y       z     vdW  Elec       q    Type
REMARK                         _______ _______ _______ _____ _____    ______ ____
ROOT
ATOM      1  O   UNL     1      34.480 -13.447 -22.776  0.00  0.00    -0.454 OA
ENDROOT
BRANCH   1   4
ATOM      2  N   UNL     1      33.141 -16.142 -25.628  0.00  0.00    -0.248 NA
ATOM      3  C   UNL     1      34.379 -15.712 -23.607  0.00  0.00    +0.031 C 
ATOM      4  C   UNL     1      34.051 -14.353 -23.703  0.00  0.00    +0.144 C 
ATOM      5  C   UNL     1      33.896 -16.583 -24.605  0.00  0.00    +0.066 C 
ATOM      6  C   UNL     1      35.165 -16.207 -22.553  0.00  0.00    +0.064 C 
ATOM      7  C   UNL     1      35.476 -17.562 -22.481  0.00  0.00    +0.065 C 
ATOM      8  C   UNL     1      35.003 -18.426 -23.461  0.00  0.00    +0.123 C 
ATOM      9  C   UNL     1      34.222 -17.933 -24.509  0.00  0.00    +0.109 C 
ATOM     10  C   UNL     1      33.273 -13.895 -24.755  0.00  0.00    +0.058 C 
ATOM     11  C   UNL     1      32.847 -14.822 -25.684  0.00  0.00    +0.102 C 
BRANCH   7  14
ATOM     12  O   UNL     1      35.891 -17.993 -20.203  0.00  0.00    -0.271 OA
ATOM     13  N   UNL     1      37.529 -18.604 -21.687  0.00  0.00    -0.325 N 
ATOM     14  C   UNL     1      36.291 -18.051 -21.379  0.00  0.00    +0.242 C 
ATOM     15  H   UNL     1      38.109 -18.946 -20.968  0.00  0.00    +0.145 HD
ATOM     16  H   UNL     1      37.827 -18.655 -22.624  0.00  0.00    +0.145 HD
ENDBRANCH   7  14
BRANCH   8  17
ATOM     17  O   UNL     1      35.289 -19.758 -23.418  0.00  0.00    -0.475 OA
ATOM     18  C   UNL     1      34.969 -20.527 -24.577  0.00  0.00    +0.252 C 
ENDBRANCH   8  17
ENDBRANCH   1   4
BRANCH   1  23
ATOM     19 CL   UNL     1      30.705 -10.885 -20.558  0.00  0.00    -0.081 Cl
ATOM     20  C   UNL     1      32.381  -9.880 -22.463  0.00  0.00    +0.062 C 
ATOM     21  C   UNL     1      32.019 -10.973 -21.676  0.00  0.00    +0.074 C 
ATOM     22  C   UNL     1      33.448  -9.985 -23.354  0.00  0.00    +0.019 C 
ATOM     23  C   UNL     1      33.781 -12.258 -22.671  0.00  0.00    +0.146 C 
ATOM     24  C   UNL     1      32.725 -12.172 -21.781  0.00  0.00    +0.050 C 
ATOM     25  C   UNL     1      34.155 -11.184 -23.459  0.00  0.00    +0.039 C 
BRANCH  20  28
ATOM     26  O   UNL     1      33.058  -7.358 -20.978  0.00  0.00    -0.252 OA
ATOM     27  N   UNL     1      31.098  -6.497 -21.846  0.00  0.00    -0.290 N 
ATOM     28  N   UNL     1      31.696  -8.664 -22.383  0.00  0.00    -0.268 N 
ATOM     29  C   UNL     1      32.052  -7.505 -21.670  0.00  0.00    +0.304 C 
ATOM     30  H   UNL     1      30.316  -6.683 -22.415  0.00  0.00    +0.151 HD
ATOM     31  H   UNL     1      30.853  -8.613 -22.890  0.00  0.00    +0.156 HD
BRANCH  27  32
ATOM     32  C   UNL     1      31.210  -5.206 -21.232  0.00  0.00    +0.073 C 
ATOM     33  C   UNL     1      30.309  -4.084 -21.636  0.00  0.00    +0.021 C 
ATOM     34  C   UNL     1      31.767  -4.045 -21.989  0.00  0.00    +0.021 C 
ENDBRANCH  27  32
ENDBRANCH  20  28
ENDBRANCH   1  23
TORSDOF 6
ENDMDL
MODEL 5
REMARK VINA RESULT:      -9.5      7.605     13.774
REMARK  Name = 9823820
REMARK  6 active torsions:
REMARK  status: ('A' for Active; 'I' for Inactive)
REMARK    1  A    between atoms: O_1  and  C_4
REMARK    2  A    between atoms: O_1  and  C_23
REMARK    3  A    between atoms: C_7  and  C_14
REMARK    4  A    between atoms: C_8  and  O_17
REMARK    5  A    between atoms: C_20  and  N_28
REMARK    6  A    between atoms: N_27  and  C_32
REMARK                            x       y       z     vdW  Elec       q    Type
REMARK                         _______ _______ _______ _____ _____    ______ ____
ROOT
ATOM      1  O   UNL     1      31.045 -11.683 -20.955  0.00  0.00    -0.454 OA
ENDROOT
BRANCH   1   4
ATOM      2  N   UNL     1      32.409  -8.506 -18.666  0.00  0.00    -0.248 NA
ATOM      3  C   UNL     1      31.705  -9.365 -20.804  0.00  0.00    +0.031 C 
ATOM      4  C   UNL     1      31.494 -10.622 -20.222  0.00  0.00    +0.144 C 
ATOM      5  C   UNL     1      32.170  -8.321 -19.977  0.00  0.00    +0.066 C 
ATOM      6  C   UNL     1      31.467  -9.136 -22.169  0.00  0.00    +0.064 C 
ATOM      7  C   UNL     1      31.685  -7.877 -22.722  0.00  0.00    +0.065 C 
ATOM      8  C   UNL     1      32.143  -6.844 -21.914  0.00  0.00    +0.123 C 
ATOM      9  C   UNL     1      32.380  -7.072 -20.556  0.00  0.00    +0.109 C 
ATOM     10  C   UNL     1      31.739 -10.816 -18.871  0.00  0.00    +0.058 C 
ATOM     11  C   UNL     1      32.191  -9.735 -18.143  0.00  0.00    +0.102 C 
BRANCH   7  14
ATOM     12  O   UNL     1      31.838  -8.467 -24.997  0.00  0.00    -0.271 OA
ATOM     13  N   UNL     1      30.695  -6.542 -24.502  0.00  0.00    -0.325 N 
ATOM     14  C   UNL     1      31.430  -7.665 -24.139  0.00  0.00    +0.242 C 
ATOM     15  H   UNL     1      30.501  -6.365 -25.452  0.00  0.00    +0.145 HD
ATOM     16  H   UNL     1      30.367  -5.923 -23.810  0.00  0.00    +0.145 HD
ENDBRANCH   7  14
BRANCH   8  17
ATOM     17  O   UNL     1      32.365  -5.600 -22.425  0.00  0.00    -0.475 OA
ATOM     18  C   UNL     1      31.779  -4.500 -21.731  0.00  0.00    +0.252 C 
ENDBRANCH   8  17
ENDBRANCH   1   4
BRANCH   1  23
ATOM     19 CL   UNL     1      33.341 -14.103 -24.776  0.00  0.00    -0.081 Cl
ATOM     20  C   UNL     1      33.831 -14.528 -22.126  0.00  0.00    +0.062 C 
ATOM     21  C   UNL     1      33.108 -13.824 -23.088  0.00  0.00    +0.074 C 
ATOM     22  C   UNL     1      33.618 -14.276 -20.770  0.00  0.00    +0.019 C 
ATOM     23  C   UNL     1      31.974 -12.630 -21.346  0.00  0.00    +0.146 C 
ATOM     24  C   UNL     1      32.172 -12.867 -22.694  0.00  0.00    +0.050 C 
ATOM     25  C   UNL     1      32.682 -13.319 -20.377  0.00  0.00    +0.039 C 
BRANCH  20  28
ATOM     26  O   UNL     1      34.579 -17.113 -20.790  0.00  0.00    -0.252 OA
ATOM     27  N   UNL     1      36.102 -17.386 -22.505  0.00  0.00    -0.290 N 
ATOM     28  N   UNL     1      34.776 -15.493 -22.485  0.00  0.00    -0.268 N 
ATOM     29  C   UNL     1      35.095 -16.694 -21.824  0.00  0.00    +0.304 C 
ATOM     30  H   UNL     1      36.470 -16.993 -23.329  0.00  0.00    +0.151 HD
ATOM     31  H   UNL     1      35.287 -15.308 -23.306  0.00  0.00    +0.156 HD
BRANCH  27  32
ATOM     32  C   UNL     1      36.621 -18.644 -22.052  0.00  0.00    +0.073 C 
ATOM     33  C   UNL     1      36.777 -18.928 -20.593  0.00  0.00    +0.021 C 
ATOM     34  C   UNL     1      37.988 -18.737 -21.457  0.00  0.00    +0.021 C 
ENDBRANCH  27  32
ENDBRANCH  20  28
ENDBRANCH   1  23
TORSDOF 6
ENDMDL
MODEL 6
REMARK VINA RESULT:      -9.5      1.717      2.042
REMARK  Name = 9823820
REMARK  6 active torsions:
REMARK  status: ('A' for Active; 'I' for Inactive)
REMARK    1  A    between atoms: O_1  and  C_4
REMARK    2  A    between atoms: O_1  and  C_23
REMARK    3  A    between atoms: C_7  and  C_14
REMARK    4  A    between atoms: C_8  and  O_17
REMARK    5  A    between atoms: C_20  and  N_28
REMARK    6  A    between atoms: N_27  and  C_32
REMARK                            x       y       z     vdW  Elec       q    Type
REMARK                         _______ _______ _______ _____ _____    ______ ____
ROOT
ATOM      1  O   UNL     1      35.496 -22.665 -18.111  0.00  0.00    -0.454 OA
ENDROOT
BRANCH   1   4
ATOM      2  N   UNL     1      32.338 -23.241 -15.486  0.00  0.00    -0.248 NA
ATOM      3  C   UNL     1      34.699 -23.384 -15.948  0.00  0.00    +0.031 C 
ATOM      4  C   UNL     1      34.472 -22.864 -17.230  0.00  0.00    +0.144 C 
ATOM      5  C   UNL     1      33.587 -23.558 -15.098  0.00  0.00    +0.066 C 
ATOM      6  C   UNL     1      35.989 -23.726 -15.509  0.00  0.00    +0.064 C 
ATOM      7  C   UNL     1      36.185 -24.240 -14.231  0.00  0.00    +0.065 C 
ATOM      8  C   UNL     1      35.095 -24.415 -13.388  0.00  0.00    +0.123 C 
ATOM      9  C   UNL     1      33.812 -24.075 -13.824  0.00  0.00    +0.109 C 
ATOM     10  C   UNL     1      33.187 -22.536 -17.633  0.00  0.00    +0.058 C 
ATOM     11  C   UNL     1      32.163 -22.742 -16.731  0.00  0.00    +0.102 C 
BRANCH   7  14
ATOM     12  O   UNL     1      38.450 -23.748 -13.812  0.00  0.00    -0.271 OA
ATOM     13  N   UNL     1      37.754 -25.884 -13.353  0.00  0.00    -0.325 N 
ATOM     14  C   UNL     1      37.532 -24.586 -13.799  0.00  0.00    +0.242 C 
ATOM     15  H   UNL     1      38.651 -26.155 -13.052  0.00  0.00    +0.145 HD
ATOM     16  H   UNL     1      37.013 -26.533 -13.337  0.00  0.00    +0.145 HD
ENDBRANCH   7  14
BRANCH   8  17
ATOM     17  O   UNL     1      35.255 -24.915 -12.130  0.00  0.00    -0.475 OA
ATOM     18  C   UNL     1      35.312 -23.973 -11.060  0.00  0.00    +0.252 C 
ENDBRANCH   8  17
ENDBRANCH   1   4
BRANCH   1  23
ATOM     19 CL   UNL     1      32.353 -19.747 -20.820  0.00  0.00    -0.081 Cl
ATOM     20  C   UNL     1      35.078 -19.609 -20.888  0.00  0.00    +0.062 C 
ATOM     21  C   UNL     1      33.946 -20.225 -20.354  0.00  0.00    +0.074 C 
ATOM     22  C   UNL     1      36.349 -20.019 -20.488  0.00  0.00    +0.019 C 
ATOM     23  C   UNL     1      35.356 -21.646 -19.036  0.00  0.00    +0.146 C 
ATOM     24  C   UNL     1      34.087 -21.252 -19.421  0.00  0.00    +0.050 C 
ATOM     25  C   UNL     1      36.490 -21.046 -19.554  0.00  0.00    +0.039 C 
BRANCH  20  28
ATOM     26  O   UNL     1      35.189 -16.629 -20.522  0.00  0.00    -0.252 OA
ATOM     27  N   UNL     1      34.883 -16.486 -22.807  0.00  0.00    -0.290 N 
ATOM     28  N   UNL     1      34.973 -18.576 -21.825  0.00  0.00    -0.268 N 
ATOM     29  C   UNL     1      35.030 -17.188 -21.605  0.00  0.00    +0.304 C 
ATOM     30  H   UNL     1      34.760 -16.998 -23.639  0.00  0.00    +0.151 HD
ATOM     31  H   UNL     1      34.840 -18.857 -22.759  0.00  0.00    +0.156 HD
BRANCH  27  32
ATOM     32  C   UNL     1      34.902 -15.054 -22.876  0.00  0.00    +0.073 C 
ATOM     33  C   UNL     1      33.869 -14.239 -22.167  0.00  0.00    +0.021 C 
ATOM     34  C   UNL     1      33.872 -14.313 -23.666  0.00  0.00    +0.021 C 
ENDBRANCH  27  32
ENDBRANCH  20  28
ENDBRANCH   1  23
TORSDOF 6
ENDMDL
MODEL 7
REMARK VINA RESULT:      -9.4      3.546     10.170
REMARK  Name = 9823820
REMARK  6 active torsions:
REMARK  status: ('A' for Active; 'I' for Inactive)
REMARK    1  A    between atoms: O_1  and  C_4
REMARK    2  A    between atoms: O_1  and  C_23
REMARK    3  A    between atoms: C_7  and  C_14
REMARK    4  A    between atoms: C_8  and  O_17
REMARK    5  A    between atoms: C_20  and  N_28
REMARK    6  A    between atoms: N_27  and  C_32
REMARK                            x       y       z     vdW  Elec       q    Type
REMARK                         _______ _______ _______ _____ _____    ______ ____
ROOT
ATOM      1  O   UNL     1      36.078 -19.050 -21.193  0.00  0.00    -0.454 OA
ENDROOT
BRANCH   1   4
ATOM      2  N   UNL     1      34.247 -18.796 -24.905  0.00  0.00    -0.248 NA
ATOM      3  C   UNL     1      34.971 -17.717 -22.876  0.00  0.00    +0.031 C 
ATOM      4  C   UNL     1      35.471 -18.942 -22.411  0.00  0.00    +0.144 C 
ATOM      5  C   UNL     1      34.358 -17.690 -24.146  0.00  0.00    +0.066 C 
ATOM      6  C   UNL     1      35.070 -16.544 -22.110  0.00  0.00    +0.064 C 
ATOM      7  C   UNL     1      34.565 -15.341 -22.595  0.00  0.00    +0.065 C 
ATOM      8  C   UNL     1      33.960 -15.306 -23.846  0.00  0.00    +0.123 C 
ATOM      9  C   UNL     1      33.862 -16.473 -24.607  0.00  0.00    +0.109 C 
ATOM     10  C   UNL     1      35.358 -20.083 -23.191  0.00  0.00    +0.058 C 
ATOM     11  C   UNL     1      34.743 -19.957 -24.420  0.00  0.00    +0.102 C 
BRANCH   7  14
ATOM     12  O   UNL     1      34.812 -14.201 -20.549  0.00  0.00    -0.271 OA
ATOM     13  N   UNL     1      34.657 -12.911 -22.438  0.00  0.00    -0.325 N 
ATOM     14  C   UNL     1      34.680 -14.138 -21.784  0.00  0.00    +0.242 C 
ATOM     15  H   UNL     1      34.734 -12.076 -21.923  0.00  0.00    +0.145 HD
ATOM     16  H   UNL     1      34.566 -12.878 -23.418  0.00  0.00    +0.145 HD
ENDBRANCH   7  14
BRANCH   8  17
ATOM     17  O   UNL     1      33.457 -14.143 -24.349  0.00  0.00    -0.475 OA
ATOM     18  C   UNL     1      33.042 -14.154 -25.714  0.00  0.00    +0.252 C 
ENDBRANCH   8  17
ENDBRANCH   1   4
BRANCH   1  23
ATOM     19 CL   UNL     1      36.886 -22.177 -17.282  0.00  0.00    -0.081 Cl
ATOM     20  C   UNL     1      34.472 -21.752 -18.482  0.00  0.00    +0.062 C 
ATOM     21  C   UNL     1      35.834 -21.450 -18.443  0.00  0.00    +0.074 C 
ATOM     22  C   UNL     1      33.651 -21.144 -19.432  0.00  0.00    +0.019 C 
ATOM     23  C   UNL     1      35.543 -19.949 -20.289  0.00  0.00    +0.146 C 
ATOM     24  C   UNL     1      36.373 -20.542 -19.354  0.00  0.00    +0.050 C 
ATOM     25  C   UNL     1      34.190 -20.236 -20.343  0.00  0.00    +0.039 C 
BRANCH  20  28
ATOM     26  O   UNL     1      31.676 -21.910 -17.397  0.00  0.00    -0.252 OA
ATOM     27  N   UNL     1      32.399 -23.757 -16.214  0.00  0.00    -0.290 N 
ATOM     28  N   UNL     1      33.899 -22.656 -17.584  0.00  0.00    -0.268 N 
ATOM     29  C   UNL     1      32.578 -22.691 -17.101  0.00  0.00    +0.304 C 
ATOM     30  H   UNL     1      33.165 -24.345 -16.022  0.00  0.00    +0.151 HD
ATOM     31  H   UNL     1      34.498 -23.361 -17.244  0.00  0.00    +0.156 HD
BRANCH  27  32
ATOM     32  C   UNL     1      31.146 -24.029 -15.570  0.00  0.00    +0.073 C 
ATOM     33  C   UNL     1      30.716 -23.249 -14.370  0.00  0.00    +0.021 C 
ATOM     34  C   UNL     1      31.102 -24.692 -14.232  0.00  0.00    +0.021 C 
ENDBRANCH  27  32
ENDBRANCH  20  28
ENDBRANCH   1  23
TORSDOF 6
ENDMDL
MODEL 8
REMARK VINA RESULT:      -9.3      8.504     15.234
REMARK  Name = 9823820
REMARK  6 active torsions:
REMARK  status: ('A' for Active; 'I' for Inactive)
REMARK    1  A    between atoms: O_1  and  C_4
REMARK    2  A    between atoms: O_1  and  C_23
REMARK    3  A    between atoms: C_7  and  C_14
REMARK    4  A    between atoms: C_8  and  O_17
REMARK    5  A    between atoms: C_20  and  N_28
REMARK    6  A    between atoms: N_27  and  C_32
REMARK                            x       y       z     vdW  Elec       q    Type
REMARK                         _______ _______ _______ _____ _____    ______ ____
ROOT
ATOM      1  O   UNL     1      31.806 -10.006 -22.873  0.00  0.00    -0.454 OA
ENDROOT
BRANCH   1   4
ATOM      2  N   UNL     1      31.932  -7.156 -19.863  0.00  0.00    -0.248 NA
ATOM      3  C   UNL     1      31.952  -7.687 -22.213  0.00  0.00    +0.031 C 
ATOM      4  C   UNL     1      31.849  -9.049 -21.900  0.00  0.00    +0.144 C 
ATOM      5  C   UNL     1      31.991  -6.763 -21.149  0.00  0.00    +0.066 C 
ATOM      6  C   UNL     1      32.015  -7.241 -23.544  0.00  0.00    +0.064 C 
ATOM      7  C   UNL     1      32.117  -5.882 -23.827  0.00  0.00    +0.065 C 
ATOM      8  C   UNL     1      32.156  -4.965 -22.784  0.00  0.00    +0.123 C 
ATOM      9  C   UNL     1      32.093  -5.410 -21.461  0.00  0.00    +0.109 C 
ATOM     10  C   UNL     1      31.788  -9.458 -20.576  0.00  0.00    +0.058 C 
ATOM     11  C   UNL     1      31.833  -8.480 -19.603  0.00  0.00    +0.102 C 
BRANCH   7  14
ATOM     12  O   UNL     1      32.910  -6.018 -26.041  0.00  0.00    -0.271 OA
ATOM     13  N   UNL     1      31.381  -4.371 -25.590  0.00  0.00    -0.325 N 
ATOM     14  C   UNL     1      32.181  -5.444 -25.214  0.00  0.00    +0.242 C 
ATOM     15  H   UNL     1      31.396  -4.047 -26.520  0.00  0.00    +0.145 HD
ATOM     16  H   UNL     1      30.798  -3.935 -24.927  0.00  0.00    +0.145 HD
ENDBRANCH   7  14
BRANCH   8  17
ATOM     17  O   UNL     1      32.254  -3.628 -23.029  0.00  0.00    -0.475 OA
ATOM     18  C   UNL     1      31.349  -2.774 -22.331  0.00  0.00    +0.252 C 
ENDBRANCH   8  17
ENDBRANCH   1   4
BRANCH   1  23
ATOM     19 CL   UNL     1      32.161 -14.206 -20.051  0.00  0.00    -0.081 Cl
ATOM     20  C   UNL     1      33.792 -13.577 -22.147  0.00  0.00    +0.062 C 
ATOM     21  C   UNL     1      32.709 -13.207 -21.349  0.00  0.00    +0.074 C 
ATOM     22  C   UNL     1      34.207 -12.747 -23.188  0.00  0.00    +0.019 C 
ATOM     23  C   UNL     1      32.467 -11.196 -22.631  0.00  0.00    +0.146 C 
ATOM     24  C   UNL     1      32.041 -12.007 -21.594  0.00  0.00    +0.050 C 
ATOM     25  C   UNL     1      33.539 -11.547 -23.433  0.00  0.00    +0.039 C 
BRANCH  20  28
ATOM     26  O   UNL     1      34.156 -15.966 -23.930  0.00  0.00    -0.252 OA
ATOM     27  N   UNL     1      35.396 -16.877 -22.208  0.00  0.00    -0.290 N 
ATOM     28  N   UNL     1      34.483 -14.773 -21.930  0.00  0.00    -0.268 N 
ATOM     29  C   UNL     1      34.626 -15.870 -22.799  0.00  0.00    +0.304 C 
ATOM     30  H   UNL     1      35.742 -16.734 -21.297  0.00  0.00    +0.151 HD
ATOM     31  H   UNL     1      34.926 -14.859 -21.055  0.00  0.00    +0.156 HD
BRANCH  27  32
ATOM     32  C   UNL     1      35.700 -18.112 -22.872  0.00  0.00    +0.073 C 
ATOM     33  C   UNL     1      34.610 -19.031 -23.318  0.00  0.00    +0.021 C 
ATOM     34  C   UNL     1      35.505 -19.421 -22.179  0.00  0.00    +0.021 C 
ENDBRANCH  27  32
ENDBRANCH  20  28
ENDBRANCH   1  23
TORSDOF 6
ENDMDL
MODEL 9
REMARK VINA RESULT:      -9.2      6.544     13.026
REMARK  Name = 9823820
REMARK  6 active torsions:
REMARK  status: ('A' for Active; 'I' for Inactive)
REMARK    1  A    between atoms: O_1  and  C_4
REMARK    2  A    between atoms: O_1  and  C_23
REMARK    3  A    between atoms: C_7  and  C_14
REMARK    4  A    between atoms: C_8  and  O_17
REMARK    5  A    between atoms: C_20  and  N_28
REMARK    6  A    between atoms: N_27  and  C_32
REMARK                            x       y       z     vdW  Elec       q    Type
REMARK                         _______ _______ _______ _____ _____    ______ ____
ROOT
ATOM      1  O   UNL     1      32.897 -12.529 -22.938  0.00  0.00    -0.454 OA
ENDROOT
BRANCH   1   4
ATOM      2  N   UNL     1      30.939 -10.228 -20.099  0.00  0.00    -0.248 NA
ATOM      3  C   UNL     1      32.525 -10.378 -21.906  0.00  0.00    +0.031 C 
ATOM      4  C   UNL     1      32.265 -11.751 -22.011  0.00  0.00    +0.144 C 
ATOM      5  C   UNL     1      31.830  -9.645 -20.922  0.00  0.00    +0.066 C 
ATOM      6  C   UNL     1      33.448  -9.737 -22.748  0.00  0.00    +0.064 C 
ATOM      7  C   UNL     1      33.688  -8.371 -22.622  0.00  0.00    +0.065 C 
ATOM      8  C   UNL     1      33.006  -7.643 -21.655  0.00  0.00    +0.123 C 
ATOM      9  C   UNL     1      32.088  -8.281 -20.818  0.00  0.00    +0.109 C 
ATOM     10  C   UNL     1      31.348 -12.355 -21.165  0.00  0.00    +0.058 C 
ATOM     11  C   UNL     1      30.716 -11.556 -20.233  0.00  0.00    +0.102 C 
BRANCH   7  14
ATOM     12  O   UNL     1      35.817  -8.143 -23.602  0.00  0.00    -0.271 OA
ATOM     13  N   UNL     1      34.210  -6.646 -24.260  0.00  0.00    -0.325 N 
ATOM     14  C   UNL     1      34.649  -7.729 -23.507  0.00  0.00    +0.242 C 
ATOM     15  H   UNL     1      34.831  -6.186 -24.871  0.00  0.00    +0.145 HD
ATOM     16  H   UNL     1      33.278  -6.338 -24.184  0.00  0.00    +0.145 HD
ENDBRANCH   7  14
BRANCH   8  17
ATOM     17  O   UNL     1      33.218  -6.304 -21.508  0.00  0.00    -0.475 OA
ATOM     18  C   UNL     1      32.062  -5.473 -21.410  0.00  0.00    +0.252 C 
ENDBRANCH   8  17
ENDBRANCH   1   4
BRANCH   1  23
ATOM     19 CL   UNL     1      35.120 -16.944 -24.078  0.00  0.00    -0.081 Cl
ATOM     20  C   UNL     1      34.917 -15.887 -21.571  0.00  0.00    +0.062 C 
ATOM     21  C   UNL     1      34.640 -15.746 -22.930  0.00  0.00    +0.074 C 
ATOM     22  C   UNL     1      34.516 -14.900 -20.671  0.00  0.00    +0.019 C 
ATOM     23  C   UNL     1      33.571 -13.648 -22.483  0.00  0.00    +0.146 C 
ATOM     24  C   UNL     1      33.962 -14.617 -23.390  0.00  0.00    +0.050 C 
ATOM     25  C   UNL     1      33.838 -13.770 -21.130  0.00  0.00    +0.039 C 
BRANCH  20  28
ATOM     26  O   UNL     1      34.062 -18.761 -21.391  0.00  0.00    -0.252 OA
ATOM     27  N   UNL     1      36.131 -19.163 -20.446  0.00  0.00    -0.290 N 
ATOM     28  N   UNL     1      35.596 -17.005 -21.076  0.00  0.00    -0.268 N 
ATOM     29  C   UNL     1      35.152 -18.339 -21.012  0.00  0.00    +0.304 C 
ATOM     30  H   UNL     1      36.983 -18.758 -20.164  0.00  0.00    +0.151 HD
ATOM     31  H   UNL     1      36.501 -16.837 -20.727  0.00  0.00    +0.156 HD
BRANCH  27  32
ATOM     32  C   UNL     1      35.945 -20.573 -20.259  0.00  0.00    +0.073 C 
ATOM     33  C   UNL     1      34.862 -21.091 -19.369  0.00  0.00    +0.021 C 
ATOM     34  C   UNL     1      36.299 -21.225 -18.963  0.00  0.00    +0.021 C 
ENDBRANCH  27  32
ENDBRANCH  20  28
ENDBRANCH   1  23
TORSDOF 6
ENDMDL
