MODEL 1
REMARK VINA RESULT:     -11.0      0.000      0.000
REMARK  Name = 17753965
REMARK  2 active torsions:
REMARK  status: ('A' for Active; 'I' for Inactive)
REMARK    1  A    between atoms: C_1  and  C_5
REMARK    2  A    between atoms: C_1  and  C_17
REMARK                            x       y       z     vdW  Elec       q    Type
REMARK                         _______ _______ _______ _____ _____    ______ ____
ROOT
ATOM      1  C   UNL     1      34.294 -22.689 -15.662  0.00  0.00    +0.038 C 
ENDROOT
BRANCH   1   5
ATOM      2  O   UNL     1      33.855 -23.823 -12.387  0.00  0.00    -0.424 OA
ATOM      3  O   UNL     1      36.678 -24.407 -15.292  0.00  0.00    -0.291 OA
ATOM      4  O   UNL     1      32.166 -23.756 -13.901  0.00  0.00    -0.249 OA
ATOM      5  C   UNL     1      34.381 -23.945 -14.798  0.00  0.00    +0.162 C 
ATOM      6  C   UNL     1      35.825 -24.189 -14.437  0.00  0.00    +0.186 C 
ATOM      7  C   UNL     1      33.372 -23.840 -13.681  0.00  0.00    +0.328 C 
ATOM      8  C   UNL     1      36.197 -24.140 -13.021  0.00  0.00    +0.070 C 
ATOM      9  C   UNL     1      35.214 -23.953 -12.064  0.00  0.00    +0.151 C 
ATOM     10  C   UNL     1      37.532 -24.277 -12.627  0.00  0.00    +0.006 C 
ATOM     11  C   UNL     1      35.538 -23.896 -10.709  0.00  0.00    +0.038 C 
ATOM     12  C   UNL     1      37.863 -24.221 -11.271  0.00  0.00    +0.000 C 
ATOM     13  C   UNL     1      36.868 -24.030 -10.313  0.00  0.00    +0.003 C 
ENDBRANCH   1   5
BRANCH   1  17
ATOM     14  O   UNL     1      32.531 -21.878 -18.584  0.00  0.00    -0.424 OA
ATOM     15  O   UNL     1      36.460 -22.578 -17.665  0.00  0.00    -0.291 OA
ATOM     16  O   UNL     1      31.799 -23.401 -17.070  0.00  0.00    -0.249 OA
ATOM     17  C   UNL     1      34.168 -23.042 -17.143  0.00  0.00    +0.162 C 
ATOM     18  C   UNL     1      35.275 -22.357 -17.903  0.00  0.00    +0.186 C 
ATOM     19  C   UNL     1      32.744 -22.805 -17.582  0.00  0.00    +0.328 C 
ATOM     20  C   UNL     1      34.903 -21.395 -18.944  0.00  0.00    +0.070 C 
ATOM     21  C   UNL     1      33.565 -21.189 -19.235  0.00  0.00    +0.151 C 
ATOM     22  C   UNL     1      35.882 -20.680 -19.641  0.00  0.00    +0.006 C 
ATOM     23  C   UNL     1      33.179 -20.275 -20.217  0.00  0.00    +0.038 C 
ATOM     24  C   UNL     1      35.503 -19.764 -20.626  0.00  0.00    +0.000 C 
ATOM     25  C   UNL     1      34.154 -19.561 -20.913  0.00  0.00    +0.003 C 
ENDBRANCH   1  17
TORSDOF 2
ENDMDL
MODEL 2
REMARK VINA RESULT:     -10.0      8.886     13.376
REMARK  Name = 17753965
REMARK  2 active torsions:
REMARK  status: ('A' for Active; 'I' for Inactive)
REMARK    1  A    between atoms: C_1  and  C_5
REMARK    2  A    between atoms: C_1  and  C_17
REMARK                            x       y       z     vdW  Elec       q    Type
REMARK                         _______ _______ _______ _____ _____    ______ ____
ROOT
ATOM      1  C   UNL     1      33.012 -13.773 -23.289  0.00  0.00    +0.038 C 
ENDROOT
BRANCH   1   5
ATOM      2  O   UNL     1      31.178 -11.286 -21.661  0.00  0.00    -0.424 OA
ATOM      3  O   UNL     1      34.527 -11.333 -24.012  0.00  0.00    -0.291 OA
ATOM      4  O   UNL     1      31.719 -13.257 -20.676  0.00  0.00    -0.249 OA
ATOM      5  C   UNL     1      33.174 -12.520 -22.432  0.00  0.00    +0.162 C 
ATOM      6  C   UNL     1      33.506 -11.355 -23.331  0.00  0.00    +0.186 C 
ATOM      7  C   UNL     1      31.983 -12.399 -21.515  0.00  0.00    +0.328 C 
ATOM      8  C   UNL     1      32.559 -10.239 -23.389  0.00  0.00    +0.070 C 
ATOM      9  C   UNL     1      31.442 -10.251 -22.571  0.00  0.00    +0.151 C 
ATOM     10  C   UNL     1      32.767  -9.167 -24.263  0.00  0.00    +0.006 C 
ATOM     11  C   UNL     1      30.518  -9.206 -22.607  0.00  0.00    +0.038 C 
ATOM     12  C   UNL     1      31.846  -8.118 -24.305  0.00  0.00    +0.000 C 
ATOM     13  C   UNL     1      30.722  -8.137 -23.478  0.00  0.00    +0.003 C 
ENDBRANCH   1   5
BRANCH   1  17
ATOM     14  O   UNL     1      35.152 -16.077 -21.735  0.00  0.00    -0.424 OA
ATOM     15  O   UNL     1      33.753 -15.529 -25.544  0.00  0.00    -0.291 OA
ATOM     16  O   UNL     1      35.216 -13.846 -21.327  0.00  0.00    -0.249 OA
ATOM     17  C   UNL     1      34.343 -14.503 -23.461  0.00  0.00    +0.162 C 
ATOM     18  C   UNL     1      34.140 -15.675 -24.387  0.00  0.00    +0.186 C 
ATOM     19  C   UNL     1      34.937 -14.762 -22.098  0.00  0.00    +0.328 C 
ATOM     20  C   UNL     1      34.408 -17.019 -23.868  0.00  0.00    +0.070 C 
ATOM     21  C   UNL     1      34.889 -17.167 -22.578  0.00  0.00    +0.151 C 
ATOM     22  C   UNL     1      34.180 -18.150 -24.657  0.00  0.00    +0.006 C 
ATOM     23  C   UNL     1      35.148 -18.434 -22.053  0.00  0.00    +0.038 C 
ATOM     24  C   UNL     1      34.437 -19.422 -24.138  0.00  0.00    +0.000 C 
ATOM     25  C   UNL     1      34.921 -19.564 -22.838  0.00  0.00    +0.003 C 
ENDBRANCH   1  17
TORSDOF 2
ENDMDL
MODEL 3
REMARK VINA RESULT:     -10.0      9.046     12.320
REMARK  Name = 17753965
REMARK  2 active torsions:
REMARK  status: ('A' for Active; 'I' for Inactive)
REMARK    1  A    between atoms: C_1  and  C_5
REMARK    2  A    between atoms: C_1  and  C_17
REMARK                            x       y       z     vdW  Elec       q    Type
REMARK                         _______ _______ _______ _____ _____    ______ ____
ROOT
ATOM      1  C   UNL     1      33.110 -13.984 -23.352  0.00  0.00    +0.038 C 
ENDROOT
BRANCH   1   5
ATOM      2  O   UNL     1      33.522 -16.875 -25.268  0.00  0.00    -0.424 OA
ATOM      3  O   UNL     1      35.590 -15.123 -22.201  0.00  0.00    -0.291 OA
ATOM      4  O   UNL     1      32.967 -14.870 -26.173  0.00  0.00    -0.249 OA
ATOM      5  C   UNL     1      34.165 -14.797 -24.098  0.00  0.00    +0.162 C 
ATOM      6  C   UNL     1      34.930 -15.632 -23.103  0.00  0.00    +0.186 C 
ATOM      7  C   UNL     1      33.509 -15.494 -25.264  0.00  0.00    +0.328 C 
ATOM      8  C   UNL     1      34.853 -17.090 -23.226  0.00  0.00    +0.070 C 
ATOM      9  C   UNL     1      34.154 -17.648 -24.283  0.00  0.00    +0.151 C 
ATOM     10  C   UNL     1      35.473 -17.921 -22.288  0.00  0.00    +0.006 C 
ATOM     11  C   UNL     1      34.058 -19.033 -24.423  0.00  0.00    +0.038 C 
ATOM     12  C   UNL     1      35.380 -19.308 -22.422  0.00  0.00    +0.000 C 
ATOM     13  C   UNL     1      34.673 -19.864 -23.489  0.00  0.00    +0.003 C 
ENDBRANCH   1   5
BRANCH   1  17
ATOM     14  O   UNL     1      33.013 -10.523 -22.792  0.00  0.00    -0.424 OA
ATOM     15  O   UNL     1      33.220 -13.843 -20.405  0.00  0.00    -0.291 OA
ATOM     16  O   UNL     1      34.268 -11.487 -24.418  0.00  0.00    -0.249 OA
ATOM     17  C   UNL     1      33.750 -12.868 -22.528  0.00  0.00    +0.162 C 
ATOM     18  C   UNL     1      33.140 -12.869 -21.149  0.00  0.00    +0.186 C 
ATOM     19  C   UNL     1      33.711 -11.588 -23.327  0.00  0.00    +0.328 C 
ATOM     20  C   UNL     1      32.428 -11.667 -20.709  0.00  0.00    +0.070 C 
ATOM     21  C   UNL     1      32.385 -10.558 -21.539  0.00  0.00    +0.151 C 
ATOM     22  C   UNL     1      31.788 -11.628 -19.467  0.00  0.00    +0.006 C 
ATOM     23  C   UNL     1      31.709  -9.401 -21.150  0.00  0.00    +0.038 C 
ATOM     24  C   UNL     1      31.109 -10.472 -19.071  0.00  0.00    +0.000 C 
ATOM     25  C   UNL     1      31.070  -9.360 -19.911  0.00  0.00    +0.003 C 
ENDBRANCH   1  17
TORSDOF 2
ENDMDL
MODEL 4
REMARK VINA RESULT:      -9.9      3.658      6.511
REMARK  Name = 17753965
REMARK  2 active torsions:
REMARK  status: ('A' for Active; 'I' for Inactive)
REMARK    1  A    between atoms: C_1  and  C_5
REMARK    2  A    between atoms: C_1  and  C_17
REMARK                            x       y       z     vdW  Elec       q    Type
REMARK                         _______ _______ _______ _____ _____    ______ ____
ROOT
ATOM      1  C   UNL     1      34.269 -18.958 -20.483  0.00  0.00    +0.038 C 
ENDROOT
BRANCH   1   5
ATOM      2  O   UNL     1      33.384 -21.856 -18.745  0.00  0.00    -0.424 OA
ATOM      3  O   UNL     1      36.906 -20.242 -20.065  0.00  0.00    -0.291 OA
ATOM      4  O   UNL     1      32.248 -21.120 -20.566  0.00  0.00    -0.249 OA
ATOM      5  C   UNL     1      34.546 -20.458 -20.417  0.00  0.00    +0.162 C 
ATOM      6  C   UNL     1      35.833 -20.683 -19.663  0.00  0.00    +0.186 C 
ATOM      7  C   UNL     1      33.303 -21.164 -19.938  0.00  0.00    +0.328 C 
ATOM      8  C   UNL     1      35.771 -21.437 -18.408  0.00  0.00    +0.070 C 
ATOM      9  C   UNL     1      34.565 -21.979 -17.998  0.00  0.00    +0.151 C 
ATOM     10  C   UNL     1      36.913 -21.611 -17.620  0.00  0.00    +0.006 C 
ATOM     11  C   UNL     1      34.473 -22.696 -16.805  0.00  0.00    +0.038 C 
ATOM     12  C   UNL     1      36.829 -22.327 -16.425  0.00  0.00    +0.000 C 
ATOM     13  C   UNL     1      35.609 -22.869 -16.017  0.00  0.00    +0.003 C 
ENDBRANCH   1   5
BRANCH   1  17
ATOM     14  O   UNL     1      34.610 -17.913 -23.813  0.00  0.00    -0.424 OA
ATOM     15  O   UNL     1      35.389 -16.246 -20.156  0.00  0.00    -0.291 OA
ATOM     16  O   UNL     1      35.163 -19.994 -23.099  0.00  0.00    -0.249 OA
ATOM     17  C   UNL     1      35.228 -18.258 -21.445  0.00  0.00    +0.162 C 
ATOM     18  C   UNL     1      35.127 -16.769 -21.236  0.00  0.00    +0.186 C 
ATOM     19  C   UNL     1      35.008 -18.803 -22.835  0.00  0.00    +0.328 C 
ATOM     20  C   UNL     1      34.693 -15.942 -22.365  0.00  0.00    +0.070 C 
ATOM     21  C   UNL     1      34.446 -16.538 -23.590  0.00  0.00    +0.151 C 
ATOM     22  C   UNL     1      34.520 -14.562 -22.217  0.00  0.00    +0.006 C 
ATOM     23  C   UNL     1      34.025 -15.777 -24.683  0.00  0.00    +0.038 C 
ATOM     24  C   UNL     1      34.099 -13.795 -23.306  0.00  0.00    +0.000 C 
ATOM     25  C   UNL     1      33.852 -14.402 -24.537  0.00  0.00    +0.003 C 
ENDBRANCH   1  17
TORSDOF 2
ENDMDL
MODEL 5
REMARK VINA RESULT:      -9.9      2.428      7.367
REMARK  Name = 17753965
REMARK  2 active torsions:
REMARK  status: ('A' for Active; 'I' for Inactive)
REMARK    1  A    between atoms: C_1  and  C_5
REMARK    2  A    between atoms: C_1  and  C_17
REMARK                            x       y       z     vdW  Elec       q    Type
REMARK                         _______ _______ _______ _____ _____    ______ ____
ROOT
ATOM      1  C   UNL     1      34.490 -22.131 -16.903  0.00  0.00    +0.038 C 
ENDROOT
BRANCH   1   5
ATOM      2  O   UNL     1      37.083 -20.572 -18.648  0.00  0.00    -0.424 OA
ATOM      3  O   UNL     1      33.541 -22.330 -19.701  0.00  0.00    -0.291 OA
ATOM      4  O   UNL     1      37.449 -22.072 -16.985  0.00  0.00    -0.249 OA
ATOM      5  C   UNL     1      35.363 -22.272 -18.147  0.00  0.00    +0.162 C 
ATOM      6  C   UNL     1      34.584 -21.789 -19.345  0.00  0.00    +0.186 C 
ATOM      7  C   UNL     1      36.709 -21.652 -17.872  0.00  0.00    +0.328 C 
ATOM      8  C   UNL     1      35.097 -20.628 -20.077  0.00  0.00    +0.070 C 
ATOM      9  C   UNL     1      36.305 -20.066 -19.700  0.00  0.00    +0.151 C 
ATOM     10  C   UNL     1      34.381 -20.081 -21.146  0.00  0.00    +0.006 C 
ATOM     11  C   UNL     1      36.818 -18.957 -20.373  0.00  0.00    +0.038 C 
ATOM     12  C   UNL     1      34.888 -18.970 -21.824  0.00  0.00    +0.000 C 
ATOM     13  C   UNL     1      36.105 -18.408 -21.438  0.00  0.00    +0.003 C 
ENDBRANCH   1   5
BRANCH   1  17
ATOM     14  O   UNL     1      33.739 -24.373 -14.312  0.00  0.00    -0.424 OA
ATOM     15  O   UNL     1      31.615 -22.634 -17.350  0.00  0.00    -0.291 OA
ATOM     16  O   UNL     1      35.624 -24.507 -15.567  0.00  0.00    -0.249 OA
ATOM     17  C   UNL     1      33.745 -23.430 -16.597  0.00  0.00    +0.162 C 
ATOM     18  C   UNL     1      32.278 -23.125 -16.439  0.00  0.00    +0.186 C 
ATOM     19  C   UNL     1      34.453 -24.145 -15.472  0.00  0.00    +0.328 C 
ATOM     20  C   UNL     1      31.647 -23.421 -15.151  0.00  0.00    +0.070 C 
ATOM     21  C   UNL     1      32.393 -24.018 -14.148  0.00  0.00    +0.151 C 
ATOM     22  C   UNL     1      30.304 -23.104 -14.921  0.00  0.00    +0.006 C 
ATOM     23  C   UNL     1      31.821 -24.306 -12.908  0.00  0.00    +0.038 C 
ATOM     24  C   UNL     1      29.726 -23.391 -13.682  0.00  0.00    +0.000 C 
ATOM     25  C   UNL     1      30.483 -23.991 -12.676  0.00  0.00    +0.003 C 
ENDBRANCH   1  17
TORSDOF 2
ENDMDL
MODEL 6
REMARK VINA RESULT:      -9.8     11.487     15.237
REMARK  Name = 17753965
REMARK  2 active torsions:
REMARK  status: ('A' for Active; 'I' for Inactive)
REMARK    1  A    between atoms: C_1  and  C_5
REMARK    2  A    between atoms: C_1  and  C_17
REMARK                            x       y       z     vdW  Elec       q    Type
REMARK                         _______ _______ _______ _____ _____    ______ ____
ROOT
ATOM      1  C   UNL     1      32.595  -9.537 -21.825  0.00  0.00    +0.038 C 
ENDROOT
BRANCH   1   5
ATOM      2  O   UNL     1      32.087 -12.530 -20.097  0.00  0.00    -0.424 OA
ATOM      3  O   UNL     1      33.136 -11.551 -23.930  0.00  0.00    -0.291 OA
ATOM      4  O   UNL     1      30.683 -10.756 -19.921  0.00  0.00    -0.249 OA
ATOM      5  C   UNL     1      31.940 -10.910 -21.956  0.00  0.00    +0.162 C 
ATOM      6  C   UNL     1      32.844 -11.806 -22.765  0.00  0.00    +0.186 C 
ATOM      7  C   UNL     1      31.507 -11.377 -20.589  0.00  0.00    +0.328 C 
ATOM      8  C   UNL     1      33.390 -13.000 -22.114  0.00  0.00    +0.070 C 
ATOM      9  C   UNL     1      33.004 -13.307 -20.820  0.00  0.00    +0.151 C 
ATOM     10  C   UNL     1      34.298 -13.828 -22.782  0.00  0.00    +0.006 C 
ATOM     11  C   UNL     1      33.511 -14.433 -20.172  0.00  0.00    +0.038 C 
ATOM     12  C   UNL     1      34.811 -14.956 -22.139  0.00  0.00    +0.000 C 
ATOM     13  C   UNL     1      34.418 -15.259 -20.834  0.00  0.00    +0.003 C 
ENDBRANCH   1   5
BRANCH   1  17
ATOM     14  O   UNL     1      32.340  -6.289 -20.528  0.00  0.00    -0.424 OA
ATOM     15  O   UNL     1      30.456  -8.381 -23.501  0.00  0.00    -0.291 OA
ATOM     16  O   UNL     1      32.563  -8.135 -19.228  0.00  0.00    -0.249 OA
ATOM     17  C   UNL     1      31.583  -8.479 -21.389  0.00  0.00    +0.162 C 
ATOM     18  C   UNL     1      31.053  -7.777 -22.614  0.00  0.00    +0.186 C 
ATOM     19  C   UNL     1      32.195  -7.642 -20.293  0.00  0.00    +0.328 C 
ATOM     20  C   UNL     1      31.278  -6.334 -22.732  0.00  0.00    +0.070 C 
ATOM     21  C   UNL     1      31.911  -5.656 -21.704  0.00  0.00    +0.151 C 
ATOM     22  C   UNL     1      30.866  -5.637 -23.872  0.00  0.00    +0.006 C 
ATOM     23  C   UNL     1      32.144  -4.283 -21.791  0.00  0.00    +0.038 C 
ATOM     24  C   UNL     1      31.096  -4.262 -23.965  0.00  0.00    +0.000 C 
ATOM     25  C   UNL     1      31.734  -3.586 -22.926  0.00  0.00    +0.003 C 
ENDBRANCH   1  17
TORSDOF 2
ENDMDL
MODEL 7
REMARK VINA RESULT:      -9.7      4.321     10.172
REMARK  Name = 17753965
REMARK  2 active torsions:
REMARK  status: ('A' for Active; 'I' for Inactive)
REMARK    1  A    between atoms: C_1  and  C_5
REMARK    2  A    between atoms: C_1  and  C_17
REMARK                            x       y       z     vdW  Elec       q    Type
REMARK                         _______ _______ _______ _____ _____    ______ ____
ROOT
ATOM      1  C   UNL     1      34.352 -18.105 -20.845  0.00  0.00    +0.038 C 
ENDROOT
BRANCH   1   5
ATOM      2  O   UNL     1      34.357 -14.672 -21.492  0.00  0.00    -0.424 OA
ATOM      3  O   UNL     1      35.210 -18.025 -23.679  0.00  0.00    -0.291 OA
ATOM      4  O   UNL     1      35.224 -15.567 -19.595  0.00  0.00    -0.249 OA
ATOM      5  C   UNL     1      35.172 -17.004 -21.512  0.00  0.00    +0.162 C 
ATOM      6  C   UNL     1      34.923 -17.044 -22.999  0.00  0.00    +0.186 C 
ATOM      7  C   UNL     1      34.935 -15.707 -20.781  0.00  0.00    +0.328 C 
ATOM      8  C   UNL     1      34.301 -15.873 -23.623  0.00  0.00    +0.070 C 
ATOM      9  C   UNL     1      34.037 -14.752 -22.856  0.00  0.00    +0.151 C 
ATOM     10  C   UNL     1      33.969 -15.878 -24.982  0.00  0.00    +0.006 C 
ATOM     11  C   UNL     1      33.441 -13.624 -23.420  0.00  0.00    +0.038 C 
ATOM     12  C   UNL     1      33.371 -14.752 -25.553  0.00  0.00    +0.000 C 
ATOM     13  C   UNL     1      33.107 -13.626 -24.773  0.00  0.00    +0.003 C 
ENDBRANCH   1   5
BRANCH   1  17
ATOM     14  O   UNL     1      36.895 -20.032 -19.389  0.00  0.00    -0.424 OA
ATOM     15  O   UNL     1      33.065 -20.755 -20.643  0.00  0.00    -0.291 OA
ATOM     16  O   UNL     1      37.266 -18.530 -21.049  0.00  0.00    -0.249 OA
ATOM     17  C   UNL     1      35.057 -19.457 -20.939  0.00  0.00    +0.162 C 
ATOM     18  C   UNL     1      34.205 -20.499 -20.261  0.00  0.00    +0.186 C 
ATOM     19  C   UNL     1      36.486 -19.294 -20.483  0.00  0.00    +0.328 C 
ATOM     20  C   UNL     1      34.768 -21.209 -19.110  0.00  0.00    +0.070 C 
ATOM     21  C   UNL     1      36.070 -20.946 -18.718  0.00  0.00    +0.151 C 
ATOM     22  C   UNL     1      34.006 -22.142 -18.400  0.00  0.00    +0.006 C 
ATOM     23  C   UNL     1      36.633 -21.601 -17.622  0.00  0.00    +0.038 C 
ATOM     24  C   UNL     1      34.563 -22.802 -17.302  0.00  0.00    +0.000 C 
ATOM     25  C   UNL     1      35.874 -22.532 -16.913  0.00  0.00    +0.003 C 
ENDBRANCH   1  17
TORSDOF 2
ENDMDL
MODEL 8
REMARK VINA RESULT:      -9.5      1.128      2.248
REMARK  Name = 17753965
REMARK  2 active torsions:
REMARK  status: ('A' for Active; 'I' for Inactive)
REMARK    1  A    between atoms: C_1  and  C_5
REMARK    2  A    between atoms: C_1  and  C_17
REMARK                            x       y       z     vdW  Elec       q    Type
REMARK                         _______ _______ _______ _____ _____    ______ ____
ROOT
ATOM      1  C   UNL     1      34.575 -24.338 -16.453  0.00  0.00    +0.038 C 
ENDROOT
BRANCH   1   5
ATOM      2  O   UNL     1      34.780 -23.295 -13.126  0.00  0.00    -0.424 OA
ATOM      3  O   UNL     1      36.140 -26.534 -15.227  0.00  0.00    -0.291 OA
ATOM      4  O   UNL     1      32.858 -23.195 -14.329  0.00  0.00    -0.249 OA
ATOM      5  C   UNL     1      34.451 -24.847 -15.019  0.00  0.00    +0.162 C 
ATOM      6  C   UNL     1      35.737 -25.537 -14.635  0.00  0.00    +0.186 C 
ATOM      7  C   UNL     1      33.951 -23.726 -14.144  0.00  0.00    +0.328 C 
ATOM      8  C   UNL     1      36.518 -24.969 -13.533  0.00  0.00    +0.070 C 
ATOM      9  C   UNL     1      36.021 -23.880 -12.836  0.00  0.00    +0.151 C 
ATOM     10  C   UNL     1      37.757 -25.512 -13.180  0.00  0.00    +0.006 C 
ATOM     11  C   UNL     1      36.744 -23.314 -11.786  0.00  0.00    +0.038 C 
ATOM     12  C   UNL     1      38.487 -24.950 -12.130  0.00  0.00    +0.000 C 
ATOM     13  C   UNL     1      37.981 -23.852 -11.433  0.00  0.00    +0.003 C 
ENDBRANCH   1   5
BRANCH   1  17
ATOM     14  O   UNL     1      36.417 -21.669 -17.788  0.00  0.00    -0.424 OA
ATOM     15  O   UNL     1      32.435 -22.521 -17.366  0.00  0.00    -0.291 OA
ATOM     16  O   UNL     1      36.950 -22.697 -15.837  0.00  0.00    -0.249 OA
ATOM     17  C   UNL     1      34.647 -22.813 -16.496  0.00  0.00    +0.162 C 
ATOM     18  C   UNL     1      33.637 -22.305 -17.493  0.00  0.00    +0.186 C 
ATOM     19  C   UNL     1      36.089 -22.397 -16.662  0.00  0.00    +0.328 C 
ATOM     20  C   UNL     1      34.128 -21.542 -18.643  0.00  0.00    +0.070 C 
ATOM     21  C   UNL     1      35.481 -21.264 -18.750  0.00  0.00    +0.151 C 
ATOM     22  C   UNL     1      33.248 -21.097 -19.635  0.00  0.00    +0.006 C 
ATOM     23  C   UNL     1      35.979 -20.546 -19.838  0.00  0.00    +0.038 C 
ATOM     24  C   UNL     1      33.741 -20.376 -20.727  0.00  0.00    +0.000 C 
ATOM     25  C   UNL     1      35.104 -20.101 -20.828  0.00  0.00    +0.003 C 
ENDBRANCH   1  17
TORSDOF 2
ENDMDL
MODEL 9
REMARK VINA RESULT:      -9.5      1.754      7.075
REMARK  Name = 17753965
REMARK  2 active torsions:
REMARK  status: ('A' for Active; 'I' for Inactive)
REMARK    1  A    between atoms: C_1  and  C_5
REMARK    2  A    between atoms: C_1  and  C_17
REMARK                            x       y       z     vdW  Elec       q    Type
REMARK                         _______ _______ _______ _____ _____    ______ ____
ROOT
ATOM      1  C   UNL     1      35.190 -22.286 -14.887  0.00  0.00    +0.038 C 
ENDROOT
BRANCH   1   5
ATOM      2  O   UNL     1      36.809 -21.509 -17.883  0.00  0.00    -0.424 OA
ATOM      3  O   UNL     1      33.215 -23.200 -16.897  0.00  0.00    -0.291 OA
ATOM      4  O   UNL     1      37.867 -22.495 -16.134  0.00  0.00    -0.249 OA
ATOM      5  C   UNL     1      35.500 -22.848 -16.272  0.00  0.00    +0.162 C 
ATOM      6  C   UNL     1      34.290 -22.667 -17.154  0.00  0.00    +0.186 C 
ATOM      7  C   UNL     1      36.819 -22.288 -16.742  0.00  0.00    +0.328 C 
ATOM      8  C   UNL     1      34.423 -21.810 -18.335  0.00  0.00    +0.070 C 
ATOM      9  C   UNL     1      35.657 -21.264 -18.646  0.00  0.00    +0.151 C 
ATOM     10  C   UNL     1      33.319 -21.536 -19.149  0.00  0.00    +0.006 C 
ATOM     11  C   UNL     1      35.814 -20.440 -19.760  0.00  0.00    +0.038 C 
ATOM     12  C   UNL     1      33.469 -20.711 -20.266  0.00  0.00    +0.000 C 
ATOM     13  C   UNL     1      34.715 -20.163 -20.571  0.00  0.00    +0.003 C 
ENDBRANCH   1   5
BRANCH   1  17
ATOM     14  O   UNL     1      35.447 -25.744 -14.362  0.00  0.00    -0.424 OA
ATOM     15  O   UNL     1      37.508 -22.452 -13.067  0.00  0.00    -0.291 OA
ATOM     16  O   UNL     1      33.471 -24.630 -14.375  0.00  0.00    -0.249 OA
ATOM     17  C   UNL     1      35.406 -23.337 -13.800  0.00  0.00    +0.162 C 
ATOM     18  C   UNL     1      36.879 -23.419 -13.488  0.00  0.00    +0.186 C 
ATOM     19  C   UNL     1      34.686 -24.603 -14.195  0.00  0.00    +0.328 C 
ATOM     20  C   UNL     1      37.561 -24.697 -13.711  0.00  0.00    +0.070 C 
ATOM     21  C   UNL     1      36.831 -25.792 -14.141  0.00  0.00    +0.151 C 
ATOM     22  C   UNL     1      38.938 -24.820 -13.500  0.00  0.00    +0.006 C 
ATOM     23  C   UNL     1      37.453 -27.021 -14.368  0.00  0.00    +0.038 C 
ATOM     24  C   UNL     1      39.567 -26.047 -13.725  0.00  0.00    +0.000 C 
ATOM     25  C   UNL     1      38.826 -27.146 -14.159  0.00  0.00    +0.003 C 
ENDBRANCH   1  17
TORSDOF 2
ENDMDL
