MODEL 1
REMARK VINA RESULT:     -11.8      0.000      0.000
REMARK  Name = 449087
REMARK  3 active torsions:
REMARK  status: ('A' for Active; 'I' for Inactive)
REMARK    1  A    between atoms: C_5  and  C_11
REMARK    2  A    between atoms: C_8  and  C_14
REMARK    3  A    between atoms: C_14  and  C_15
REMARK                            x       y       z     vdW  Elec       q    Type
REMARK                         _______ _______ _______ _____ _____    ______ ____
ROOT
ATOM      1  O   UNL     1      35.340 -16.837 -20.830  0.00  0.00    -0.274 OA
ATOM      2  N   UNL     1      33.889 -15.228 -25.205  0.00  0.00    -0.239 N 
ATOM      3  N   UNL     1      34.478 -16.423 -25.026  0.00  0.00    -0.166 NA
ATOM      4  N   UNL     1      35.304 -17.525 -23.076  0.00  0.00    -0.268 N 
ATOM      5  C   UNL     1      33.737 -14.510 -24.055  0.00  0.00    +0.045 C 
ATOM      6  C   UNL     1      34.261 -15.290 -23.053  0.00  0.00    +0.048 C 
ATOM      7  C   UNL     1      34.695 -16.440 -23.718  0.00  0.00    +0.152 C 
ATOM      8  C   UNL     1      35.579 -17.650 -21.716  0.00  0.00    +0.232 C 
ATOM      9  H   UNL     1      33.595 -14.901 -26.085  0.00  0.00    +0.174 HD
ATOM     10  H   UNL     1      35.567 -18.282 -23.648  0.00  0.00    +0.156 HD
ENDROOT
BRANCH   5  11
ATOM     11  C   UNL     1      33.110 -13.129 -23.919  0.00  0.00    +0.037 C 
ATOM     12  C   UNL     1      33.180 -12.417 -22.591  0.00  0.00    +0.006 C 
ATOM     13  C   UNL     1      34.006 -11.928 -23.746  0.00  0.00    +0.006 C 
ENDBRANCH   5  11
BRANCH   8  14
ATOM     14  C   UNL     1      36.250 -18.989 -21.420  0.00  0.00    +0.112 C 
BRANCH  14  15
ATOM     15  C   UNL     1      35.451 -19.883 -20.531  0.00  0.00    -0.013 C 
ATOM     16  C   UNL     1      35.336 -21.405 -18.638  0.00  0.00    -0.000 C 
ATOM     17  C   UNL     1      36.074 -20.560 -19.483  0.00  0.00    -0.004 C 
ATOM     18  C   UNL     1      33.947 -21.563 -18.858  0.00  0.00    -0.000 C 
ATOM     19  C   UNL     1      34.085 -20.038 -20.748  0.00  0.00    -0.004 C 
ATOM     20  C   UNL     1      33.337 -20.872 -19.918  0.00  0.00    -0.000 C 
ATOM     21  C   UNL     1      35.947 -22.096 -17.578  0.00  0.00    -0.000 C 
ATOM     22  C   UNL     1      33.209 -22.408 -18.012  0.00  0.00    -0.000 C 
ATOM     23  C   UNL     1      35.198 -22.932 -16.748  0.00  0.00    -0.000 C 
ATOM     24  C   UNL     1      33.832 -23.087 -16.965  0.00  0.00    -0.000 C 
ENDBRANCH  14  15
ENDBRANCH   8  14
TORSDOF 3
ENDMDL
MODEL 2
REMARK VINA RESULT:     -11.6      1.536      2.653
REMARK  Name = 449087
REMARK  3 active torsions:
REMARK  status: ('A' for Active; 'I' for Inactive)
REMARK    1  A    between atoms: C_5  and  C_11
REMARK    2  A    between atoms: C_8  and  C_14
REMARK    3  A    between atoms: C_14  and  C_15
REMARK                            x       y       z     vdW  Elec       q    Type
REMARK                         _______ _______ _______ _____ _____    ______ ____
ROOT
ATOM      1  O   UNL     1      34.953 -16.028 -20.769  0.00  0.00    -0.274 OA
ATOM      2  N   UNL     1      32.938 -12.619 -23.625  0.00  0.00    -0.239 N 
ATOM      3  N   UNL     1      33.539 -13.717 -24.113  0.00  0.00    -0.166 NA
ATOM      4  N   UNL     1      34.612 -15.564 -23.047  0.00  0.00    -0.268 N 
ATOM      5  C   UNL     1      32.946 -12.545 -22.263  0.00  0.00    +0.045 C 
ATOM      6  C   UNL     1      33.594 -13.675 -21.829  0.00  0.00    +0.048 C 
ATOM      7  C   UNL     1      33.929 -14.342 -23.011  0.00  0.00    +0.152 C 
ATOM      8  C   UNL     1      35.066 -16.304 -21.958  0.00  0.00    +0.232 C 
ATOM      9  H   UNL     1      32.531 -11.930 -24.198  0.00  0.00    +0.174 HD
ATOM     10  H   UNL     1      34.791 -15.941 -23.939  0.00  0.00    +0.156 HD
ENDROOT
BRANCH   5  11
ATOM     11  C   UNL     1      32.351 -11.436 -21.407  0.00  0.00    +0.037 C 
ATOM     12  C   UNL     1      30.887 -11.488 -21.047  0.00  0.00    +0.006 C 
ATOM     13  C   UNL     1      31.925 -11.744 -19.993  0.00  0.00    +0.006 C 
ENDBRANCH   5  11
BRANCH   8  14
ATOM     14  C   UNL     1      35.763 -17.581 -22.423  0.00  0.00    +0.112 C 
BRANCH  14  15
ATOM     15  C   UNL     1      35.763 -18.675 -21.409  0.00  0.00    -0.013 C 
ATOM     16  C   UNL     1      34.551 -20.337 -20.111  0.00  0.00    -0.000 C 
ATOM     17  C   UNL     1      34.567 -19.306 -21.064  0.00  0.00    -0.004 C 
ATOM     18  C   UNL     1      35.764 -20.735 -19.501  0.00  0.00    -0.000 C 
ATOM     19  C   UNL     1      36.956 -19.067 -20.809  0.00  0.00    -0.004 C 
ATOM     20  C   UNL     1      36.958 -20.090 -19.861  0.00  0.00    -0.000 C 
ATOM     21  C   UNL     1      33.356 -20.983 -19.751  0.00  0.00    -0.000 C 
ATOM     22  C   UNL     1      35.747 -21.768 -18.548  0.00  0.00    -0.000 C 
ATOM     23  C   UNL     1      33.358 -22.006 -18.802  0.00  0.00    -0.000 C 
ATOM     24  C   UNL     1      34.551 -22.397 -18.202  0.00  0.00    -0.000 C 
ENDBRANCH  14  15
ENDBRANCH   8  14
TORSDOF 3
ENDMDL
MODEL 3
REMARK VINA RESULT:     -11.4      1.890      7.962
REMARK  Name = 449087
REMARK  3 active torsions:
REMARK  status: ('A' for Active; 'I' for Inactive)
REMARK    1  A    between atoms: C_5  and  C_11
REMARK    2  A    between atoms: C_8  and  C_14
REMARK    3  A    between atoms: C_14  and  C_15
REMARK                            x       y       z     vdW  Elec       q    Type
REMARK                         _______ _______ _______ _____ _____    ______ ____
ROOT
ATOM      1  O   UNL     1      34.165 -18.572 -23.426  0.00  0.00    -0.274 OA
ATOM      2  N   UNL     1      36.752 -19.884 -19.499  0.00  0.00    -0.239 N 
ATOM      3  N   UNL     1      36.972 -18.740 -20.169  0.00  0.00    -0.166 NA
ATOM      4  N   UNL     1      35.930 -17.783 -22.092  0.00  0.00    -0.268 N 
ATOM      5  C   UNL     1      35.743 -20.641 -20.018  0.00  0.00    +0.045 C 
ATOM      6  C   UNL     1      35.269 -19.944 -21.102  0.00  0.00    +0.048 C 
ATOM      7  C   UNL     1      36.065 -18.796 -21.134  0.00  0.00    +0.152 C 
ATOM      8  C   UNL     1      35.018 -17.738 -23.143  0.00  0.00    +0.232 C 
ATOM      9  H   UNL     1      37.272 -20.151 -18.707  0.00  0.00    +0.174 HD
ATOM     10  H   UNL     1      36.547 -17.020 -22.013  0.00  0.00    +0.156 HD
ENDROOT
BRANCH   5  11
ATOM     11  C   UNL     1      35.249 -21.983 -19.494  0.00  0.00    +0.037 C 
ATOM     12  C   UNL     1      34.959 -22.136 -18.022  0.00  0.00    +0.006 C 
ATOM     13  C   UNL     1      33.827 -22.103 -19.006  0.00  0.00    +0.006 C 
ENDBRANCH   5  11
BRANCH   8  14
ATOM     14  C   UNL     1      35.195 -16.461 -23.960  0.00  0.00    +0.112 C 
BRANCH  14  15
ATOM     15  C   UNL     1      34.320 -15.334 -23.521  0.00  0.00    -0.013 C 
ATOM     16  C   UNL     1      33.355 -13.997 -21.734  0.00  0.00    -0.000 C 
ATOM     17  C   UNL     1      34.175 -15.054 -22.163  0.00  0.00    -0.004 C 
ATOM     18  C   UNL     1      32.675 -13.213 -22.696  0.00  0.00    -0.000 C 
ATOM     19  C   UNL     1      33.652 -14.563 -24.468  0.00  0.00    -0.004 C 
ATOM     20  C   UNL     1      32.835 -13.510 -24.059  0.00  0.00    -0.000 C 
ATOM     21  C   UNL     1      33.196 -13.701 -20.370  0.00  0.00    -0.000 C 
ATOM     22  C   UNL     1      31.856 -12.156 -22.266  0.00  0.00    -0.000 C 
ATOM     23  C   UNL     1      32.377 -12.647 -19.961  0.00  0.00    -0.000 C 
ATOM     24  C   UNL     1      31.709 -11.876 -20.907  0.00  0.00    -0.000 C 
ENDBRANCH  14  15
ENDBRANCH   8  14
TORSDOF 3
ENDMDL
MODEL 4
REMARK VINA RESULT:     -11.0      2.208      8.205
REMARK  Name = 449087
REMARK  3 active torsions:
REMARK  status: ('A' for Active; 'I' for Inactive)
REMARK    1  A    between atoms: C_5  and  C_11
REMARK    2  A    between atoms: C_8  and  C_14
REMARK    3  A    between atoms: C_14  and  C_15
REMARK                            x       y       z     vdW  Elec       q    Type
REMARK                         _______ _______ _______ _____ _____    ______ ____
ROOT
ATOM      1  O   UNL     1      36.885 -19.433 -20.543  0.00  0.00    -0.274 OA
ATOM      2  N   UNL     1      32.710 -21.675 -19.366  0.00  0.00    -0.239 N 
ATOM      3  N   UNL     1      32.774 -20.675 -20.262  0.00  0.00    -0.166 NA
ATOM      4  N   UNL     1      34.597 -19.368 -21.076  0.00  0.00    -0.268 N 
ATOM      5  C   UNL     1      33.916 -22.002 -18.818  0.00  0.00    +0.045 C 
ATOM      6  C   UNL     1      34.832 -21.159 -19.397  0.00  0.00    +0.048 C 
ATOM      7  C   UNL     1      34.066 -20.378 -20.265  0.00  0.00    +0.152 C 
ATOM      8  C   UNL     1      35.930 -18.973 -21.160  0.00  0.00    +0.232 C 
ATOM      9  H   UNL     1      31.870 -22.129 -19.127  0.00  0.00    +0.174 HD
ATOM     10  H   UNL     1      33.960 -18.884 -21.650  0.00  0.00    +0.156 HD
ENDROOT
BRANCH   5  11
ATOM     11  C   UNL     1      34.181 -23.083 -17.780  0.00  0.00    +0.037 C 
ATOM     12  C   UNL     1      34.634 -22.682 -16.398  0.00  0.00    +0.006 C 
ATOM     13  C   UNL     1      33.248 -23.220 -16.603  0.00  0.00    +0.006 C 
ENDBRANCH   5  11
BRANCH   8  14
ATOM     14  C   UNL     1      36.097 -17.836 -22.166  0.00  0.00    +0.112 C 
BRANCH  14  15
ATOM     15  C   UNL     1      35.307 -16.614 -21.834  0.00  0.00    -0.013 C 
ATOM     16  C   UNL     1      34.087 -14.639 -22.560  0.00  0.00    -0.000 C 
ATOM     17  C   UNL     1      34.832 -15.792 -22.856  0.00  0.00    -0.004 C 
ATOM     18  C   UNL     1      33.818 -14.316 -21.209  0.00  0.00    -0.000 C 
ATOM     19  C   UNL     1      35.043 -16.296 -20.505  0.00  0.00    -0.004 C 
ATOM     20  C   UNL     1      34.304 -15.155 -20.193  0.00  0.00    -0.000 C 
ATOM     21  C   UNL     1      33.602 -13.799 -23.577  0.00  0.00    -0.000 C 
ATOM     22  C   UNL     1      33.073 -13.163 -20.913  0.00  0.00    -0.000 C 
ATOM     23  C   UNL     1      32.863 -12.657 -23.264  0.00  0.00    -0.000 C 
ATOM     24  C   UNL     1      32.599 -12.340 -21.935  0.00  0.00    -0.000 C 
ENDBRANCH  14  15
ENDBRANCH   8  14
TORSDOF 3
ENDMDL
MODEL 5
REMARK VINA RESULT:     -10.7      3.491      8.619
REMARK  Name = 449087
REMARK  3 active torsions:
REMARK  status: ('A' for Active; 'I' for Inactive)
REMARK    1  A    between atoms: C_5  and  C_11
REMARK    2  A    between atoms: C_8  and  C_14
REMARK    3  A    between atoms: C_14  and  C_15
REMARK                            x       y       z     vdW  Elec       q    Type
REMARK                         _______ _______ _______ _____ _____    ______ ____
ROOT
ATOM      1  O   UNL     1      33.624 -20.665 -19.910  0.00  0.00    -0.274 OA
ATOM      2  N   UNL     1      34.082 -23.648 -16.071  0.00  0.00    -0.239 N 
ATOM      3  N   UNL     1      35.137 -23.137 -16.728  0.00  0.00    -0.166 NA
ATOM      4  N   UNL     1      35.300 -21.674 -18.608  0.00  0.00    -0.268 N 
ATOM      5  C   UNL     1      32.877 -23.258 -16.577  0.00  0.00    +0.045 C 
ATOM      6  C   UNL     1      33.163 -22.433 -17.636  0.00  0.00    +0.048 C 
ATOM      7  C   UNL     1      34.559 -22.405 -17.671  0.00  0.00    +0.152 C 
ATOM      8  C   UNL     1      34.800 -20.876 -19.634  0.00  0.00    +0.232 C 
ATOM      9  H   UNL     1      34.171 -24.250 -15.298  0.00  0.00    +0.174 HD
ATOM     10  H   UNL     1      36.280 -21.730 -18.533  0.00  0.00    +0.156 HD
ENDROOT
BRANCH   5  11
ATOM     11  C   UNL     1      31.501 -23.658 -16.063  0.00  0.00    +0.037 C 
ATOM     12  C   UNL     1      30.961 -23.001 -14.816  0.00  0.00    +0.006 C 
ATOM     13  C   UNL     1      30.365 -22.669 -16.153  0.00  0.00    +0.006 C 
ENDBRANCH   5  11
BRANCH   8  14
ATOM     14  C   UNL     1      35.939 -20.248 -20.435  0.00  0.00    +0.112 C 
BRANCH  14  15
ATOM     15  C   UNL     1      35.483 -19.304 -21.497  0.00  0.00    -0.013 C 
ATOM     16  C   UNL     1      35.050 -17.029 -22.241  0.00  0.00    -0.000 C 
ATOM     17  C   UNL     1      35.477 -17.931 -21.252  0.00  0.00    -0.004 C 
ATOM     18  C   UNL     1      34.626 -17.527 -23.496  0.00  0.00    -0.000 C 
ATOM     19  C   UNL     1      35.066 -19.794 -22.731  0.00  0.00    -0.004 C 
ATOM     20  C   UNL     1      34.640 -18.913 -23.724  0.00  0.00    -0.000 C 
ATOM     21  C   UNL     1      35.036 -15.643 -22.012  0.00  0.00    -0.000 C 
ATOM     22  C   UNL     1      34.201 -16.625 -24.485  0.00  0.00    -0.000 C 
ATOM     23  C   UNL     1      34.610 -14.762 -23.006  0.00  0.00    -0.000 C 
ATOM     24  C   UNL     1      34.193 -15.252 -24.240  0.00  0.00    -0.000 C 
ENDBRANCH  14  15
ENDBRANCH   8  14
TORSDOF 3
ENDMDL
MODEL 6
REMARK VINA RESULT:     -10.6      5.428     10.052
REMARK  Name = 449087
REMARK  3 active torsions:
REMARK  status: ('A' for Active; 'I' for Inactive)
REMARK    1  A    between atoms: C_5  and  C_11
REMARK    2  A    between atoms: C_8  and  C_14
REMARK    3  A    between atoms: C_14  and  C_15
REMARK                            x       y       z     vdW  Elec       q    Type
REMARK                         _______ _______ _______ _____ _____    ______ ____
ROOT
ATOM      1  O   UNL     1      35.590 -22.523 -16.492  0.00  0.00    -0.274 OA
ATOM      2  N   UNL     1      34.101 -24.637 -12.351  0.00  0.00    -0.239 N 
ATOM      3  N   UNL     1      33.410 -24.719 -13.501  0.00  0.00    -0.166 NA
ATOM      4  N   UNL     1      33.818 -23.836 -15.681  0.00  0.00    -0.268 N 
ATOM      5  C   UNL     1      35.250 -23.910 -12.449  0.00  0.00    +0.045 C 
ATOM      6  C   UNL     1      35.319 -23.488 -13.754  0.00  0.00    +0.048 C 
ATOM      7  C   UNL     1      34.164 -24.018 -14.336  0.00  0.00    +0.152 C 
ATOM      8  C   UNL     1      34.531 -23.123 -16.642  0.00  0.00    +0.232 C 
ATOM      9  H   UNL     1      33.803 -25.062 -11.514  0.00  0.00    +0.174 HD
ATOM     10  H   UNL     1      32.981 -24.258 -15.980  0.00  0.00    +0.156 HD
ENDROOT
BRANCH   5  11
ATOM     11  C   UNL     1      36.250 -23.631 -11.334  0.00  0.00    +0.037 C 
ATOM     12  C   UNL     1      37.547 -24.400 -11.299  0.00  0.00    +0.006 C 
ATOM     13  C   UNL     1      37.551 -22.945 -11.667  0.00  0.00    +0.006 C 
ENDBRANCH   5  11
BRANCH   8  14
ATOM     14  C   UNL     1      33.816 -23.167 -17.990  0.00  0.00    +0.112 C 
BRANCH  14  15
ATOM     15  C   UNL     1      34.088 -21.984 -18.859  0.00  0.00    -0.013 C 
ATOM     16  C   UNL     1      35.675 -20.461 -19.898  0.00  0.00    -0.000 C 
ATOM     17  C   UNL     1      35.402 -21.572 -19.083  0.00  0.00    -0.004 C 
ATOM     18  C   UNL     1      34.601 -19.760 -20.495  0.00  0.00    -0.000 C 
ATOM     19  C   UNL     1      33.032 -21.295 -19.446  0.00  0.00    -0.004 C 
ATOM     20  C   UNL     1      33.285 -20.190 -20.259  0.00  0.00    -0.000 C 
ATOM     21  C   UNL     1      36.991 -20.031 -20.133  0.00  0.00    -0.000 C 
ATOM     22  C   UNL     1      34.874 -18.650 -21.311  0.00  0.00    -0.000 C 
ATOM     23  C   UNL     1      37.244 -18.926 -20.946  0.00  0.00    -0.000 C 
ATOM     24  C   UNL     1      36.188 -18.236 -21.534  0.00  0.00    -0.000 C 
ENDBRANCH  14  15
ENDBRANCH   8  14
TORSDOF 3
ENDMDL
MODEL 7
REMARK VINA RESULT:     -10.4      3.234      9.207
REMARK  Name = 449087
REMARK  3 active torsions:
REMARK  status: ('A' for Active; 'I' for Inactive)
REMARK    1  A    between atoms: C_5  and  C_11
REMARK    2  A    between atoms: C_8  and  C_14
REMARK    3  A    between atoms: C_14  and  C_15
REMARK                            x       y       z     vdW  Elec       q    Type
REMARK                         _______ _______ _______ _____ _____    ______ ____
ROOT
ATOM      1  O   UNL     1      34.548 -13.099 -22.692  0.00  0.00    -0.274 OA
ATOM      2  N   UNL     1      34.146 -17.509 -24.748  0.00  0.00    -0.239 N 
ATOM      3  N   UNL     1      33.562 -16.411 -25.256  0.00  0.00    -0.166 NA
ATOM      4  N   UNL     1      33.537 -14.133 -24.543  0.00  0.00    -0.268 N 
ATOM      5  C   UNL     1      34.857 -17.277 -23.607  0.00  0.00    +0.045 C 
ATOM      6  C   UNL     1      34.732 -15.933 -23.353  0.00  0.00    +0.048 C 
ATOM      7  C   UNL     1      33.929 -15.470 -24.398  0.00  0.00    +0.152 C 
ATOM      8  C   UNL     1      33.862 -13.067 -23.707  0.00  0.00    +0.232 C 
ATOM      9  H   UNL     1      34.067 -18.400 -25.159  0.00  0.00    +0.174 HD
ATOM     10  H   UNL     1      32.971 -13.923 -25.322  0.00  0.00    +0.156 HD
ENDROOT
BRANCH   5  11
ATOM     11  C   UNL     1      35.632 -18.303 -22.791  0.00  0.00    +0.037 C 
ATOM     12  C   UNL     1      35.285 -18.500 -21.336  0.00  0.00    +0.006 C 
ATOM     13  C   UNL     1      34.935 -19.561 -22.339  0.00  0.00    +0.006 C 
ENDBRANCH   5  11
BRANCH   8  14
ATOM     14  C   UNL     1      33.238 -11.770 -24.216  0.00  0.00    +0.112 C 
BRANCH  14  15
ATOM     15  C   UNL     1      32.924 -10.786 -23.139  0.00  0.00    -0.013 C 
ATOM     16  C   UNL     1      31.973 -10.293 -20.956  0.00  0.00    -0.000 C 
ATOM     17  C   UNL     1      32.276 -11.207 -21.978  0.00  0.00    -0.004 C 
ATOM     18  C   UNL     1      32.334  -8.935 -21.112  0.00  0.00    -0.000 C 
ATOM     19  C   UNL     1      33.279  -9.449 -23.293  0.00  0.00    -0.004 C 
ATOM     20  C   UNL     1      32.987  -8.529 -22.287  0.00  0.00    -0.000 C 
ATOM     21  C   UNL     1      31.319 -10.700 -19.780  0.00  0.00    -0.000 C 
ATOM     22  C   UNL     1      32.032  -8.021 -20.088  0.00  0.00    -0.000 C 
ATOM     23  C   UNL     1      31.026  -9.779 -18.774  0.00  0.00    -0.000 C 
ATOM     24  C   UNL     1      31.382  -8.442 -18.928  0.00  0.00    -0.000 C 
ENDBRANCH  14  15
ENDBRANCH   8  14
TORSDOF 3
ENDMDL
MODEL 8
REMARK VINA RESULT:     -10.4      3.142      9.849
REMARK  Name = 449087
REMARK  3 active torsions:
REMARK  status: ('A' for Active; 'I' for Inactive)
REMARK    1  A    between atoms: C_5  and  C_11
REMARK    2  A    between atoms: C_8  and  C_14
REMARK    3  A    between atoms: C_14  and  C_15
REMARK                            x       y       z     vdW  Elec       q    Type
REMARK                         _______ _______ _______ _____ _____    ______ ____
ROOT
ATOM      1  O   UNL     1      34.480 -13.115 -22.600  0.00  0.00    -0.274 OA
ATOM      2  N   UNL     1      34.327 -17.566 -24.601  0.00  0.00    -0.239 N 
ATOM      3  N   UNL     1      33.757 -16.491 -25.170  0.00  0.00    -0.166 NA
ATOM      4  N   UNL     1      33.629 -14.203 -24.501  0.00  0.00    -0.268 N 
ATOM      5  C   UNL     1      34.949 -17.298 -23.416  0.00  0.00    +0.045 C 
ATOM      6  C   UNL     1      34.775 -15.954 -23.196  0.00  0.00    +0.048 C 
ATOM      7  C   UNL     1      34.039 -15.527 -24.304  0.00  0.00    +0.152 C 
ATOM      8  C   UNL     1      33.868 -13.116 -23.663  0.00  0.00    +0.232 C 
ATOM      9  H   UNL     1      34.299 -18.465 -25.001  0.00  0.00    +0.174 HD
ATOM     10  H   UNL     1      33.116 -14.019 -25.321  0.00  0.00    +0.156 HD
ENDROOT
BRANCH   5  11
ATOM     11  C   UNL     1      35.685 -18.292 -22.528  0.00  0.00    +0.037 C 
ATOM     12  C   UNL     1      35.227 -18.488 -21.104  0.00  0.00    +0.006 C 
ATOM     13  C   UNL     1      34.992 -19.568 -22.120  0.00  0.00    +0.006 C 
ENDBRANCH   5  11
BRANCH   8  14
ATOM     14  C   UNL     1      33.254 -11.842 -24.238  0.00  0.00    +0.112 C 
BRANCH  14  15
ATOM     15  C   UNL     1      32.885 -10.829 -23.207  0.00  0.00    -0.013 C 
ATOM     16  C   UNL     1      33.043  -8.563 -22.338  0.00  0.00    -0.000 C 
ATOM     17  C   UNL     1      33.381  -9.528 -23.300  0.00  0.00    -0.004 C 
ATOM     18  C   UNL     1      32.189  -8.921 -21.268  0.00  0.00    -0.000 C 
ATOM     19  C   UNL     1      32.046 -11.181 -22.155  0.00  0.00    -0.004 C 
ATOM     20  C   UNL     1      31.700 -10.235 -21.191  0.00  0.00    -0.000 C 
ATOM     21  C   UNL     1      33.533  -7.248 -22.415  0.00  0.00    -0.000 C 
ATOM     22  C   UNL     1      31.851  -7.955 -20.305  0.00  0.00    -0.000 C 
ATOM     23  C   UNL     1      33.187  -6.302 -21.450  0.00  0.00    -0.000 C 
ATOM     24  C   UNL     1      32.348  -6.654 -20.397  0.00  0.00    -0.000 C 
ENDBRANCH  14  15
ENDBRANCH   8  14
TORSDOF 3
ENDMDL
MODEL 9
REMARK VINA RESULT:     -10.4      1.036      1.925
REMARK  Name = 449087
REMARK  3 active torsions:
REMARK  status: ('A' for Active; 'I' for Inactive)
REMARK    1  A    between atoms: C_5  and  C_11
REMARK    2  A    between atoms: C_8  and  C_14
REMARK    3  A    between atoms: C_14  and  C_15
REMARK                            x       y       z     vdW  Elec       q    Type
REMARK                         _______ _______ _______ _____ _____    ______ ____
ROOT
ATOM      1  O   UNL     1      35.142 -18.263 -20.513  0.00  0.00    -0.274 OA
ATOM      2  N   UNL     1      34.477 -15.584 -24.541  0.00  0.00    -0.239 N 
ATOM      3  N   UNL     1      34.659 -16.915 -24.572  0.00  0.00    -0.166 NA
ATOM      4  N   UNL     1      35.006 -18.525 -22.844  0.00  0.00    -0.268 N 
ATOM      5  C   UNL     1      34.498 -15.054 -23.284  0.00  0.00    +0.045 C 
ATOM      6  C   UNL     1      34.705 -16.112 -22.433  0.00  0.00    +0.048 C 
ATOM      7  C   UNL     1      34.794 -17.214 -23.287  0.00  0.00    +0.152 C 
ATOM      8  C   UNL     1      35.161 -18.952 -21.527  0.00  0.00    +0.232 C 
ATOM      9  H   UNL     1      34.343 -15.041 -25.350  0.00  0.00    +0.174 HD
ATOM     10  H   UNL     1      35.049 -19.222 -23.539  0.00  0.00    +0.156 HD
ENDROOT
BRANCH   5  11
ATOM     11  C   UNL     1      34.323 -13.588 -22.910  0.00  0.00    +0.037 C 
ATOM     12  C   UNL     1      32.984 -12.928 -23.127  0.00  0.00    +0.006 C 
ATOM     13  C   UNL     1      33.452 -13.228 -21.733  0.00  0.00    +0.006 C 
ENDBRANCH   5  11
BRANCH   8  14
ATOM     14  C   UNL     1      35.369 -20.463 -21.468  0.00  0.00    +0.112 C 
BRANCH  14  15
ATOM     15  C   UNL     1      35.416 -21.014 -20.082  0.00  0.00    -0.013 C 
ATOM     16  C   UNL     1      34.312 -22.136 -18.228  0.00  0.00    -0.000 C 
ATOM     17  C   UNL     1      34.284 -21.613 -19.531  0.00  0.00    -0.004 C 
ATOM     18  C   UNL     1      35.506 -22.053 -17.474  0.00  0.00    -0.000 C 
ATOM     19  C   UNL     1      36.591 -20.932 -19.341  0.00  0.00    -0.004 C 
ATOM     20  C   UNL     1      36.637 -21.447 -18.046  0.00  0.00    -0.000 C 
ATOM     21  C   UNL     1      33.180 -22.742 -17.657  0.00  0.00    -0.000 C 
ATOM     22  C   UNL     1      35.535 -22.576 -16.171  0.00  0.00    -0.000 C 
ATOM     23  C   UNL     1      33.226 -23.256 -16.361  0.00  0.00    -0.000 C 
ATOM     24  C   UNL     1      34.401 -23.174 -15.620  0.00  0.00    -0.000 C 
ENDBRANCH  14  15
ENDBRANCH   8  14
TORSDOF 3
ENDMDL
