MODEL 1
REMARK VINA RESULT:     -11.9      0.000      0.000
REMARK  Name = 16741245
REMARK  7 active torsions:
REMARK  status: ('A' for Active; 'I' for Inactive)
REMARK    1  A    between atoms: C_2  and  S_20
REMARK    2  A    between atoms: C_3  and  N_9
REMARK    3  A    between atoms: C_10  and  C_12
REMARK    4  A    between atoms: C_12  and  C_17
REMARK    5  A    between atoms: C_12  and  O_18
REMARK    6  A    between atoms: S_20  and  C_23
REMARK    7  A    between atoms: C_26  and  C_31
REMARK                            x       y       z     vdW  Elec       q    Type
REMARK                         _______ _______ _______ _____ _____    ______ ____
ROOT
ATOM      1 CL   UNL     1      33.600 -14.681 -24.732  0.00  0.00    -0.081 Cl
ATOM      2  C   UNL     1      35.361 -17.082 -22.072  0.00  0.00    +0.111 C 
ATOM      3  C   UNL     1      34.046 -14.641 -22.038  0.00  0.00    +0.061 C 
ATOM      4  C   UNL     1      34.863 -16.542 -23.257  0.00  0.00    +0.031 C 
ATOM      5  C   UNL     1      35.197 -16.394 -20.869  0.00  0.00    +0.020 C 
ATOM      6  C   UNL     1      34.202 -15.314 -23.241  0.00  0.00    +0.072 C 
ATOM      7  C   UNL     1      34.536 -15.167 -20.853  0.00  0.00    +0.017 C 
ENDROOT
BRANCH   3   9
ATOM      8  O   UNL     1      31.589 -13.823 -20.541  0.00  0.00    -0.272 OA
ATOM      9  N   UNL     1      33.379 -13.393 -21.987  0.00  0.00    -0.281 N 
ATOM     10  C   UNL     1      32.233 -13.070 -21.270  0.00  0.00    +0.259 C 
ATOM     11  H   UNL     1      33.774 -12.669 -22.524  0.00  0.00    +0.155 HD
BRANCH  10  12
ATOM     12  C   UNL     1      31.802 -11.606 -21.465  0.00  0.00    +0.245 C 
ATOM     13  C   UNL     1      32.687 -10.895 -22.489  0.00  0.00    +0.048 C 
BRANCH  12  17
ATOM     14  F   UNL     1      32.440 -11.495 -19.171  0.00  0.00    -0.167 F 
ATOM     15  F   UNL     1      30.487 -10.700 -19.711  0.00  0.00    -0.167 F 
ATOM     16  F   UNL     1      32.294  -9.615 -20.267  0.00  0.00    -0.167 F 
ATOM     17  C   UNL     1      31.760 -10.851 -20.144  0.00  0.00    +0.427 C 
ENDBRANCH  12  17
BRANCH  12  18
ATOM     18  O   UNL     1      30.468 -11.623 -21.973  0.00  0.00    -0.372 OA
ATOM     19  H   UNL     1      30.026 -12.439 -21.691  0.00  0.00    +0.211 HD
ENDBRANCH  12  18
ENDBRANCH  10  12
ENDBRANCH   3   9
BRANCH   2  20
ATOM     20  S   UNL     1      36.188 -18.619 -22.092  0.00  0.00    +0.027 S 
ATOM     21  O   UNL     1      37.551 -18.435 -21.610  0.00  0.00    -0.164 OA
ATOM     22  O   UNL     1      35.960 -19.191 -23.412  0.00  0.00    -0.164 OA
BRANCH  20  23
ATOM     23  C   UNL     1      35.421 -19.686 -20.901  0.00  0.00    +0.110 C 
ATOM     24  C   UNL     1      36.221 -20.422 -20.048  0.00  0.00    +0.019 C 
ATOM     25  C   UNL     1      34.042 -19.757 -20.854  0.00  0.00    +0.019 C 
ATOM     26  C   UNL     1      34.227 -21.350 -19.048  0.00  0.00    +0.054 C 
ATOM     27  C   UNL     1      35.618 -21.263 -19.113  0.00  0.00    +0.006 C 
ATOM     28  C   UNL     1      33.439 -20.597 -19.918  0.00  0.00    +0.006 C 
BRANCH  26  31
ATOM     29  O   UNL     1      32.405 -22.500 -18.250  0.00  0.00    -0.270 OA
ATOM     30  N   UNL     1      34.361 -22.693 -16.986  0.00  0.00    -0.273 N 
ATOM     31  C   UNL     1      33.598 -22.226 -18.071  0.00  0.00    +0.249 C 
ATOM     32  C   UNL     1      35.769 -22.342 -16.814  0.00  0.00    +0.115 C 
ATOM     33  C   UNL     1      33.798 -23.559 -15.959  0.00  0.00    +0.115 C 
ENDBRANCH  26  31
ENDBRANCH  20  23
ENDBRANCH   2  20
TORSDOF 7
ENDMDL
MODEL 2
REMARK VINA RESULT:     -10.6      2.847      4.035
REMARK  Name = 16741245
REMARK  7 active torsions:
REMARK  status: ('A' for Active; 'I' for Inactive)
REMARK    1  A    between atoms: C_2  and  S_20
REMARK    2  A    between atoms: C_3  and  N_9
REMARK    3  A    between atoms: C_10  and  C_12
REMARK    4  A    between atoms: C_12  and  C_17
REMARK    5  A    between atoms: C_12  and  O_18
REMARK    6  A    between atoms: S_20  and  C_23
REMARK    7  A    between atoms: C_26  and  C_31
REMARK                            x       y       z     vdW  Elec       q    Type
REMARK                         _______ _______ _______ _____ _____    ______ ____
ROOT
ATOM      1 CL   UNL     1      32.730 -13.342 -20.210  0.00  0.00    -0.081 Cl
ATOM      2  C   UNL     1      33.775 -14.606 -23.850  0.00  0.00    +0.111 C 
ATOM      3  C   UNL     1      32.975 -12.219 -22.687  0.00  0.00    +0.061 C 
ATOM      4  C   UNL     1      33.484 -14.558 -22.487  0.00  0.00    +0.031 C 
ATOM      5  C   UNL     1      33.665 -13.453 -24.628  0.00  0.00    +0.020 C 
ATOM      6  C   UNL     1      33.081 -13.357 -21.902  0.00  0.00    +0.072 C 
ATOM      7  C   UNL     1      33.261 -12.253 -24.043  0.00  0.00    +0.017 C 
ENDROOT
BRANCH   3   9
ATOM      8  O   UNL     1      33.874  -9.432 -23.291  0.00  0.00    -0.272 OA
ATOM      9  N   UNL     1      32.569 -10.986 -22.124  0.00  0.00    -0.281 N 
ATOM     10  C   UNL     1      33.026  -9.713 -22.446  0.00  0.00    +0.259 C 
ATOM     11  H   UNL     1      31.883 -11.035 -21.420  0.00  0.00    +0.155 HD
BRANCH  10  12
ATOM     12  C   UNL     1      32.347  -8.609 -21.615  0.00  0.00    +0.245 C 
ATOM     13  C   UNL     1      31.630  -9.189 -20.396  0.00  0.00    +0.048 C 
BRANCH  12  17
ATOM     14  F   UNL     1      32.075  -7.046 -23.395  0.00  0.00    -0.167 F 
ATOM     15  F   UNL     1      30.720  -6.885 -21.698  0.00  0.00    -0.167 F 
ATOM     16  F   UNL     1      30.503  -8.533 -23.109  0.00  0.00    -0.167 F 
ATOM     17  C   UNL     1      31.409  -7.763 -22.464  0.00  0.00    +0.427 C 
ENDBRANCH  12  17
BRANCH  12  18
ATOM     18  O   UNL     1      33.378  -7.739 -21.147  0.00  0.00    -0.372 OA
ATOM     19  H   UNL     1      33.071  -7.272 -20.354  0.00  0.00    +0.211 HD
ENDBRANCH  12  18
ENDBRANCH  10  12
ENDBRANCH   3   9
BRANCH   2  20
ATOM     20  S   UNL     1      34.280 -16.108 -24.583  0.00  0.00    +0.027 S 
ATOM     21  O   UNL     1      35.529 -15.892 -25.301  0.00  0.00    -0.164 OA
ATOM     22  O   UNL     1      33.120 -16.628 -25.293  0.00  0.00    -0.164 OA
BRANCH  20  23
ATOM     23  C   UNL     1      34.684 -17.255 -23.293  0.00  0.00    +0.110 C 
ATOM     24  C   UNL     1      34.476 -18.604 -23.507  0.00  0.00    +0.019 C 
ATOM     25  C   UNL     1      35.196 -16.773 -22.103  0.00  0.00    +0.019 C 
ATOM     26  C   UNL     1      35.309 -19.043 -21.282  0.00  0.00    +0.054 C 
ATOM     27  C   UNL     1      34.791 -19.506 -22.491  0.00  0.00    +0.006 C 
ATOM     28  C   UNL     1      35.512 -17.677 -21.088  0.00  0.00    +0.006 C 
BRANCH  26  31
ATOM     29  O   UNL     1      36.828 -20.050 -19.883  0.00  0.00    -0.270 OA
ATOM     30  N   UNL     1      34.614 -20.766 -19.664  0.00  0.00    -0.273 N 
ATOM     31  C   UNL     1      35.640 -19.984 -20.224  0.00  0.00    +0.249 C 
ATOM     32  C   UNL     1      33.224 -20.655 -20.098  0.00  0.00    +0.115 C 
ATOM     33  C   UNL     1      34.869 -21.742 -18.613  0.00  0.00    +0.115 C 
ENDBRANCH  26  31
ENDBRANCH  20  23
ENDBRANCH   2  20
TORSDOF 7
ENDMDL
MODEL 3
REMARK VINA RESULT:     -10.4      2.686      4.020
REMARK  Name = 16741245
REMARK  7 active torsions:
REMARK  status: ('A' for Active; 'I' for Inactive)
REMARK    1  A    between atoms: C_2  and  S_20
REMARK    2  A    between atoms: C_3  and  N_9
REMARK    3  A    between atoms: C_10  and  C_12
REMARK    4  A    between atoms: C_12  and  C_17
REMARK    5  A    between atoms: C_12  and  O_18
REMARK    6  A    between atoms: S_20  and  C_23
REMARK    7  A    between atoms: C_26  and  C_31
REMARK                            x       y       z     vdW  Elec       q    Type
REMARK                         _______ _______ _______ _____ _____    ______ ____
ROOT
ATOM      1 CL   UNL     1      32.316 -13.253 -20.365  0.00  0.00    -0.081 Cl
ATOM      2  C   UNL     1      33.774 -14.452 -23.884  0.00  0.00    +0.111 C 
ATOM      3  C   UNL     1      33.030 -12.052 -22.711  0.00  0.00    +0.061 C 
ATOM      4  C   UNL     1      33.288 -14.436 -22.577  0.00  0.00    +0.031 C 
ATOM      5  C   UNL     1      33.886 -13.260 -24.601  0.00  0.00    +0.020 C 
ATOM      6  C   UNL     1      32.913 -13.229 -21.987  0.00  0.00    +0.072 C 
ATOM      7  C   UNL     1      33.511 -12.054 -24.011  0.00  0.00    +0.017 C 
ENDROOT
BRANCH   3   9
ATOM      8  O   UNL     1      32.383  -9.442 -24.021  0.00  0.00    -0.272 OA
ATOM      9  N   UNL     1      32.658 -10.810 -22.141  0.00  0.00    -0.281 N 
ATOM     10  C   UNL     1      32.369  -9.624 -22.805  0.00  0.00    +0.259 C 
ATOM     11  H   UNL     1      32.599 -10.785 -21.159  0.00  0.00    +0.155 HD
BRANCH  10  12
ATOM     12  C   UNL     1      32.004  -8.478 -21.843  0.00  0.00    +0.245 C 
ATOM     13  C   UNL     1      30.904  -7.591 -22.425  0.00  0.00    +0.048 C 
BRANCH  12  17
ATOM     14  F   UNL     1      34.317  -8.003 -22.171  0.00  0.00    -0.167 F 
ATOM     15  F   UNL     1      33.537  -7.853 -20.145  0.00  0.00    -0.167 F 
ATOM     16  F   UNL     1      33.014  -6.340 -21.625  0.00  0.00    -0.167 F 
ATOM     17  C   UNL     1      33.228  -7.664 -21.449  0.00  0.00    +0.427 C 
ENDBRANCH  12  17
BRANCH  12  18
ATOM     18  O   UNL     1      31.502  -9.075 -20.647  0.00  0.00    -0.372 OA
ATOM     19  H   UNL     1      30.701  -8.605 -20.364  0.00  0.00    +0.211 HD
ENDBRANCH  12  18
ENDBRANCH  10  12
ENDBRANCH   3   9
BRANCH   2  20
ATOM     20  S   UNL     1      34.244 -15.962 -24.623  0.00  0.00    +0.027 S 
ATOM     21  O   UNL     1      35.478 -15.764 -25.370  0.00  0.00    -0.164 OA
ATOM     22  O   UNL     1      33.061 -16.472 -25.303  0.00  0.00    -0.164 OA
BRANCH  20  23
ATOM     23  C   UNL     1      34.664 -17.109 -23.338  0.00  0.00    +0.110 C 
ATOM     24  C   UNL     1      34.499 -18.462 -23.567  0.00  0.00    +0.019 C 
ATOM     25  C   UNL     1      35.147 -16.624 -22.137  0.00  0.00    +0.019 C 
ATOM     26  C   UNL     1      35.316 -18.897 -21.335  0.00  0.00    +0.054 C 
ATOM     27  C   UNL     1      34.828 -19.364 -22.555  0.00  0.00    +0.006 C 
ATOM     28  C   UNL     1      35.477 -17.528 -21.127  0.00  0.00    +0.006 C 
BRANCH  26  31
ATOM     29  O   UNL     1      36.849 -19.882 -19.935  0.00  0.00    -0.270 OA
ATOM     30  N   UNL     1      34.649 -20.645 -19.732  0.00  0.00    -0.273 N 
ATOM     31  C   UNL     1      35.661 -19.838 -20.282  0.00  0.00    +0.249 C 
ATOM     32  C   UNL     1      33.259 -20.560 -20.173  0.00  0.00    +0.115 C 
ATOM     33  C   UNL     1      34.919 -21.622 -18.686  0.00  0.00    +0.115 C 
ENDBRANCH  26  31
ENDBRANCH  20  23
ENDBRANCH   2  20
TORSDOF 7
ENDMDL
MODEL 4
REMARK VINA RESULT:     -10.2      3.130      4.874
REMARK  Name = 16741245
REMARK  7 active torsions:
REMARK  status: ('A' for Active; 'I' for Inactive)
REMARK    1  A    between atoms: C_2  and  S_20
REMARK    2  A    between atoms: C_3  and  N_9
REMARK    3  A    between atoms: C_10  and  C_12
REMARK    4  A    between atoms: C_12  and  C_17
REMARK    5  A    between atoms: C_12  and  O_18
REMARK    6  A    between atoms: S_20  and  C_23
REMARK    7  A    between atoms: C_26  and  C_31
REMARK                            x       y       z     vdW  Elec       q    Type
REMARK                         _______ _______ _______ _____ _____    ______ ____
ROOT
ATOM      1 CL   UNL     1      34.991  -9.770 -23.762  0.00  0.00    -0.081 Cl
ATOM      2  C   UNL     1      33.402 -13.426 -23.995  0.00  0.00    +0.111 C 
ATOM      3  C   UNL     1      32.872 -11.069 -22.632  0.00  0.00    +0.061 C 
ATOM      4  C   UNL     1      34.219 -12.312 -24.184  0.00  0.00    +0.031 C 
ATOM      5  C   UNL     1      32.317 -13.353 -23.120  0.00  0.00    +0.020 C 
ATOM      6  C   UNL     1      33.953 -11.126 -23.498  0.00  0.00    +0.072 C 
ATOM      7  C   UNL     1      32.051 -12.169 -22.435  0.00  0.00    +0.017 C 
ENDROOT
BRANCH   3   9
ATOM      8  O   UNL     1      31.776  -8.461 -23.602  0.00  0.00    -0.272 OA
ATOM      9  N   UNL     1      32.575  -9.881 -21.922  0.00  0.00    -0.281 N 
ATOM     10  C   UNL     1      32.065  -8.692 -22.430  0.00  0.00    +0.259 C 
ATOM     11  H   UNL     1      32.751  -9.900 -20.954  0.00  0.00    +0.155 HD
BRANCH  10  12
ATOM     12  C   UNL     1      31.873  -7.616 -21.346  0.00  0.00    +0.245 C 
ATOM     13  C   UNL     1      30.805  -6.600 -21.751  0.00  0.00    +0.048 C 
BRANCH  12  17
ATOM     14  F   UNL     1      34.120  -7.102 -21.955  0.00  0.00    -0.167 F 
ATOM     15  F   UNL     1      33.700  -7.432 -19.845  0.00  0.00    -0.167 F 
ATOM     16  F   UNL     1      33.017  -5.603 -20.816  0.00  0.00    -0.167 F 
ATOM     17  C   UNL     1      33.187  -6.933 -20.994  0.00  0.00    +0.427 C 
ENDBRANCH  12  17
BRANCH  12  18
ATOM     18  O   UNL     1      31.423  -8.281 -20.165  0.00  0.00    -0.372 OA
ATOM     19  H   UNL     1      32.190  -8.585 -19.654  0.00  0.00    +0.211 HD
ENDBRANCH  12  18
ENDBRANCH  10  12
ENDBRANCH   3   9
BRANCH   2  20
ATOM     20  S   UNL     1      33.734 -14.909 -24.853  0.00  0.00    +0.027 S 
ATOM     21  O   UNL     1      34.750 -14.657 -25.866  0.00  0.00    -0.164 OA
ATOM     22  O   UNL     1      32.441 -15.454 -25.246  0.00  0.00    -0.164 OA
BRANCH  20  23
ATOM     23  C   UNL     1      34.483 -16.054 -23.726  0.00  0.00    +0.110 C 
ATOM     24  C   UNL     1      34.814 -15.625 -22.455  0.00  0.00    +0.019 C 
ATOM     25  C   UNL     1      34.721 -17.350 -24.145  0.00  0.00    +0.019 C 
ATOM     26  C   UNL     1      35.654 -17.837 -21.970  0.00  0.00    +0.054 C 
ATOM     27  C   UNL     1      35.405 -16.525 -21.569  0.00  0.00    +0.006 C 
ATOM     28  C   UNL     1      35.312 -18.249 -23.258  0.00  0.00    +0.006 C 
BRANCH  26  31
ATOM     29  O   UNL     1      37.489 -18.665 -20.862  0.00  0.00    -0.270 OA
ATOM     30  N   UNL     1      35.465 -19.752 -20.431  0.00  0.00    -0.273 N 
ATOM     31  C   UNL     1      36.270 -18.776 -21.046  0.00  0.00    +0.249 C 
ATOM     32  C   UNL     1      34.028 -19.846 -20.679  0.00  0.00    +0.115 C 
ATOM     33  C   UNL     1      36.010 -20.737 -19.507  0.00  0.00    +0.115 C 
ENDBRANCH  26  31
ENDBRANCH  20  23
ENDBRANCH   2  20
TORSDOF 7
ENDMDL
MODEL 5
REMARK VINA RESULT:     -10.2      4.666      9.409
REMARK  Name = 16741245
REMARK  7 active torsions:
REMARK  status: ('A' for Active; 'I' for Inactive)
REMARK    1  A    between atoms: C_2  and  S_20
REMARK    2  A    between atoms: C_3  and  N_9
REMARK    3  A    between atoms: C_10  and  C_12
REMARK    4  A    between atoms: C_12  and  C_17
REMARK    5  A    between atoms: C_12  and  O_18
REMARK    6  A    between atoms: S_20  and  C_23
REMARK    7  A    between atoms: C_26  and  C_31
REMARK                            x       y       z     vdW  Elec       q    Type
REMARK                         _______ _______ _______ _____ _____    ______ ____
ROOT
ATOM      1 CL   UNL     1      36.409 -21.691 -18.001  0.00  0.00    -0.081 Cl
ATOM      2  C   UNL     1      35.022 -19.746 -21.201  0.00  0.00    +0.111 C 
ATOM      3  C   UNL     1      33.950 -21.074 -19.015  0.00  0.00    +0.061 C 
ATOM      4  C   UNL     1      35.866 -20.323 -20.252  0.00  0.00    +0.031 C 
ATOM      5  C   UNL     1      33.638 -19.837 -21.049  0.00  0.00    +0.020 C 
ATOM      6  C   UNL     1      35.327 -20.991 -19.153  0.00  0.00    +0.072 C 
ATOM      7  C   UNL     1      33.099 -20.505 -19.950  0.00  0.00    +0.017 C 
ENDROOT
BRANCH   3   9
ATOM      8  O   UNL     1      33.838 -23.992 -18.370  0.00  0.00    -0.272 OA
ATOM      9  N   UNL     1      33.371 -21.745 -17.911  0.00  0.00    -0.281 N 
ATOM     10  C   UNL     1      33.349 -23.112 -17.664  0.00  0.00    +0.259 C 
ATOM     11  H   UNL     1      32.931 -21.175 -17.239  0.00  0.00    +0.155 HD
BRANCH  10  12
ATOM     12  C   UNL     1      32.623 -23.469 -16.354  0.00  0.00    +0.245 C 
ATOM     13  C   UNL     1      31.280 -22.746 -16.246  0.00  0.00    +0.048 C 
BRANCH  12  17
ATOM     14  F   UNL     1      34.644 -22.573 -15.463  0.00  0.00    -0.167 F 
ATOM     15  F   UNL     1      33.839 -24.365 -14.526  0.00  0.00    -0.167 F 
ATOM     16  F   UNL     1      32.853 -22.444 -14.224  0.00  0.00    -0.167 F 
ATOM     17  C   UNL     1      33.497 -23.207 -15.136  0.00  0.00    +0.427 C 
ENDBRANCH  12  17
BRANCH  12  18
ATOM     18  O   UNL     1      32.366 -24.873 -16.383  0.00  0.00    -0.372 OA
ATOM     19  H   UNL     1      33.107 -25.345 -15.971  0.00  0.00    +0.211 HD
ENDBRANCH  12  18
ENDBRANCH  10  12
ENDBRANCH   3   9
BRANCH   2  20
ATOM     20  S   UNL     1      35.696 -18.909 -22.576  0.00  0.00    +0.027 S 
ATOM     21  O   UNL     1      35.140 -19.475 -23.798  0.00  0.00    -0.164 OA
ATOM     22  O   UNL     1      37.139 -18.892 -22.379  0.00  0.00    -0.164 OA
BRANCH  20  23
ATOM     23  C   UNL     1      35.127 -17.231 -22.547  0.00  0.00    +0.110 C 
ATOM     24  C   UNL     1      34.682 -16.653 -23.721  0.00  0.00    +0.019 C 
ATOM     25  C   UNL     1      35.143 -16.537 -21.351  0.00  0.00    +0.019 C 
ATOM     26  C   UNL     1      34.243 -14.614 -22.503  0.00  0.00    +0.054 C 
ATOM     27  C   UNL     1      34.236 -15.332 -23.699  0.00  0.00    +0.006 C 
ATOM     28  C   UNL     1      34.695 -15.217 -21.330  0.00  0.00    +0.006 C 
BRANCH  26  31
ATOM     29  O   UNL     1      34.308 -12.450 -23.274  0.00  0.00    -0.270 OA
ATOM     30  N   UNL     1      32.773 -12.873 -21.563  0.00  0.00    -0.273 N 
ATOM     31  C   UNL     1      33.776 -13.236 -22.480  0.00  0.00    +0.249 C 
ATOM     32  C   UNL     1      32.173 -13.836 -20.643  0.00  0.00    +0.115 C 
ATOM     33  C   UNL     1      32.266 -11.511 -21.469  0.00  0.00    +0.115 C 
ENDBRANCH  26  31
ENDBRANCH  20  23
ENDBRANCH   2  20
TORSDOF 7
ENDMDL
MODEL 6
REMARK VINA RESULT:     -10.1      5.562      9.767
REMARK  Name = 16741245
REMARK  7 active torsions:
REMARK  status: ('A' for Active; 'I' for Inactive)
REMARK    1  A    between atoms: C_2  and  S_20
REMARK    2  A    between atoms: C_3  and  N_9
REMARK    3  A    between atoms: C_10  and  C_12
REMARK    4  A    between atoms: C_12  and  C_17
REMARK    5  A    between atoms: C_12  and  O_18
REMARK    6  A    between atoms: S_20  and  C_23
REMARK    7  A    between atoms: C_26  and  C_31
REMARK                            x       y       z     vdW  Elec       q    Type
REMARK                         _______ _______ _______ _____ _____    ______ ____
ROOT
ATOM      1 CL   UNL     1      34.520 -23.881 -15.058  0.00  0.00    -0.081 Cl
ATOM      2  C   UNL     1      35.200 -21.672 -18.314  0.00  0.00    +0.111 C 
ATOM      3  C   UNL     1      33.014 -22.869 -17.098  0.00  0.00    +0.061 C 
ATOM      4  C   UNL     1      35.368 -22.394 -17.132  0.00  0.00    +0.031 C 
ATOM      5  C   UNL     1      33.932 -21.552 -18.883  0.00  0.00    +0.020 C 
ATOM      6  C   UNL     1      34.268 -22.996 -16.521  0.00  0.00    +0.072 C 
ATOM      7  C   UNL     1      32.833 -22.154 -18.273  0.00  0.00    +0.017 C 
ENDROOT
BRANCH   3   9
ATOM      8  O   UNL     1      31.608 -22.222 -14.539  0.00  0.00    -0.272 OA
ATOM      9  N   UNL     1      31.878 -23.468 -16.502  0.00  0.00    -0.281 N 
ATOM     10  C   UNL     1      31.266 -23.122 -15.303  0.00  0.00    +0.259 C 
ATOM     11  H   UNL     1      31.474 -24.218 -16.996  0.00  0.00    +0.155 HD
BRANCH  10  12
ATOM     12  C   UNL     1      30.047 -24.007 -14.981  0.00  0.00    +0.245 C 
ATOM     13  C   UNL     1      30.341 -25.482 -15.254  0.00  0.00    +0.048 C 
BRANCH  12  17
ATOM     14  F   UNL     1      29.037 -22.435 -16.462  0.00  0.00    -0.167 F 
ATOM     15  F   UNL     1      27.808 -23.234 -14.853  0.00  0.00    -0.167 F 
ATOM     16  F   UNL     1      28.334 -24.499 -16.550  0.00  0.00    -0.167 F 
ATOM     17  C   UNL     1      28.802 -23.539 -15.720  0.00  0.00    +0.427 C 
ENDBRANCH  12  17
BRANCH  12  18
ATOM     18  O   UNL     1      29.778 -23.862 -13.586  0.00  0.00    -0.372 OA
ATOM     19  H   UNL     1      28.961 -23.354 -13.466  0.00  0.00    +0.211 HD
ENDBRANCH  12  18
ENDBRANCH  10  12
ENDBRANCH   3   9
BRANCH   2  20
ATOM     20  S   UNL     1      36.576 -20.918 -19.080  0.00  0.00    +0.027 S 
ATOM     21  O   UNL     1      37.414 -21.949 -19.678  0.00  0.00    -0.164 OA
ATOM     22  O   UNL     1      37.144 -20.007 -18.096  0.00  0.00    -0.164 OA
BRANCH  20  23
ATOM     23  C   UNL     1      35.997 -19.947 -20.445  0.00  0.00    +0.110 C 
ATOM     24  C   UNL     1      34.732 -20.186 -20.948  0.00  0.00    +0.019 C 
ATOM     25  C   UNL     1      36.824 -18.976 -20.976  0.00  0.00    +0.019 C 
ATOM     26  C   UNL     1      35.094 -18.438 -22.576  0.00  0.00    +0.054 C 
ATOM     27  C   UNL     1      34.277 -19.424 -22.024  0.00  0.00    +0.006 C 
ATOM     28  C   UNL     1      36.367 -18.213 -22.051  0.00  0.00    +0.006 C 
BRANCH  26  31
ATOM     29  O   UNL     1      34.334 -18.250 -24.736  0.00  0.00    -0.270 OA
ATOM     30  N   UNL     1      34.523 -16.246 -23.548  0.00  0.00    -0.273 N 
ATOM     31  C   UNL     1      34.619 -17.642 -23.696  0.00  0.00    +0.249 C 
ATOM     32  C   UNL     1      34.871 -15.570 -22.301  0.00  0.00    +0.115 C 
ATOM     33  C   UNL     1      34.072 -15.381 -24.629  0.00  0.00    +0.115 C 
ENDBRANCH  26  31
ENDBRANCH  20  23
ENDBRANCH   2  20
TORSDOF 7
ENDMDL
MODEL 7
REMARK VINA RESULT:     -10.1      4.603     11.031
REMARK  Name = 16741245
REMARK  7 active torsions:
REMARK  status: ('A' for Active; 'I' for Inactive)
REMARK    1  A    between atoms: C_2  and  S_20
REMARK    2  A    between atoms: C_3  and  N_9
REMARK    3  A    between atoms: C_10  and  C_12
REMARK    4  A    between atoms: C_12  and  C_17
REMARK    5  A    between atoms: C_12  and  O_18
REMARK    6  A    between atoms: S_20  and  C_23
REMARK    7  A    between atoms: C_26  and  C_31
REMARK                            x       y       z     vdW  Elec       q    Type
REMARK                         _______ _______ _______ _____ _____    ______ ____
ROOT
ATOM      1 CL   UNL     1      33.807 -13.418 -24.091  0.00  0.00    -0.081 Cl
ATOM      2  C   UNL     1      32.204 -12.124 -20.670  0.00  0.00    +0.111 C 
ATOM      3  C   UNL     1      33.473 -14.418 -21.572  0.00  0.00    +0.061 C 
ATOM      4  C   UNL     1      32.642 -12.205 -21.992  0.00  0.00    +0.031 C 
ATOM      5  C   UNL     1      32.405 -13.197 -19.802  0.00  0.00    +0.020 C 
ATOM      6  C   UNL     1      33.280 -13.359 -22.446  0.00  0.00    +0.072 C 
ATOM      7  C   UNL     1      33.042 -14.351 -20.256  0.00  0.00    +0.017 C 
ENDROOT
BRANCH   3   9
ATOM      8  O   UNL     1      35.237 -16.310 -20.071  0.00  0.00    -0.272 OA
ATOM      9  N   UNL     1      34.116 -15.604 -22.001  0.00  0.00    -0.281 N 
ATOM     10  C   UNL     1      34.930 -16.447 -21.254  0.00  0.00    +0.259 C 
ATOM     11  H   UNL     1      33.971 -15.861 -22.940  0.00  0.00    +0.155 HD
BRANCH  10  12
ATOM     12  C   UNL     1      35.453 -17.645 -22.068  0.00  0.00    +0.245 C 
ATOM     13  C   UNL     1      35.007 -17.564 -23.528  0.00  0.00    +0.048 C 
BRANCH  12  17
ATOM     14  F   UNL     1      34.075 -18.822 -20.519  0.00  0.00    -0.167 F 
ATOM     15  F   UNL     1      36.109 -19.543 -20.806  0.00  0.00    -0.167 F 
ATOM     16  F   UNL     1      34.618 -19.848 -22.367  0.00  0.00    -0.167 F 
ATOM     17  C   UNL     1      35.056 -18.971 -21.435  0.00  0.00    +0.427 C 
ENDBRANCH  12  17
BRANCH  12  18
ATOM     18  O   UNL     1      36.879 -17.584 -22.039  0.00  0.00    -0.372 OA
ATOM     19  H   UNL     1      37.244 -18.433 -22.335  0.00  0.00    +0.211 HD
ENDBRANCH  12  18
ENDBRANCH  10  12
ENDBRANCH   3   9
BRANCH   2  20
ATOM     20  S   UNL     1      31.406 -10.679 -20.101  0.00  0.00    +0.027 S 
ATOM     21  O   UNL     1      31.894 -10.359 -18.766  0.00  0.00    -0.164 OA
ATOM     22  O   UNL     1      29.981 -10.883 -20.320  0.00  0.00    -0.164 OA
BRANCH  20  23
ATOM     23  C   UNL     1      31.919  -9.318 -21.114  0.00  0.00    +0.110 C 
ATOM     24  C   UNL     1      31.538  -9.290 -22.442  0.00  0.00    +0.019 C 
ATOM     25  C   UNL     1      32.691  -8.317 -20.554  0.00  0.00    +0.019 C 
ATOM     26  C   UNL     1      32.721  -7.199 -22.696  0.00  0.00    +0.054 C 
ATOM     27  C   UNL     1      31.943  -8.220 -23.240  0.00  0.00    +0.006 C 
ATOM     28  C   UNL     1      33.094  -7.247 -21.353  0.00  0.00    +0.006 C 
BRANCH  26  31
ATOM     29  O   UNL     1      34.289  -6.130 -23.991  0.00  0.00    -0.270 OA
ATOM     30  N   UNL     1      32.247  -5.020 -23.746  0.00  0.00    -0.273 N 
ATOM     31  C   UNL     1      33.142  -6.083 -23.527  0.00  0.00    +0.249 C 
ATOM     32  C   UNL     1      30.901  -5.007 -23.176  0.00  0.00    +0.115 C 
ATOM     33  C   UNL     1      32.601  -3.861 -24.552  0.00  0.00    +0.115 C 
ENDBRANCH  26  31
ENDBRANCH  20  23
ENDBRANCH   2  20
TORSDOF 7
ENDMDL
MODEL 8
REMARK VINA RESULT:     -10.0      5.028      9.606
REMARK  Name = 16741245
REMARK  7 active torsions:
REMARK  status: ('A' for Active; 'I' for Inactive)
REMARK    1  A    between atoms: C_2  and  S_20
REMARK    2  A    between atoms: C_3  and  N_9
REMARK    3  A    between atoms: C_10  and  C_12
REMARK    4  A    between atoms: C_12  and  C_17
REMARK    5  A    between atoms: C_12  and  O_18
REMARK    6  A    between atoms: S_20  and  C_23
REMARK    7  A    between atoms: C_26  and  C_31
REMARK                            x       y       z     vdW  Elec       q    Type
REMARK                         _______ _______ _______ _____ _____    ______ ____
ROOT
ATOM      1 CL   UNL     1      32.445 -21.169 -19.169  0.00  0.00    -0.081 Cl
ATOM      2  C   UNL     1      35.801 -19.814 -20.855  0.00  0.00    +0.111 C 
ATOM      3  C   UNL     1      35.124 -21.460 -18.729  0.00  0.00    +0.061 C 
ATOM      4  C   UNL     1      34.459 -20.061 -20.564  0.00  0.00    +0.031 C 
ATOM      5  C   UNL     1      36.802 -20.395 -20.076  0.00  0.00    +0.020 C 
ATOM      6  C   UNL     1      34.119 -20.889 -19.494  0.00  0.00    +0.072 C 
ATOM      7  C   UNL     1      36.461 -21.222 -19.007  0.00  0.00    +0.017 C 
ENDROOT
BRANCH   3   9
ATOM      8  O   UNL     1      36.432 -21.719 -16.052  0.00  0.00    -0.272 OA
ATOM      9  N   UNL     1      34.812 -22.305 -17.636  0.00  0.00    -0.281 N 
ATOM     10  C   UNL     1      35.460 -22.382 -16.410  0.00  0.00    +0.259 C 
ATOM     11  H   UNL     1      34.045 -22.909 -17.761  0.00  0.00    +0.155 HD
BRANCH  10  12
ATOM     12  C   UNL     1      34.831 -23.425 -15.468  0.00  0.00    +0.245 C 
ATOM     13  C   UNL     1      33.625 -22.851 -14.725  0.00  0.00    +0.048 C 
BRANCH  12  17
ATOM     14  F   UNL     1      37.022 -24.300 -15.120  0.00  0.00    -0.167 F 
ATOM     15  F   UNL     1      35.401 -25.144 -13.936  0.00  0.00    -0.167 F 
ATOM     16  F   UNL     1      36.132 -23.136 -13.503  0.00  0.00    -0.167 F 
ATOM     17  C   UNL     1      35.857 -24.003 -14.504  0.00  0.00    +0.427 C 
ENDBRANCH  12  17
BRANCH  12  18
ATOM     18  O   UNL     1      34.374 -24.506 -16.281  0.00  0.00    -0.372 OA
ATOM     19  H   UNL     1      35.031 -25.220 -16.268  0.00  0.00    +0.211 HD
ENDBRANCH  12  18
ENDBRANCH  10  12
ENDBRANCH   3   9
BRANCH   2  20
ATOM     20  S   UNL     1      36.228 -18.779 -22.194  0.00  0.00    +0.027 S 
ATOM     21  O   UNL     1      35.649 -19.318 -23.418  0.00  0.00    -0.164 OA
ATOM     22  O   UNL     1      37.666 -18.568 -22.107  0.00  0.00    -0.164 OA
BRANCH  20  23
ATOM     23  C   UNL     1      35.436 -17.209 -21.965  0.00  0.00    +0.110 C 
ATOM     24  C   UNL     1      34.992 -16.515 -23.074  0.00  0.00    +0.019 C 
ATOM     25  C   UNL     1      35.284 -16.714 -20.684  0.00  0.00    +0.019 C 
ATOM     26  C   UNL     1      34.206 -14.761 -21.610  0.00  0.00    +0.054 C 
ATOM     27  C   UNL     1      34.371 -15.279 -22.895  0.00  0.00    +0.006 C 
ATOM     28  C   UNL     1      34.662 -15.479 -20.505  0.00  0.00    +0.006 C 
BRANCH  26  31
ATOM     29  O   UNL     1      33.902 -12.556 -22.180  0.00  0.00    -0.270 OA
ATOM     30  N   UNL     1      32.601 -13.334 -20.401  0.00  0.00    -0.273 N 
ATOM     31  C   UNL     1      33.558 -13.473 -21.423  0.00  0.00    +0.249 C 
ATOM     32  C   UNL     1      32.226 -14.445 -19.529  0.00  0.00    +0.115 C 
ATOM     33  C   UNL     1      31.921 -12.073 -20.142  0.00  0.00    +0.115 C 
ENDBRANCH  26  31
ENDBRANCH  20  23
ENDBRANCH   2  20
TORSDOF 7
ENDMDL
MODEL 9
REMARK VINA RESULT:     -10.0      6.443     11.113
REMARK  Name = 16741245
REMARK  7 active torsions:
REMARK  status: ('A' for Active; 'I' for Inactive)
REMARK    1  A    between atoms: C_2  and  S_20
REMARK    2  A    between atoms: C_3  and  N_9
REMARK    3  A    between atoms: C_10  and  C_12
REMARK    4  A    between atoms: C_12  and  C_17
REMARK    5  A    between atoms: C_12  and  O_18
REMARK    6  A    between atoms: S_20  and  C_23
REMARK    7  A    between atoms: C_26  and  C_31
REMARK                            x       y       z     vdW  Elec       q    Type
REMARK                         _______ _______ _______ _____ _____    ______ ____
ROOT
ATOM      1 CL   UNL     1      37.928 -21.866 -15.717  0.00  0.00    -0.081 Cl
ATOM      2  C   UNL     1      34.326 -22.804 -17.162  0.00  0.00    +0.111 C 
ATOM      3  C   UNL     1      35.590 -22.839 -14.694  0.00  0.00    +0.061 C 
ATOM      4  C   UNL     1      35.650 -22.381 -17.051  0.00  0.00    +0.031 C 
ATOM      5  C   UNL     1      33.638 -23.244 -16.031  0.00  0.00    +0.020 C 
ATOM      6  C   UNL     1      36.286 -22.399 -15.810  0.00  0.00    +0.072 C 
ATOM      7  C   UNL     1      34.274 -23.263 -14.791  0.00  0.00    +0.017 C 
ENDROOT
BRANCH   3   9
ATOM      8  O   UNL     1      37.270 -24.955 -13.412  0.00  0.00    -0.272 OA
ATOM      9  N   UNL     1      36.207 -22.870 -13.421  0.00  0.00    -0.281 N 
ATOM     10  C   UNL     1      36.980 -23.888 -12.875  0.00  0.00    +0.259 C 
ATOM     11  H   UNL     1      36.071 -22.077 -12.854  0.00  0.00    +0.155 HD
BRANCH  10  12
ATOM     12  C   UNL     1      37.482 -23.560 -11.457  0.00  0.00    +0.245 C 
ATOM     13  C   UNL     1      38.757 -24.335 -11.123  0.00  0.00    +0.048 C 
BRANCH  12  17
ATOM     14  F   UNL     1      36.309 -25.086 -10.051  0.00  0.00    -0.167 F 
ATOM     15  F   UNL     1      35.186 -23.416 -10.880  0.00  0.00    -0.167 F 
ATOM     16  F   UNL     1      36.639 -23.067  -9.292  0.00  0.00    -0.167 F 
ATOM     17  C   UNL     1      36.400 -23.788 -10.411  0.00  0.00    +0.427 C 
ENDBRANCH  12  17
BRANCH  12  18
ATOM     18  O   UNL     1      37.794 -22.167 -11.432  0.00  0.00    -0.372 OA
ATOM     19  H   UNL     1      37.041 -21.661 -11.778  0.00  0.00    +0.211 HD
ENDBRANCH  12  18
ENDBRANCH  10  12
ENDBRANCH   3   9
BRANCH   2  20
ATOM     20  S   UNL     1      33.529 -22.781 -18.715  0.00  0.00    +0.027 S 
ATOM     21  O   UNL     1      32.092 -22.651 -18.512  0.00  0.00    -0.164 OA
ATOM     22  O   UNL     1      34.053 -23.916 -19.462  0.00  0.00    -0.164 OA
BRANCH  20  23
ATOM     23  C   UNL     1      34.007 -21.303 -19.570  0.00  0.00    +0.110 C 
ATOM     24  C   UNL     1      33.029 -20.407 -19.957  0.00  0.00    +0.019 C 
ATOM     25  C   UNL     1      35.346 -21.082 -19.831  0.00  0.00    +0.019 C 
ATOM     26  C   UNL     1      34.750 -19.002 -20.906  0.00  0.00    +0.054 C 
ATOM     27  C   UNL     1      33.404 -19.246 -20.632  0.00  0.00    +0.006 C 
ATOM     28  C   UNL     1      35.721 -19.920 -20.504  0.00  0.00    +0.006 C 
BRANCH  26  31
ATOM     29  O   UNL     1      35.621 -16.876 -20.924  0.00  0.00    -0.270 OA
ATOM     30  N   UNL     1      34.945 -17.715 -22.998  0.00  0.00    -0.273 N 
ATOM     31  C   UNL     1      35.142 -17.790 -21.607  0.00  0.00    +0.249 C 
ATOM     32  C   UNL     1      34.374 -18.820 -23.765  0.00  0.00    +0.115 C 
ATOM     33  C   UNL     1      35.296 -16.529 -23.767  0.00  0.00    +0.115 C 
ENDBRANCH  26  31
ENDBRANCH  20  23
ENDBRANCH   2  20
TORSDOF 7
ENDMDL
