MODEL 1
REMARK VINA RESULT:     -11.6      0.000      0.000
REMARK  Name = 10156987
REMARK  5 active torsions:
REMARK  status: ('A' for Active; 'I' for Inactive)
REMARK    1  A    between atoms: C_2  and  C_23
REMARK    2  A    between atoms: C_9  and  C_13
REMARK    3  A    between atoms: C_23  and  N_24
REMARK    4  A    between atoms: C_25  and  C_31
REMARK    5  A    between atoms: C_31  and  N_32
REMARK                            x       y       z     vdW  Elec       q    Type
REMARK                         _______ _______ _______ _____ _____    ______ ____
ROOT
ATOM      1  N   UNL     1      33.304 -12.542 -21.363  0.00  0.00    -0.312 N 
ATOM      2  C   UNL     1      35.111 -16.207 -21.830  0.00  0.00    -0.043 C 
ATOM      3  C   UNL     1      34.914 -15.322 -22.890  0.00  0.00    -0.005 C 
ATOM      4  C   UNL     1      34.703 -15.892 -20.539  0.00  0.00    -0.005 C 
ATOM      5  C   UNL     1      34.285 -14.086 -22.639  0.00  0.00    +0.014 C 
ATOM      6  C   UNL     1      33.882 -13.791 -21.334  0.00  0.00    +0.048 C 
ATOM      7  C   UNL     1      34.077 -14.673 -20.266  0.00  0.00    +0.014 C 
ATOM      8  C   UNL     1      33.928 -12.972 -23.448  0.00  0.00    +0.016 C 
ATOM      9  C   UNL     1      33.327 -12.039 -22.635  0.00  0.00    +0.053 C 
ATOM     10  H   UNL     1      32.927 -12.078 -20.580  0.00  0.00    +0.152 HD
ENDROOT
BRANCH   9  13
ATOM     11  O   UNL     1      30.621 -11.356 -22.019  0.00  0.00    -0.270 OA
ATOM     12  N   UNL     1      30.871  -9.191 -22.730  0.00  0.00    -0.280 N 
ATOM     13  C   UNL     1      32.765 -10.743 -22.860  0.00  0.00    +0.067 C 
ATOM     14  C   UNL     1      33.526  -9.772 -23.393  0.00  0.00    +0.007 C 
ATOM     15  C   UNL     1      31.334 -10.473 -22.495  0.00  0.00    +0.251 C 
ATOM     16  C   UNL     1      32.987  -8.434 -23.627  0.00  0.00    +0.014 C 
ATOM     17  C   UNL     1      31.657  -8.169 -23.285  0.00  0.00    +0.051 C 
ATOM     18  C   UNL     1      33.768  -7.416 -24.182  0.00  0.00    +0.001 C 
ATOM     19  C   UNL     1      31.107  -6.902 -23.492  0.00  0.00    +0.015 C 
ATOM     20  C   UNL     1      33.220  -6.148 -24.389  0.00  0.00    +0.000 C 
ATOM     21  C   UNL     1      31.893  -5.892 -24.046  0.00  0.00    +0.001 C 
ATOM     22  H   UNL     1      29.937  -8.984 -22.494  0.00  0.00    +0.155 HD
ENDBRANCH   9  13
BRANCH   2  23
ATOM     23  C   UNL     1      35.779 -17.525 -22.091  0.00  0.00    -0.050 C 
BRANCH  23  24
ATOM     24  N   UNL     1      35.518 -18.492 -21.026  0.00  0.00    +0.390 N 
ATOM     25  C   UNL     1      35.357 -21.181 -19.866  0.00  0.00    -0.026 C 
ATOM     26  C   UNL     1      34.113 -20.392 -20.288  0.00  0.00    -0.025 C 
ATOM     27  C   UNL     1      36.499 -20.212 -19.542  0.00  0.00    -0.025 C 
ATOM     28  C   UNL     1      34.435 -19.407 -21.414  0.00  0.00    -0.077 C 
ATOM     29  C   UNL     1      36.742 -19.233 -20.693  0.00  0.00    -0.077 C 
ATOM     30  H   UNL     1      35.219 -17.988 -20.191  0.00  0.00    -0.079 HD
BRANCH  25  31
ATOM     31  C   UNL     1      35.054 -22.089 -18.677  0.00  0.00    -0.086 C 
BRANCH  31  32
ATOM     32  N   UNL     1      33.809 -22.813 -18.881  0.00  0.00    +0.380 N 
ATOM     33  H   UNL     1      33.420 -23.081 -17.977  0.00  0.00    -0.089 HD
ATOM     34  H   UNL     1      33.990 -23.650 -19.435  0.00  0.00    -0.089 HD
ATOM     35  H   UNL     1      33.144 -22.216 -19.373  0.00  0.00    -0.089 HD
ENDBRANCH  31  32
ENDBRANCH  25  31
ENDBRANCH  23  24
ENDBRANCH   2  23
TORSDOF 5
ENDMDL
MODEL 2
REMARK VINA RESULT:     -11.6      1.333      2.032
REMARK  Name = 10156987
REMARK  5 active torsions:
REMARK  status: ('A' for Active; 'I' for Inactive)
REMARK    1  A    between atoms: C_2  and  C_23
REMARK    2  A    between atoms: C_9  and  C_13
REMARK    3  A    between atoms: C_23  and  N_24
REMARK    4  A    between atoms: C_25  and  C_31
REMARK    5  A    between atoms: C_31  and  N_32
REMARK                            x       y       z     vdW  Elec       q    Type
REMARK                         _______ _______ _______ _____ _____    ______ ____
ROOT
ATOM      1  N   UNL     1      33.581 -14.303 -23.329  0.00  0.00    -0.312 N 
ATOM      2  C   UNL     1      35.720 -17.565 -22.025  0.00  0.00    -0.043 C 
ATOM      3  C   UNL     1      35.406 -16.488 -21.195  0.00  0.00    -0.005 C 
ATOM      4  C   UNL     1      35.319 -17.595 -23.355  0.00  0.00    -0.005 C 
ATOM      5  C   UNL     1      34.668 -15.411 -21.727  0.00  0.00    +0.014 C 
ATOM      6  C   UNL     1      34.277 -15.462 -23.067  0.00  0.00    +0.048 C 
ATOM      7  C   UNL     1      34.588 -16.539 -23.904  0.00  0.00    +0.014 C 
ATOM      8  C   UNL     1      34.182 -14.184 -21.197  0.00  0.00    +0.016 C 
ATOM      9  C   UNL     1      33.518 -13.525 -22.205  0.00  0.00    +0.053 C 
ATOM     10  H   UNL     1      33.185 -14.069 -24.200  0.00  0.00    +0.152 HD
ENDROOT
BRANCH   9  13
ATOM     11  O   UNL     1      31.598 -12.645 -20.281  0.00  0.00    -0.270 OA
ATOM     12  N   UNL     1      31.232 -10.659 -21.365  0.00  0.00    -0.280 N 
ATOM     13  C   UNL     1      32.831 -12.274 -22.287  0.00  0.00    +0.067 C 
ATOM     14  C   UNL     1      33.077 -11.445 -23.315  0.00  0.00    +0.007 C 
ATOM     15  C   UNL     1      31.843 -11.890 -21.221  0.00  0.00    +0.251 C 
ATOM     16  C   UNL     1      32.399 -10.155 -23.424  0.00  0.00    +0.014 C 
ATOM     17  C   UNL     1      31.483  -9.785 -22.435  0.00  0.00    +0.051 C 
ATOM     18  C   UNL     1      32.646  -9.285 -24.490  0.00  0.00    +0.001 C 
ATOM     19  C   UNL     1      30.816  -8.559 -22.504  0.00  0.00    +0.015 C 
ATOM     20  C   UNL     1      31.980  -8.059 -24.560  0.00  0.00    +0.000 C 
ATOM     21  C   UNL     1      31.068  -7.697 -23.570  0.00  0.00    +0.001 C 
ATOM     22  H   UNL     1      30.584 -10.379 -20.677  0.00  0.00    +0.155 HD
ENDBRANCH   9  13
BRANCH   2  23
ATOM     23  C   UNL     1      36.506 -18.715 -21.465  0.00  0.00    -0.050 C 
BRANCH  23  24
ATOM     24  N   UNL     1      35.766 -19.430 -20.426  0.00  0.00    +0.390 N 
ATOM     25  C   UNL     1      34.530 -21.789 -19.198  0.00  0.00    -0.026 C 
ATOM     26  C   UNL     1      33.708 -20.693 -19.884  0.00  0.00    -0.025 C 
ATOM     27  C   UNL     1      35.859 -21.207 -18.706  0.00  0.00    -0.025 C 
ATOM     28  C   UNL     1      34.520 -19.987 -20.971  0.00  0.00    -0.077 C 
ATOM     29  C   UNL     1      36.601 -20.483 -19.832  0.00  0.00    -0.077 C 
ATOM     30  H   UNL     1      35.519 -18.772 -19.687  0.00  0.00    -0.079 HD
BRANCH  25  31
ATOM     31  C   UNL     1      33.750 -22.422 -18.048  0.00  0.00    -0.086 C 
BRANCH  31  32
ATOM     32  N   UNL     1      32.342 -22.063 -18.117  0.00  0.00    +0.380 N 
ATOM     33  H   UNL     1      31.966 -21.982 -17.173  0.00  0.00    -0.089 HD
ATOM     34  H   UNL     1      31.832 -22.786 -18.625  0.00  0.00    -0.089 HD
ATOM     35  H   UNL     1      32.241 -21.171 -18.601  0.00  0.00    -0.089 HD
ENDBRANCH  31  32
ENDBRANCH  25  31
ENDBRANCH  23  24
ENDBRANCH   2  23
TORSDOF 5
ENDMDL
MODEL 3
REMARK VINA RESULT:     -11.5      4.312     12.199
REMARK  Name = 10156987
REMARK  5 active torsions:
REMARK  status: ('A' for Active; 'I' for Inactive)
REMARK    1  A    between atoms: C_2  and  C_23
REMARK    2  A    between atoms: C_9  and  C_13
REMARK    3  A    between atoms: C_23  and  N_24
REMARK    4  A    between atoms: C_25  and  C_31
REMARK    5  A    between atoms: C_31  and  N_32
REMARK                            x       y       z     vdW  Elec       q    Type
REMARK                         _______ _______ _______ _____ _____    ______ ____
ROOT
ATOM      1  N   UNL     1      34.948 -21.765 -18.066  0.00  0.00    -0.312 N 
ATOM      2  C   UNL     1      35.488 -19.524 -21.473  0.00  0.00    -0.043 C 
ATOM      3  C   UNL     1      34.233 -19.960 -21.047  0.00  0.00    -0.005 C 
ATOM      4  C   UNL     1      36.640 -19.827 -20.757  0.00  0.00    -0.005 C 
ATOM      5  C   UNL     1      34.140 -20.724 -19.867  0.00  0.00    +0.014 C 
ATOM      6  C   UNL     1      35.311 -21.017 -19.164  0.00  0.00    +0.048 C 
ATOM      7  C   UNL     1      36.573 -20.584 -19.585  0.00  0.00    +0.014 C 
ATOM      8  C   UNL     1      33.065 -21.321 -19.153  0.00  0.00    +0.016 C 
ATOM      9  C   UNL     1      33.592 -21.953 -18.051  0.00  0.00    +0.053 C 
ATOM     10  H   UNL     1      35.573 -22.114 -17.390  0.00  0.00    +0.152 HD
ENDROOT
BRANCH   9  13
ATOM     11  O   UNL     1      35.147 -23.464 -16.190  0.00  0.00    -0.270 OA
ATOM     12  N   UNL     1      33.303 -24.166 -15.023  0.00  0.00    -0.280 N 
ATOM     13  C   UNL     1      33.028 -22.712 -16.979  0.00  0.00    +0.067 C 
ATOM     14  C   UNL     1      31.694 -22.739 -16.813  0.00  0.00    +0.007 C 
ATOM     15  C   UNL     1      33.925 -23.469 -16.042  0.00  0.00    +0.251 C 
ATOM     16  C   UNL     1      31.085 -23.497 -15.722  0.00  0.00    +0.014 C 
ATOM     17  C   UNL     1      31.911 -24.199 -14.840  0.00  0.00    +0.051 C 
ATOM     18  C   UNL     1      29.699 -23.533 -15.540  0.00  0.00    +0.001 C 
ATOM     19  C   UNL     1      31.366 -24.934 -13.784  0.00  0.00    +0.015 C 
ATOM     20  C   UNL     1      29.152 -24.267 -14.484  0.00  0.00    +0.000 C 
ATOM     21  C   UNL     1      29.983 -24.965 -13.609  0.00  0.00    +0.001 C 
ATOM     22  H   UNL     1      33.868 -24.666 -14.390  0.00  0.00    +0.155 HD
ENDBRANCH   9  13
BRANCH   2  23
ATOM     23  C   UNL     1      35.593 -18.711 -22.730  0.00  0.00    -0.050 C 
BRANCH  23  24
ATOM     24  N   UNL     1      34.874 -17.441 -22.622  0.00  0.00    +0.390 N 
ATOM     25  C   UNL     1      34.633 -14.519 -22.671  0.00  0.00    -0.026 C 
ATOM     26  C   UNL     1      34.646 -15.322 -21.365  0.00  0.00    -0.025 C 
ATOM     27  C   UNL     1      34.135 -15.405 -23.817  0.00  0.00    -0.025 C 
ATOM     28  C   UNL     1      35.422 -16.631 -21.525  0.00  0.00    -0.077 C 
ATOM     29  C   UNL     1      34.927 -16.712 -23.897  0.00  0.00    -0.077 C 
ATOM     30  H   UNL     1      33.896 -17.636 -22.412  0.00  0.00    -0.079 HD
BRANCH  25  31
ATOM     31  C   UNL     1      33.774 -13.264 -22.535  0.00  0.00    -0.086 C 
BRANCH  31  32
ATOM     32  N   UNL     1      34.288 -12.191 -23.372  0.00  0.00    +0.380 N 
ATOM     33  H   UNL     1      34.202 -11.304 -22.877  0.00  0.00    -0.089 HD
ATOM     34  H   UNL     1      33.751 -12.150 -24.238  0.00  0.00    -0.089 HD
ATOM     35  H   UNL     1      35.269 -12.367 -23.588  0.00  0.00    -0.089 HD
ENDBRANCH  31  32
ENDBRANCH  25  31
ENDBRANCH  23  24
ENDBRANCH   2  23
TORSDOF 5
ENDMDL
MODEL 4
REMARK VINA RESULT:     -11.3      4.324     12.938
REMARK  Name = 10156987
REMARK  5 active torsions:
REMARK  status: ('A' for Active; 'I' for Inactive)
REMARK    1  A    between atoms: C_2  and  C_23
REMARK    2  A    between atoms: C_9  and  C_13
REMARK    3  A    between atoms: C_23  and  N_24
REMARK    4  A    between atoms: C_25  and  C_31
REMARK    5  A    between atoms: C_31  and  N_32
REMARK                            x       y       z     vdW  Elec       q    Type
REMARK                         _______ _______ _______ _____ _____    ______ ____
ROOT
ATOM      1  N   UNL     1      34.390 -22.080 -17.830  0.00  0.00    -0.312 N 
ATOM      2  C   UNL     1      35.186 -19.732 -21.112  0.00  0.00    -0.043 C 
ATOM      3  C   UNL     1      36.177 -20.143 -20.220  0.00  0.00    -0.005 C 
ATOM      4  C   UNL     1      33.857 -20.100 -20.938  0.00  0.00    -0.005 C 
ATOM      5  C   UNL     1      35.814 -20.947 -19.121  0.00  0.00    +0.014 C 
ATOM      6  C   UNL     1      34.472 -21.304 -18.965  0.00  0.00    +0.048 C 
ATOM      7  C   UNL     1      33.474 -20.896 -19.856  0.00  0.00    +0.014 C 
ATOM      8  C   UNL     1      36.530 -21.534 -18.042  0.00  0.00    +0.016 C 
ATOM      9  C   UNL     1      35.628 -22.224 -17.266  0.00  0.00    +0.053 C 
ATOM     10  H   UNL     1      33.559 -22.473 -17.476  0.00  0.00    +0.152 HD
ENDROOT
BRANCH   9  13
ATOM     11  O   UNL     1      33.381 -23.178 -15.782  0.00  0.00    -0.270 OA
ATOM     12  N   UNL     1      34.693 -24.228 -14.223  0.00  0.00    -0.280 N 
ATOM     13  C   UNL     1      35.740 -23.001 -16.071  0.00  0.00    +0.067 C 
ATOM     14  C   UNL     1      36.956 -23.315 -15.592  0.00  0.00    +0.007 C 
ATOM     15  C   UNL     1      34.500 -23.469 -15.362  0.00  0.00    +0.251 C 
ATOM     16  C   UNL     1      37.105 -24.116 -14.378  0.00  0.00    +0.014 C 
ATOM     17  C   UNL     1      35.958 -24.561 -13.714  0.00  0.00    +0.051 C 
ATOM     18  C   UNL     1      38.365 -24.447 -13.870  0.00  0.00    +0.001 C 
ATOM     19  C   UNL     1      36.061 -25.331 -12.553  0.00  0.00    +0.015 C 
ATOM     20  C   UNL     1      38.469 -25.216 -12.709  0.00  0.00    +0.000 C 
ATOM     21  C   UNL     1      37.321 -25.657 -12.052  0.00  0.00    +0.001 C 
ATOM     22  H   UNL     1      33.897 -24.553 -13.741  0.00  0.00    +0.155 HD
ENDBRANCH   9  13
BRANCH   2  23
ATOM     23  C   UNL     1      35.566 -18.874 -22.283  0.00  0.00    -0.050 C 
BRANCH  23  24
ATOM     24  N   UNL     1      34.883 -17.581 -22.260  0.00  0.00    +0.390 N 
ATOM     25  C   UNL     1      34.741 -14.654 -22.391  0.00  0.00    -0.026 C 
ATOM     26  C   UNL     1      34.628 -15.425 -21.071  0.00  0.00    -0.025 C 
ATOM     27  C   UNL     1      34.304 -15.552 -23.553  0.00  0.00    -0.025 C 
ATOM     28  C   UNL     1      35.371 -16.761 -21.142  0.00  0.00    -0.077 C 
ATOM     29  C   UNL     1      35.057 -16.884 -23.542  0.00  0.00    -0.077 C 
ATOM     30  H   UNL     1      33.885 -17.740 -22.122  0.00  0.00    -0.079 HD
BRANCH  25  31
ATOM     31  C   UNL     1      33.916 -13.371 -22.349  0.00  0.00    -0.086 C 
BRANCH  31  32
ATOM     32  N   UNL     1      34.347 -12.443 -23.383  0.00  0.00    +0.380 N 
ATOM     33  H   UNL     1      33.635 -11.725 -23.513  0.00  0.00    -0.089 HD
ATOM     34  H   UNL     1      34.482 -12.949 -24.259  0.00  0.00    -0.089 HD
ATOM     35  H   UNL     1      35.225 -12.005 -23.104  0.00  0.00    -0.089 HD
ENDBRANCH  31  32
ENDBRANCH  25  31
ENDBRANCH  23  24
ENDBRANCH   2  23
TORSDOF 5
ENDMDL
MODEL 5
REMARK VINA RESULT:     -10.7      2.646     10.747
REMARK  Name = 10156987
REMARK  5 active torsions:
REMARK  status: ('A' for Active; 'I' for Inactive)
REMARK    1  A    between atoms: C_2  and  C_23
REMARK    2  A    between atoms: C_9  and  C_13
REMARK    3  A    between atoms: C_23  and  N_24
REMARK    4  A    between atoms: C_25  and  C_31
REMARK    5  A    between atoms: C_31  and  N_32
REMARK                            x       y       z     vdW  Elec       q    Type
REMARK                         _______ _______ _______ _____ _____    ______ ____
ROOT
ATOM      1  N   UNL     1      32.501 -13.010 -22.515  0.00  0.00    -0.312 N 
ATOM      2  C   UNL     1      32.231  -8.937 -23.017  0.00  0.00    -0.043 C 
ATOM      3  C   UNL     1      33.239  -9.704 -23.601  0.00  0.00    -0.005 C 
ATOM      4  C   UNL     1      31.249  -9.516 -22.223  0.00  0.00    -0.005 C 
ATOM      5  C   UNL     1      33.254 -11.095 -23.376  0.00  0.00    +0.014 C 
ATOM      6  C   UNL     1      32.258 -11.656 -22.574  0.00  0.00    +0.048 C 
ATOM      7  C   UNL     1      31.244 -10.893 -21.985  0.00  0.00    +0.014 C 
ATOM      8  C   UNL     1      34.101 -12.159 -23.795  0.00  0.00    +0.016 C 
ATOM      9  C   UNL     1      33.612 -13.323 -23.250  0.00  0.00    +0.053 C 
ATOM     10  H   UNL     1      31.954 -13.660 -22.016  0.00  0.00    +0.152 HD
ENDROOT
BRANCH   9  13
ATOM     11  O   UNL     1      33.408 -14.943 -25.595  0.00  0.00    -0.270 OA
ATOM     12  N   UNL     1      34.319 -16.777 -24.564  0.00  0.00    -0.280 N 
ATOM     13  C   UNL     1      34.022 -14.692 -23.306  0.00  0.00    +0.067 C 
ATOM     14  C   UNL     1      34.533 -15.279 -22.210  0.00  0.00    +0.007 C 
ATOM     15  C   UNL     1      33.887 -15.464 -24.587  0.00  0.00    +0.251 C 
ATOM     16  C   UNL     1      34.970 -16.673 -22.235  0.00  0.00    +0.014 C 
ATOM     17  C   UNL     1      34.854 -17.399 -23.425  0.00  0.00    +0.051 C 
ATOM     18  C   UNL     1      35.501 -17.295 -21.101  0.00  0.00    +0.001 C 
ATOM     19  C   UNL     1      35.263 -18.733 -23.488  0.00  0.00    +0.015 C 
ATOM     20  C   UNL     1      35.911 -18.629 -21.163  0.00  0.00    +0.000 C 
ATOM     21  C   UNL     1      35.792 -19.346 -22.353  0.00  0.00    +0.001 C 
ATOM     22  H   UNL     1      34.247 -17.304 -25.392  0.00  0.00    +0.155 HD
ENDBRANCH   9  13
BRANCH   2  23
ATOM     23  C   UNL     1      32.210  -7.455 -23.252  0.00  0.00    -0.050 C 
BRANCH  23  24
ATOM     24  N   UNL     1      33.198  -7.045 -24.249  0.00  0.00    +0.390 N 
ATOM     25  C   UNL     1      34.771  -5.099 -25.780  0.00  0.00    -0.026 C 
ATOM     26  C   UNL     1      33.575  -5.845 -26.381  0.00  0.00    -0.025 C 
ATOM     27  C   UNL     1      35.369  -5.920 -24.632  0.00  0.00    -0.025 C 
ATOM     28  C   UNL     1      32.564  -6.237 -25.301  0.00  0.00    -0.077 C 
ATOM     29  C   UNL     1      34.299  -6.311 -23.610  0.00  0.00    -0.077 C 
ATOM     30  H   UNL     1      33.589  -7.880 -24.686  0.00  0.00    -0.079 HD
BRANCH  25  31
ATOM     31  C   UNL     1      35.822  -4.799 -26.845  0.00  0.00    -0.086 C 
BRANCH  31  32
ATOM     32  N   UNL     1      35.946  -5.907 -27.779  0.00  0.00    +0.380 N 
ATOM     33  H   UNL     1      35.812  -5.565 -28.731  0.00  0.00    -0.089 HD
ATOM     34  H   UNL     1      35.237  -6.610 -27.568  0.00  0.00    -0.089 HD
ATOM     35  H   UNL     1      36.874  -6.322 -27.694  0.00  0.00    -0.089 HD
ENDBRANCH  31  32
ENDBRANCH  25  31
ENDBRANCH  23  24
ENDBRANCH   2  23
TORSDOF 5
ENDMDL
MODEL 6
REMARK VINA RESULT:     -10.5      1.461      1.899
REMARK  Name = 10156987
REMARK  5 active torsions:
REMARK  status: ('A' for Active; 'I' for Inactive)
REMARK    1  A    between atoms: C_2  and  C_23
REMARK    2  A    between atoms: C_9  and  C_13
REMARK    3  A    between atoms: C_23  and  N_24
REMARK    4  A    between atoms: C_25  and  C_31
REMARK    5  A    between atoms: C_31  and  N_32
REMARK                            x       y       z     vdW  Elec       q    Type
REMARK                         _______ _______ _______ _____ _____    ______ ____
ROOT
ATOM      1  N   UNL     1      32.989 -13.173 -23.852  0.00  0.00    -0.312 N 
ATOM      2  C   UNL     1      34.774 -16.876 -23.695  0.00  0.00    -0.043 C 
ATOM      3  C   UNL     1      34.921 -15.924 -22.686  0.00  0.00    -0.005 C 
ATOM      4  C   UNL     1      34.004 -16.621 -24.823  0.00  0.00    -0.005 C 
ATOM      5  C   UNL     1      34.273 -14.680 -22.823  0.00  0.00    +0.014 C 
ATOM      6  C   UNL     1      33.505 -14.445 -23.966  0.00  0.00    +0.048 C 
ATOM      7  C   UNL     1      33.353 -15.395 -24.981  0.00  0.00    +0.014 C 
ATOM      8  C   UNL     1      34.199 -13.506 -22.022  0.00  0.00    +0.016 C 
ATOM      9  C   UNL     1      33.403 -12.598 -22.681  0.00  0.00    +0.053 C 
ATOM     10  H   UNL     1      32.407 -12.740 -24.518  0.00  0.00    +0.152 HD
ENDROOT
BRANCH   9  13
ATOM     11  O   UNL     1      31.371 -11.984 -20.769  0.00  0.00    -0.270 OA
ATOM     12  N   UNL     1      31.539  -9.726 -21.125  0.00  0.00    -0.280 N 
ATOM     13  C   UNL     1      32.965 -11.269 -22.390  0.00  0.00    +0.067 C 
ATOM     14  C   UNL     1      33.519 -10.229 -23.036  0.00  0.00    +0.007 C 
ATOM     15  C   UNL     1      31.896 -11.040 -21.360  0.00  0.00    +0.251 C 
ATOM     16  C   UNL     1      33.102  -8.857 -22.756  0.00  0.00    +0.014 C 
ATOM     17  C   UNL     1      32.112  -8.633 -21.794  0.00  0.00    +0.051 C 
ATOM     18  C   UNL     1      33.669  -7.768 -23.423  0.00  0.00    +0.001 C 
ATOM     19  C   UNL     1      31.688  -7.335 -21.497  0.00  0.00    +0.015 C 
ATOM     20  C   UNL     1      33.247  -6.469 -23.127  0.00  0.00    +0.000 C 
ATOM     21  C   UNL     1      32.259  -6.254 -22.167  0.00  0.00    +0.001 C 
ATOM     22  H   UNL     1      30.844  -9.547 -20.450  0.00  0.00    +0.155 HD
ENDBRANCH   9  13
BRANCH   2  23
ATOM     23  C   UNL     1      35.463 -18.202 -23.556  0.00  0.00    -0.050 C 
BRANCH  23  24
ATOM     24  N   UNL     1      35.568 -18.620 -22.158  0.00  0.00    +0.390 N 
ATOM     25  C   UNL     1      36.256 -20.469 -19.988  0.00  0.00    -0.026 C 
ATOM     26  C   UNL     1      34.812 -20.241 -20.448  0.00  0.00    -0.025 C 
ATOM     27  C   UNL     1      37.105 -19.238 -20.320  0.00  0.00    -0.025 C 
ATOM     28  C   UNL     1      34.755 -19.821 -21.918  0.00  0.00    -0.077 C 
ATOM     29  C   UNL     1      36.973 -18.850 -21.795  0.00  0.00    -0.077 C 
ATOM     30  H   UNL     1      35.208 -17.873 -21.565  0.00  0.00    -0.079 HD
BRANCH  25  31
ATOM     31  C   UNL     1      36.314 -20.790 -18.497  0.00  0.00    -0.086 C 
BRANCH  31  32
ATOM     32  N   UNL     1      35.585 -22.013 -18.201  0.00  0.00    +0.380 N 
ATOM     33  H   UNL     1      35.708 -22.252 -17.217  0.00  0.00    -0.089 HD
ATOM     34  H   UNL     1      35.942 -22.771 -18.783  0.00  0.00    -0.089 HD
ATOM     35  H   UNL     1      34.593 -21.874 -18.395  0.00  0.00    -0.089 HD
ENDBRANCH  31  32
ENDBRANCH  25  31
ENDBRANCH  23  24
ENDBRANCH   2  23
TORSDOF 5
ENDMDL
MODEL 7
REMARK VINA RESULT:     -10.4      2.063      3.588
REMARK  Name = 10156987
REMARK  5 active torsions:
REMARK  status: ('A' for Active; 'I' for Inactive)
REMARK    1  A    between atoms: C_2  and  C_23
REMARK    2  A    between atoms: C_9  and  C_13
REMARK    3  A    between atoms: C_23  and  N_24
REMARK    4  A    between atoms: C_25  and  C_31
REMARK    5  A    between atoms: C_31  and  N_32
REMARK                            x       y       z     vdW  Elec       q    Type
REMARK                         _______ _______ _______ _____ _____    ______ ____
ROOT
ATOM      1  N   UNL     1      31.896 -10.238 -22.009  0.00  0.00    -0.312 N 
ATOM      2  C   UNL     1      33.499 -13.634 -23.687  0.00  0.00    -0.043 C 
ATOM      3  C   UNL     1      33.807 -12.351 -24.140  0.00  0.00    -0.005 C 
ATOM      4  C   UNL     1      32.623 -13.837 -22.628  0.00  0.00    -0.005 C 
ATOM      5  C   UNL     1      33.211 -11.243 -23.505  0.00  0.00    +0.014 C 
ATOM      6  C   UNL     1      32.332 -11.470 -22.444  0.00  0.00    +0.048 C 
ATOM      7  C   UNL     1      32.019 -12.754 -21.984  0.00  0.00    +0.014 C 
ATOM      8  C   UNL     1      33.285  -9.835 -23.691  0.00  0.00    +0.016 C 
ATOM      9  C   UNL     1      32.466  -9.244 -22.757  0.00  0.00    +0.053 C 
ATOM     10  H   UNL     1      31.264 -10.094 -21.268  0.00  0.00    +0.152 HD
ENDROOT
BRANCH   9  13
ATOM     11  O   UNL     1      32.620  -8.131 -20.130  0.00  0.00    -0.270 OA
ATOM     12  N   UNL     1      31.920  -6.062 -20.827  0.00  0.00    -0.280 N 
ATOM     13  C   UNL     1      32.129  -7.889 -22.449  0.00  0.00    +0.067 C 
ATOM     14  C   UNL     1      31.710  -7.069 -23.429  0.00  0.00    +0.007 C 
ATOM     15  C   UNL     1      32.250  -7.387 -21.039  0.00  0.00    +0.251 C 
ATOM     16  C   UNL     1      31.366  -5.677 -23.151  0.00  0.00    +0.014 C 
ATOM     17  C   UNL     1      31.482  -5.197 -21.843  0.00  0.00    +0.051 C 
ATOM     18  C   UNL     1      30.928  -4.815 -24.161  0.00  0.00    +0.001 C 
ATOM     19  C   UNL     1      31.164  -3.871 -21.538  0.00  0.00    +0.015 C 
ATOM     20  C   UNL     1      30.611  -3.488 -23.859  0.00  0.00    +0.000 C 
ATOM     21  C   UNL     1      30.728  -3.018 -22.551  0.00  0.00    +0.001 C 
ATOM     22  H   UNL     1      31.995  -5.705 -19.912  0.00  0.00    +0.155 HD
ENDBRANCH   9  13
BRANCH   2  23
ATOM     23  C   UNL     1      34.130 -14.818 -24.359  0.00  0.00    -0.050 C 
BRANCH  23  24
ATOM     24  N   UNL     1      34.235 -15.967 -23.460  0.00  0.00    +0.390 N 
ATOM     25  C   UNL     1      35.636 -18.174 -22.130  0.00  0.00    -0.026 C 
ATOM     26  C   UNL     1      34.662 -18.399 -23.291  0.00  0.00    -0.025 C 
ATOM     27  C   UNL     1      35.289 -16.867 -21.410  0.00  0.00    -0.025 C 
ATOM     28  C   UNL     1      34.600 -17.177 -24.210  0.00  0.00    -0.077 C 
ATOM     29  C   UNL     1      35.206 -15.695 -22.391  0.00  0.00    -0.077 C 
ATOM     30  H   UNL     1      33.327 -16.128 -23.026  0.00  0.00    -0.079 HD
BRANCH  25  31
ATOM     31  C   UNL     1      35.619 -19.354 -21.163  0.00  0.00    -0.086 C 
BRANCH  31  32
ATOM     32  N   UNL     1      36.661 -19.216 -20.157  0.00  0.00    +0.380 N 
ATOM     33  H   UNL     1      36.915 -20.138 -19.802  0.00  0.00    -0.089 HD
ATOM     34  H   UNL     1      36.318 -18.639 -19.390  0.00  0.00    -0.089 HD
ATOM     35  H   UNL     1      37.481 -18.775 -20.575  0.00  0.00    -0.089 HD
ENDBRANCH  31  32
ENDBRANCH  25  31
ENDBRANCH  23  24
ENDBRANCH   2  23
TORSDOF 5
ENDMDL
MODEL 8
REMARK VINA RESULT:     -10.4      2.094      3.217
REMARK  Name = 10156987
REMARK  5 active torsions:
REMARK  status: ('A' for Active; 'I' for Inactive)
REMARK    1  A    between atoms: C_2  and  C_23
REMARK    2  A    between atoms: C_9  and  C_13
REMARK    3  A    between atoms: C_23  and  N_24
REMARK    4  A    between atoms: C_25  and  C_31
REMARK    5  A    between atoms: C_31  and  N_32
REMARK                            x       y       z     vdW  Elec       q    Type
REMARK                         _______ _______ _______ _____ _____    ______ ____
ROOT
ATOM      1  N   UNL     1      33.988 -14.576 -22.624  0.00  0.00    -0.312 N 
ATOM      2  C   UNL     1      35.657 -18.212 -21.670  0.00  0.00    -0.043 C 
ATOM      3  C   UNL     1      35.321 -17.260 -20.707  0.00  0.00    -0.005 C 
ATOM      4  C   UNL     1      35.441 -17.981 -23.023  0.00  0.00    -0.005 C 
ATOM      5  C   UNL     1      34.753 -16.039 -21.124  0.00  0.00    +0.014 C 
ATOM      6  C   UNL     1      34.546 -15.828 -22.489  0.00  0.00    +0.048 C 
ATOM      7  C   UNL     1      34.880 -16.778 -23.460  0.00  0.00    +0.014 C 
ATOM      8  C   UNL     1      34.300 -14.873 -20.448  0.00  0.00    +0.016 C 
ATOM      9  C   UNL     1      33.836 -13.991 -21.396  0.00  0.00    +0.053 C 
ATOM     10  H   UNL     1      33.736 -14.161 -23.481  0.00  0.00    +0.152 HD
ENDROOT
BRANCH   9  13
ATOM     11  O   UNL     1      33.409 -12.346 -23.693  0.00  0.00    -0.270 OA
ATOM     12  N   UNL     1      32.505 -10.638 -22.461  0.00  0.00    -0.280 N 
ATOM     13  C   UNL     1      33.270 -12.680 -21.337  0.00  0.00    +0.067 C 
ATOM     14  C   UNL     1      32.910 -12.163 -20.150  0.00  0.00    +0.007 C 
ATOM     15  C   UNL     1      33.073 -11.891 -22.600  0.00  0.00    +0.251 C 
ATOM     16  C   UNL     1      32.320 -10.829 -20.055  0.00  0.00    +0.014 C 
ATOM     17  C   UNL     1      32.126 -10.089 -21.225  0.00  0.00    +0.051 C 
ATOM     18  C   UNL     1      31.944 -10.281 -18.826  0.00  0.00    +0.001 C 
ATOM     19  C   UNL     1      31.563  -8.811 -21.175  0.00  0.00    +0.015 C 
ATOM     20  C   UNL     1      31.380  -9.004 -18.773  0.00  0.00    +0.000 C 
ATOM     21  C   UNL     1      31.190  -8.271 -19.945  0.00  0.00    +0.001 C 
ATOM     22  H   UNL     1      32.359 -10.101 -23.273  0.00  0.00    +0.155 HD
ENDBRANCH   9  13
BRANCH   2  23
ATOM     23  C   UNL     1      36.263 -19.513 -21.232  0.00  0.00    -0.050 C 
BRANCH  23  24
ATOM     24  N   UNL     1      35.531 -20.110 -20.116  0.00  0.00    +0.390 N 
ATOM     25  C   UNL     1      34.114 -22.270 -18.727  0.00  0.00    -0.026 C 
ATOM     26  C   UNL     1      33.383 -21.087 -19.370  0.00  0.00    -0.025 C 
ATOM     27  C   UNL     1      35.545 -21.859 -18.365  0.00  0.00    -0.025 C 
ATOM     28  C   UNL     1      34.181 -20.509 -20.540  0.00  0.00    -0.077 C 
ATOM     29  C   UNL     1      36.272 -21.255 -19.568  0.00  0.00    -0.077 C 
ATOM     30  H   UNL     1      35.436 -19.415 -19.377  0.00  0.00    -0.079 HD
BRANCH  25  31
ATOM     31  C   UNL     1      33.362 -22.779 -17.500  0.00  0.00    -0.086 C 
BRANCH  31  32
ATOM     32  N   UNL     1      31.984 -22.315 -17.506  0.00  0.00    +0.380 N 
ATOM     33  H   UNL     1      31.700 -22.107 -18.463  0.00  0.00    -0.089 HD
ATOM     34  H   UNL     1      31.906 -21.471 -16.938  0.00  0.00    -0.089 HD
ATOM     35  H   UNL     1      31.378 -23.041 -17.122  0.00  0.00    -0.089 HD
ENDBRANCH  31  32
ENDBRANCH  25  31
ENDBRANCH  23  24
ENDBRANCH   2  23
TORSDOF 5
ENDMDL
MODEL 9
REMARK VINA RESULT:     -10.4      2.597     11.105
REMARK  Name = 10156987
REMARK  5 active torsions:
REMARK  status: ('A' for Active; 'I' for Inactive)
REMARK    1  A    between atoms: C_2  and  C_23
REMARK    2  A    between atoms: C_9  and  C_13
REMARK    3  A    between atoms: C_23  and  N_24
REMARK    4  A    between atoms: C_25  and  C_31
REMARK    5  A    between atoms: C_31  and  N_32
REMARK                            x       y       z     vdW  Elec       q    Type
REMARK                         _______ _______ _______ _____ _____    ______ ____
ROOT
ATOM      1  N   UNL     1      32.810 -12.958 -22.869  0.00  0.00    -0.312 N 
ATOM      2  C   UNL     1      33.102  -8.908 -23.522  0.00  0.00    -0.043 C 
ATOM      3  C   UNL     1      34.034  -9.821 -24.015  0.00  0.00    -0.005 C 
ATOM      4  C   UNL     1      32.007  -9.324 -22.774  0.00  0.00    -0.005 C 
ATOM      5  C   UNL     1      33.856 -11.192 -23.743  0.00  0.00    +0.014 C 
ATOM      6  C   UNL     1      32.749 -11.588 -22.988  0.00  0.00    +0.048 C 
ATOM      7  C   UNL     1      31.809 -10.678 -22.491  0.00  0.00    +0.014 C 
ATOM      8  C   UNL     1      34.580 -12.372 -24.071  0.00  0.00    +0.016 C 
ATOM      9  C   UNL     1      33.913 -13.441 -23.520  0.00  0.00    +0.053 C 
ATOM     10  H   UNL     1      32.154 -13.511 -22.385  0.00  0.00    +0.152 HD
ENDROOT
BRANCH   9  13
ATOM     11  O   UNL     1      33.316 -15.169 -25.716  0.00  0.00    -0.270 OA
ATOM     12  N   UNL     1      34.074 -17.034 -24.621  0.00  0.00    -0.280 N 
ATOM     13  C   UNL     1      34.144 -14.852 -23.503  0.00  0.00    +0.067 C 
ATOM     14  C   UNL     1      34.667 -15.428 -22.408  0.00  0.00    +0.007 C 
ATOM     15  C   UNL     1      33.808 -15.681 -24.710  0.00  0.00    +0.251 C 
ATOM     16  C   UNL     1      34.924 -16.866 -22.361  0.00  0.00    +0.014 C 
ATOM     17  C   UNL     1      34.621 -17.645 -23.481  0.00  0.00    +0.051 C 
ATOM     18  C   UNL     1      35.467 -17.476 -21.226  0.00  0.00    +0.001 C 
ATOM     19  C   UNL     1      34.855 -19.023 -23.475  0.00  0.00    +0.015 C 
ATOM     20  C   UNL     1      35.702 -18.853 -21.219  0.00  0.00    +0.000 C 
ATOM     21  C   UNL     1      35.396 -19.624 -22.340  0.00  0.00    +0.001 C 
ATOM     22  H   UNL     1      33.869 -17.601 -25.400  0.00  0.00    +0.155 HD
ENDBRANCH   9  13
BRANCH   2  23
ATOM     23  C   UNL     1      33.287  -7.446 -23.808  0.00  0.00    -0.050 C 
BRANCH  23  24
ATOM     24  N   UNL     1      32.291  -6.624 -23.122  0.00  0.00    +0.390 N 
ATOM     25  C   UNL     1      31.187  -4.114 -22.081  0.00  0.00    -0.026 C 
ATOM     26  C   UNL     1      31.833  -5.167 -21.175  0.00  0.00    -0.025 C 
ATOM     27  C   UNL     1      30.654  -4.783 -23.352  0.00  0.00    -0.025 C 
ATOM     28  C   UNL     1      32.877  -5.989 -21.933  0.00  0.00    -0.077 C 
ATOM     29  C   UNL     1      31.736  -5.618 -24.039  0.00  0.00    -0.077 C 
ATOM     30  H   UNL     1      31.527  -7.224 -22.814  0.00  0.00    -0.079 HD
BRANCH  25  31
ATOM     31  C   UNL     1      30.077  -3.365 -21.348  0.00  0.00    -0.086 C 
BRANCH  31  32
ATOM     32  N   UNL     1      29.657  -2.194 -22.101  0.00  0.00    +0.380 N 
ATOM     33  H   UNL     1      30.044  -1.355 -21.670  0.00  0.00    -0.089 HD
ATOM     34  H   UNL     1      28.638  -2.137 -22.100  0.00  0.00    -0.089 HD
ATOM     35  H   UNL     1      29.992  -2.268 -23.062  0.00  0.00    -0.089 HD
ENDBRANCH  31  32
ENDBRANCH  25  31
ENDBRANCH  23  24
ENDBRANCH   2  23
TORSDOF 5
ENDMDL
