MODEL 1
REMARK VINA RESULT:     -11.3      0.000      0.000
REMARK  Name = 24894149
REMARK  3 active torsions:
REMARK  status: ('A' for Active; 'I' for Inactive)
REMARK    1  A    between atoms: C_15  and  C_23
REMARK    2  A    between atoms: C_28  and  C_29
REMARK    3  A    between atoms: C_29  and  N_30
REMARK                            x       y       z     vdW  Elec       q    Type
REMARK                         _______ _______ _______ _____ _____    ______ ____
ROOT
ATOM      1  F   UNL     1      37.171 -27.004 -12.091  0.00  0.00    -0.204 F 
ATOM      2  O   UNL     1      32.468 -21.932 -18.753  0.00  0.00    -0.270 OA
ATOM      3  N   UNL     1      34.446 -22.655 -17.734  0.00  0.00    -0.276 N 
ATOM      4  N   UNL     1      35.821 -22.704 -13.795  0.00  0.00    -0.318 N 
ATOM      5  N   UNL     1      36.182 -24.605 -15.385  0.00  0.00    -0.242 NA
ATOM      6  N   UNL     1      37.084 -26.602 -14.674  0.00  0.00    -0.343 N 
ATOM      7  C   UNL     1      35.628 -23.268 -15.121  0.00  0.00    +0.145 C 
ATOM      8  C   UNL     1      34.104 -23.331 -15.391  0.00  0.00    +0.063 C 
ATOM      9  C   UNL     1      36.286 -22.298 -16.132  0.00  0.00    +0.063 C 
ATOM     10  C   UNL     1      33.775 -23.612 -16.857  0.00  0.00    +0.097 C 
ATOM     11  C   UNL     1      35.904 -22.596 -17.583  0.00  0.00    +0.097 C 
ATOM     12  C   UNL     1      36.142 -23.550 -12.750  0.00  0.00    +0.051 C 
ATOM     13  C   UNL     1      36.579 -25.351 -14.400  0.00  0.00    +0.125 C 
ATOM     14  C   UNL     1      36.514 -24.880 -12.983  0.00  0.00    +0.071 C 
ATOM     15  C   UNL     1      33.691 -21.886 -18.622  0.00  0.00    +0.249 C 
ATOM     16  C   UNL     1      36.125 -23.071 -11.431  0.00  0.00    +0.015 C 
ATOM     17  C   UNL     1      36.828 -25.721 -11.905  0.00  0.00    +0.144 C 
ATOM     18  C   UNL     1      36.444 -23.906 -10.362  0.00  0.00    +0.004 C 
ATOM     19  C   UNL     1      36.790 -25.232 -10.599  0.00  0.00    +0.030 C 
ATOM     20  H   UNL     1      35.724 -21.736 -13.644  0.00  0.00    +0.148 HD
ATOM     21  H   UNL     1      37.131 -26.922 -15.604  0.00  0.00    +0.144 HD
ATOM     22  H   UNL     1      37.398 -27.178 -13.939  0.00  0.00    +0.144 HD
ENDROOT
BRANCH  15  23
ATOM     23  C   UNL     1      34.398 -20.934 -19.487  0.00  0.00    +0.054 C 
ATOM     24  C   UNL     1      33.677 -20.104 -20.346  0.00  0.00    +0.004 C 
ATOM     25  C   UNL     1      35.790 -20.857 -19.449  0.00  0.00    +0.004 C 
ATOM     26  C   UNL     1      34.349 -19.199 -21.168  0.00  0.00    -0.006 C 
ATOM     27  C   UNL     1      36.462 -19.952 -20.270  0.00  0.00    -0.006 C 
ATOM     28  C   UNL     1      35.741 -19.122 -21.129  0.00  0.00    -0.044 C 
BRANCH  28  29
ATOM     29  C   UNL     1      36.461 -18.156 -22.007  0.00  0.00    -0.059 C 
BRANCH  29  30
ATOM     30  N   UNL     1      35.562 -17.470 -22.937  0.00  0.00    +0.383 N 
ATOM     31  H   UNL     1      35.231 -16.604 -22.514  0.00  0.00    -0.089 HD
ATOM     32  H   UNL     1      34.766 -18.073 -23.147  0.00  0.00    -0.089 HD
ATOM     33  H   UNL     1      36.064 -17.258 -23.800  0.00  0.00    -0.089 HD
ENDBRANCH  29  30
ENDBRANCH  28  29
ENDBRANCH  15  23
TORSDOF 3
ENDMDL
MODEL 2
REMARK VINA RESULT:     -11.3      8.049     13.967
REMARK  Name = 24894149
REMARK  3 active torsions:
REMARK  status: ('A' for Active; 'I' for Inactive)
REMARK    1  A    between atoms: C_15  and  C_23
REMARK    2  A    between atoms: C_28  and  C_29
REMARK    3  A    between atoms: C_29  and  N_30
REMARK                            x       y       z     vdW  Elec       q    Type
REMARK                         _______ _______ _______ _____ _____    ______ ____
ROOT
ATOM      1  F   UNL     1      31.262  -7.608 -22.765  0.00  0.00    -0.204 F 
ATOM      2  O   UNL     1      33.973 -16.417 -25.459  0.00  0.00    -0.270 OA
ATOM      3  N   UNL     1      33.582 -14.797 -23.817  0.00  0.00    -0.276 N 
ATOM      4  N   UNL     1      34.795 -10.836 -23.316  0.00  0.00    -0.318 N 
ATOM      5  N   UNL     1      32.472 -11.622 -22.807  0.00  0.00    -0.242 NA
ATOM      6  N   UNL     1      30.800 -10.133 -22.267  0.00  0.00    -0.343 N 
ATOM      7  C   UNL     1      33.833 -11.925 -23.277  0.00  0.00    +0.145 C 
ATOM      8  C   UNL     1      33.716 -12.504 -24.709  0.00  0.00    +0.063 C 
ATOM      9  C   UNL     1      34.406 -13.009 -22.332  0.00  0.00    +0.063 C 
ATOM     10  C   UNL     1      32.978 -13.843 -24.745  0.00  0.00    +0.097 C 
ATOM     11  C   UNL     1      33.658 -14.340 -22.425  0.00  0.00    +0.097 C 
ATOM     12  C   UNL     1      34.331  -9.534 -23.303  0.00  0.00    +0.051 C 
ATOM     13  C   UNL     1      32.081 -10.389 -22.699  0.00  0.00    +0.125 C 
ATOM     14  C   UNL     1      32.990  -9.246 -23.017  0.00  0.00    +0.071 C 
ATOM     15  C   UNL     1      34.034 -16.030 -24.293  0.00  0.00    +0.249 C 
ATOM     16  C   UNL     1      35.215  -8.474 -23.554  0.00  0.00    +0.015 C 
ATOM     17  C   UNL     1      32.541  -7.917 -23.018  0.00  0.00    +0.144 C 
ATOM     18  C   UNL     1      34.768  -7.153 -23.548  0.00  0.00    +0.004 C 
ATOM     19  C   UNL     1      33.431  -6.876 -23.285  0.00  0.00    +0.030 C 
ATOM     20  H   UNL     1      35.761 -11.023 -23.352  0.00  0.00    +0.148 HD
ATOM     21  H   UNL     1      30.192 -10.878 -22.055  0.00  0.00    +0.144 HD
ATOM     22  H   UNL     1      30.489  -9.203 -22.170  0.00  0.00    +0.144 HD
ENDROOT
BRANCH  15  23
ATOM     23  C   UNL     1      34.637 -16.962 -23.334  0.00  0.00    +0.054 C 
ATOM     24  C   UNL     1      34.560 -18.337 -23.555  0.00  0.00    +0.004 C 
ATOM     25  C   UNL     1      35.289 -16.474 -22.201  0.00  0.00    +0.004 C 
ATOM     26  C   UNL     1      35.134 -19.224 -22.643  0.00  0.00    -0.006 C 
ATOM     27  C   UNL     1      35.862 -17.360 -21.289  0.00  0.00    -0.006 C 
ATOM     28  C   UNL     1      35.785 -18.735 -21.511  0.00  0.00    -0.044 C 
BRANCH  28  29
ATOM     29  C   UNL     1      36.398 -19.681 -20.536  0.00  0.00    -0.059 C 
BRANCH  29  30
ATOM     30  N   UNL     1      35.395 -20.411 -19.759  0.00  0.00    +0.383 N 
ATOM     31  H   UNL     1      35.733 -21.354 -19.568  0.00  0.00    -0.089 HD
ATOM     32  H   UNL     1      34.526 -20.463 -20.290  0.00  0.00    -0.089 HD
ATOM     33  H   UNL     1      35.227 -19.924 -18.879  0.00  0.00    -0.089 HD
ENDBRANCH  29  30
ENDBRANCH  28  29
ENDBRANCH  15  23
TORSDOF 3
ENDMDL
MODEL 3
REMARK VINA RESULT:     -10.6      5.809      9.005
REMARK  Name = 24894149
REMARK  3 active torsions:
REMARK  status: ('A' for Active; 'I' for Inactive)
REMARK    1  A    between atoms: C_15  and  C_23
REMARK    2  A    between atoms: C_28  and  C_29
REMARK    3  A    between atoms: C_29  and  N_30
REMARK                            x       y       z     vdW  Elec       q    Type
REMARK                         _______ _______ _______ _____ _____    ______ ____
ROOT
ATOM      1  F   UNL     1      37.520 -21.563 -19.719  0.00  0.00    -0.204 F 
ATOM      2  O   UNL     1      33.608 -14.965 -25.496  0.00  0.00    -0.270 OA
ATOM      3  N   UNL     1      34.543 -15.616 -23.453  0.00  0.00    -0.276 N 
ATOM      4  N   UNL     1      33.773 -18.726 -20.780  0.00  0.00    -0.318 N 
ATOM      5  N   UNL     1      36.091 -17.985 -21.374  0.00  0.00    -0.242 NA
ATOM      6  N   UNL     1      37.939 -19.159 -20.659  0.00  0.00    -0.343 N 
ATOM      7  C   UNL     1      34.637 -17.837 -21.540  0.00  0.00    +0.145 C 
ATOM      8  C   UNL     1      34.314 -18.033 -23.042  0.00  0.00    +0.063 C 
ATOM      9  C   UNL     1      34.280 -16.388 -21.126  0.00  0.00    +0.063 C 
ATOM     10  C   UNL     1      34.924 -16.945 -23.924  0.00  0.00    +0.097 C 
ATOM     11  C   UNL     1      34.886 -15.334 -22.055  0.00  0.00    +0.097 C 
ATOM     12  C   UNL     1      34.305 -19.892 -20.263  0.00  0.00    +0.051 C 
ATOM     13  C   UNL     1      36.575 -19.039 -20.792  0.00  0.00    +0.125 C 
ATOM     14  C   UNL     1      35.688 -20.115 -20.252  0.00  0.00    +0.071 C 
ATOM     15  C   UNL     1      33.898 -14.734 -24.324  0.00  0.00    +0.249 C 
ATOM     16  C   UNL     1      33.456 -20.865 -19.714  0.00  0.00    +0.015 C 
ATOM     17  C   UNL     1      36.203 -21.310 -19.730  0.00  0.00    +0.144 C 
ATOM     18  C   UNL     1      33.971 -22.049 -19.189  0.00  0.00    +0.004 C 
ATOM     19  C   UNL     1      35.343 -22.273 -19.202  0.00  0.00    +0.030 C 
ATOM     20  H   UNL     1      32.825 -18.500 -20.636  0.00  0.00    +0.148 HD
ATOM     21  H   UNL     1      38.533 -18.457 -21.012  0.00  0.00    +0.144 HD
ATOM     22  H   UNL     1      38.323 -19.948 -20.212  0.00  0.00    +0.144 HD
ENDROOT
BRANCH  15  23
ATOM     23  C   UNL     1      33.527 -13.408 -23.815  0.00  0.00    +0.054 C 
ATOM     24  C   UNL     1      34.259 -12.284 -24.201  0.00  0.00    +0.004 C 
ATOM     25  C   UNL     1      32.443 -13.270 -22.949  0.00  0.00    +0.004 C 
ATOM     26  C   UNL     1      33.906 -11.023 -23.718  0.00  0.00    -0.006 C 
ATOM     27  C   UNL     1      32.090 -12.010 -22.467  0.00  0.00    -0.006 C 
ATOM     28  C   UNL     1      32.822 -10.886 -22.852  0.00  0.00    -0.044 C 
BRANCH  28  29
ATOM     29  C   UNL     1      32.444  -9.540 -22.336  0.00  0.00    -0.059 C 
BRANCH  29  30
ATOM     30  N   UNL     1      31.748  -9.609 -21.051  0.00  0.00    +0.383 N 
ATOM     31  H   UNL     1      31.217 -10.479 -20.998  0.00  0.00    -0.089 HD
ATOM     32  H   UNL     1      31.111  -8.817 -20.966  0.00  0.00    -0.089 HD
ATOM     33  H   UNL     1      32.429  -9.580 -20.292  0.00  0.00    -0.089 HD
ENDBRANCH  29  30
ENDBRANCH  28  29
ENDBRANCH  15  23
TORSDOF 3
ENDMDL
MODEL 4
REMARK VINA RESULT:      -9.8     12.782     17.177
REMARK  Name = 24894149
REMARK  3 active torsions:
REMARK  status: ('A' for Active; 'I' for Inactive)
REMARK    1  A    between atoms: C_15  and  C_23
REMARK    2  A    between atoms: C_28  and  C_29
REMARK    3  A    between atoms: C_29  and  N_30
REMARK                            x       y       z     vdW  Elec       q    Type
REMARK                         _______ _______ _______ _____ _____    ______ ____
ROOT
ATOM      1  F   UNL     1      31.667 -11.160 -18.743  0.00  0.00    -0.204 F 
ATOM      2  O   UNL     1      35.608  -5.536 -25.454  0.00  0.00    -0.270 OA
ATOM      3  N   UNL     1      33.749  -6.471 -24.387  0.00  0.00    -0.276 N 
ATOM      4  N   UNL     1      32.642 -10.370 -23.394  0.00  0.00    -0.318 N 
ATOM      5  N   UNL     1      32.291  -8.424 -21.858  0.00  0.00    -0.242 NA
ATOM      6  N   UNL     1      31.560  -8.727 -19.694  0.00  0.00    -0.343 N 
ATOM      7  C   UNL     1      32.780  -8.945 -23.143  0.00  0.00    +0.145 C 
ATOM      8  C   UNL     1      34.284  -8.590 -23.251  0.00  0.00    +0.063 C 
ATOM      9  C   UNL     1      32.000  -8.205 -24.257  0.00  0.00    +0.063 C 
ATOM     10  C   UNL     1      34.532  -7.083 -23.316  0.00  0.00    +0.097 C 
ATOM     11  C   UNL     1      32.303  -6.706 -24.305  0.00  0.00    +0.097 C 
ATOM     12  C   UNL     1      32.441 -11.220 -22.323  0.00  0.00    +0.051 C 
ATOM     13  C   UNL     1      32.006  -9.241 -20.891  0.00  0.00    +0.125 C 
ATOM     14  C   UNL     1      32.135 -10.722 -21.050  0.00  0.00    +0.071 C 
ATOM     15  C   UNL     1      34.397  -5.736 -25.381  0.00  0.00    +0.249 C 
ATOM     16  C   UNL     1      32.516 -12.609 -22.508  0.00  0.00    +0.015 C 
ATOM     17  C   UNL     1      31.944 -11.604 -19.977  0.00  0.00    +0.144 C 
ATOM     18  C   UNL     1      32.319 -13.485 -21.442  0.00  0.00    +0.004 C 
ATOM     19  C   UNL     1      32.038 -12.982 -20.176  0.00  0.00    +0.030 C 
ATOM     20  H   UNL     1      32.689 -10.723 -24.312  0.00  0.00    +0.148 HD
ATOM     21  H   UNL     1      31.471  -7.754 -19.578  0.00  0.00    +0.144 HD
ATOM     22  H   UNL     1      31.330  -9.334 -18.953  0.00  0.00    +0.144 HD
ENDROOT
BRANCH  15  23
ATOM     23  C   UNL     1      33.578  -5.137 -26.443  0.00  0.00    +0.054 C 
ATOM     24  C   UNL     1      32.825  -3.992 -26.180  0.00  0.00    +0.004 C 
ATOM     25  C   UNL     1      33.554  -5.711 -27.714  0.00  0.00    +0.004 C 
ATOM     26  C   UNL     1      32.048  -3.423 -27.189  0.00  0.00    -0.006 C 
ATOM     27  C   UNL     1      32.777  -5.142 -28.722  0.00  0.00    -0.006 C 
ATOM     28  C   UNL     1      32.025  -3.997 -28.460  0.00  0.00    -0.044 C 
BRANCH  28  29
ATOM     29  C   UNL     1      31.194  -3.389 -29.538  0.00  0.00    -0.059 C 
BRANCH  29  30
ATOM     30  N   UNL     1      30.129  -2.535 -29.010  0.00  0.00    +0.383 N 
ATOM     31  H   UNL     1      29.309  -3.104 -28.801  0.00  0.00    -0.089 HD
ATOM     32  H   UNL     1      29.885  -1.829 -29.704  0.00  0.00    -0.089 HD
ATOM     33  H   UNL     1      30.452  -2.077 -28.158  0.00  0.00    -0.089 HD
ENDBRANCH  29  30
ENDBRANCH  28  29
ENDBRANCH  15  23
TORSDOF 3
ENDMDL
MODEL 5
REMARK VINA RESULT:      -9.8      4.298      9.721
REMARK  Name = 24894149
REMARK  3 active torsions:
REMARK  status: ('A' for Active; 'I' for Inactive)
REMARK    1  A    between atoms: C_15  and  C_23
REMARK    2  A    between atoms: C_28  and  C_29
REMARK    3  A    between atoms: C_29  and  N_30
REMARK                            x       y       z     vdW  Elec       q    Type
REMARK                         _______ _______ _______ _____ _____    ______ ____
ROOT
ATOM      1  F   UNL     1      34.884 -17.465 -25.415  0.00  0.00    -0.204 F 
ATOM      2  O   UNL     1      37.100 -22.298 -17.419  0.00  0.00    -0.270 OA
ATOM      3  N   UNL     1      35.550 -21.520 -18.990  0.00  0.00    -0.276 N 
ATOM      4  N   UNL     1      34.710 -17.768 -20.610  0.00  0.00    -0.318 N 
ATOM      5  N   UNL     1      34.742 -19.865 -21.980  0.00  0.00    -0.242 NA
ATOM      6  N   UNL     1      34.553 -19.795 -24.274  0.00  0.00    -0.343 N 
ATOM      7  C   UNL     1      34.907 -19.207 -20.674  0.00  0.00    +0.145 C 
ATOM      8  C   UNL     1      36.342 -19.511 -20.174  0.00  0.00    +0.063 C 
ATOM      9  C   UNL     1      33.882 -19.853 -19.710  0.00  0.00    +0.063 C 
ATOM     10  C   UNL     1      36.568 -20.997 -19.899  0.00  0.00    +0.097 C 
ATOM     11  C   UNL     1      34.166 -21.331 -19.439  0.00  0.00    +0.097 C 
ATOM     12  C   UNL     1      34.772 -17.033 -21.779  0.00  0.00    +0.051 C 
ATOM     13  C   UNL     1      34.697 -19.154 -23.065  0.00  0.00    +0.125 C 
ATOM     14  C   UNL     1      34.783 -17.662 -23.031  0.00  0.00    +0.071 C 
ATOM     15  C   UNL     1      35.941 -22.137 -17.799  0.00  0.00    +0.249 C 
ATOM     16  C   UNL     1      34.800 -15.631 -21.723  0.00  0.00    +0.015 C 
ATOM     17  C   UNL     1      34.855 -16.895 -24.202  0.00  0.00    +0.144 C 
ATOM     18  C   UNL     1      34.864 -14.870 -22.890  0.00  0.00    +0.004 C 
ATOM     19  C   UNL     1      34.897 -15.502 -24.128  0.00  0.00    +0.030 C 
ATOM     20  H   UNL     1      34.535 -17.325 -19.748  0.00  0.00    +0.148 HD
ATOM     21  H   UNL     1      34.496 -20.777 -24.309  0.00  0.00    +0.144 HD
ATOM     22  H   UNL     1      34.508 -19.270 -25.107  0.00  0.00    +0.144 HD
ENDROOT
BRANCH  15  23
ATOM     23  C   UNL     1      34.892 -22.649 -16.910  0.00  0.00    +0.054 C 
ATOM     24  C   UNL     1      35.166 -22.864 -15.559  0.00  0.00    +0.004 C 
ATOM     25  C   UNL     1      33.619 -22.920 -17.414  0.00  0.00    +0.004 C 
ATOM     26  C   UNL     1      34.169 -23.350 -14.713  0.00  0.00    -0.006 C 
ATOM     27  C   UNL     1      32.622 -23.406 -16.569  0.00  0.00    -0.006 C 
ATOM     28  C   UNL     1      32.897 -23.620 -15.218  0.00  0.00    -0.044 C 
BRANCH  28  29
ATOM     29  C   UNL     1      31.831 -24.140 -14.315  0.00  0.00    -0.059 C 
BRANCH  29  30
ATOM     30  N   UNL     1      32.338 -25.128 -13.362  0.00  0.00    +0.383 N 
ATOM     31  H   UNL     1      32.494 -24.681 -12.459  0.00  0.00    -0.089 HD
ATOM     32  H   UNL     1      33.217 -25.513 -13.707  0.00  0.00    -0.089 HD
ATOM     33  H   UNL     1      31.656 -25.879 -13.256  0.00  0.00    -0.089 HD
ENDBRANCH  29  30
ENDBRANCH  28  29
ENDBRANCH  15  23
TORSDOF 3
ENDMDL
MODEL 6
REMARK VINA RESULT:      -9.6      9.335     13.139
REMARK  Name = 24894149
REMARK  3 active torsions:
REMARK  status: ('A' for Active; 'I' for Inactive)
REMARK    1  A    between atoms: C_15  and  C_23
REMARK    2  A    between atoms: C_28  and  C_29
REMARK    3  A    between atoms: C_29  and  N_30
REMARK                            x       y       z     vdW  Elec       q    Type
REMARK                         _______ _______ _______ _____ _____    ______ ____
ROOT
ATOM      1  F   UNL     1      33.924 -18.646 -24.583  0.00  0.00    -0.204 F 
ATOM      2  O   UNL     1      30.939  -9.929 -21.876  0.00  0.00    -0.270 OA
ATOM      3  N   UNL     1      32.276 -11.330 -23.189  0.00  0.00    -0.276 N 
ATOM      4  N   UNL     1      34.864 -14.490 -22.335  0.00  0.00    -0.318 N 
ATOM      5  N   UNL     1      33.284 -14.513 -24.278  0.00  0.00    -0.242 NA
ATOM      6  N   UNL     1      32.998 -16.404 -25.562  0.00  0.00    -0.343 N 
ATOM      7  C   UNL     1      33.826 -13.818 -23.100  0.00  0.00    +0.145 C 
ATOM      8  C   UNL     1      32.644 -13.529 -22.142  0.00  0.00    +0.063 C 
ATOM      9  C   UNL     1      34.419 -12.478 -23.599  0.00  0.00    +0.063 C 
ATOM     10  C   UNL     1      31.625 -12.559 -22.737  0.00  0.00    +0.097 C 
ATOM     11  C   UNL     1      33.360 -11.526 -24.158  0.00  0.00    +0.097 C 
ATOM     12  C   UNL     1      35.021 -15.855 -22.479  0.00  0.00    +0.051 C 
ATOM     13  C   UNL     1      33.526 -15.775 -24.457  0.00  0.00    +0.125 C 
ATOM     14  C   UNL     1      34.373 -16.556 -23.504  0.00  0.00    +0.071 C 
ATOM     15  C   UNL     1      31.847 -10.099 -22.688  0.00  0.00    +0.249 C 
ATOM     16  C   UNL     1      35.863 -16.558 -21.603  0.00  0.00    +0.015 C 
ATOM     17  C   UNL     1      34.542 -17.943 -23.624  0.00  0.00    +0.144 C 
ATOM     18  C   UNL     1      36.035 -17.936 -21.729  0.00  0.00    +0.004 C 
ATOM     19  C   UNL     1      35.371 -18.628 -22.735  0.00  0.00    +0.030 C 
ATOM     20  H   UNL     1      35.445 -13.980 -21.725  0.00  0.00    +0.148 HD
ATOM     21  H   UNL     1      32.439 -15.900 -26.196  0.00  0.00    +0.144 HD
ATOM     22  H   UNL     1      33.180 -17.360 -25.719  0.00  0.00    +0.144 HD
ENDROOT
BRANCH  15  23
ATOM     23  C   UNL     1      32.525  -8.886 -23.162  0.00  0.00    +0.054 C 
ATOM     24  C   UNL     1      33.649  -8.407 -22.488  0.00  0.00    +0.004 C 
ATOM     25  C   UNL     1      32.047  -8.213 -24.287  0.00  0.00    +0.004 C 
ATOM     26  C   UNL     1      34.293  -7.255 -22.939  0.00  0.00    -0.006 C 
ATOM     27  C   UNL     1      32.691  -7.062 -24.738  0.00  0.00    -0.006 C 
ATOM     28  C   UNL     1      33.815  -6.583 -24.064  0.00  0.00    -0.044 C 
BRANCH  28  29
ATOM     29  C   UNL     1      34.503  -5.351 -24.546  0.00  0.00    -0.059 C 
BRANCH  29  30
ATOM     30  N   UNL     1      35.353  -5.606 -25.710  0.00  0.00    +0.383 N 
ATOM     31  H   UNL     1      35.770  -6.533 -25.631  0.00  0.00    -0.089 HD
ATOM     32  H   UNL     1      36.091  -4.904 -25.751  0.00  0.00    -0.089 HD
ATOM     33  H   UNL     1      34.790  -5.557 -26.559  0.00  0.00    -0.089 HD
ENDBRANCH  29  30
ENDBRANCH  28  29
ENDBRANCH  15  23
TORSDOF 3
ENDMDL
MODEL 7
REMARK VINA RESULT:      -9.0      4.654      7.612
REMARK  Name = 24894149
REMARK  3 active torsions:
REMARK  status: ('A' for Active; 'I' for Inactive)
REMARK    1  A    between atoms: C_15  and  C_23
REMARK    2  A    between atoms: C_28  and  C_29
REMARK    3  A    between atoms: C_29  and  N_30
REMARK                            x       y       z     vdW  Elec       q    Type
REMARK                         _______ _______ _______ _____ _____    ______ ____
ROOT
ATOM      1  F   UNL     1      36.883 -22.420 -17.848  0.00  0.00    -0.204 F 
ATOM      2  O   UNL     1      34.569 -16.937 -25.384  0.00  0.00    -0.270 OA
ATOM      3  N   UNL     1      35.028 -17.217 -23.107  0.00  0.00    -0.276 N 
ATOM      4  N   UNL     1      33.576 -19.787 -20.158  0.00  0.00    -0.318 N 
ATOM      5  N   UNL     1      35.999 -19.187 -20.366  0.00  0.00    -0.242 NA
ATOM      6  N   UNL     1      37.601 -20.229 -19.082  0.00  0.00    -0.343 N 
ATOM      7  C   UNL     1      34.619 -19.057 -20.860  0.00  0.00    +0.145 C 
ATOM      8  C   UNL     1      34.606 -19.519 -22.339  0.00  0.00    +0.063 C 
ATOM      9  C   UNL     1      34.254 -17.554 -20.790  0.00  0.00    +0.063 C 
ATOM     10  C   UNL     1      35.436 -18.613 -23.247  0.00  0.00    +0.097 C 
ATOM     11  C   UNL     1      35.088 -16.691 -21.739  0.00  0.00    +0.097 C 
ATOM     12  C   UNL     1      33.934 -20.846 -19.345  0.00  0.00    +0.051 C 
ATOM     13  C   UNL     1      36.301 -20.123 -19.520  0.00  0.00    +0.125 C 
ATOM     14  C   UNL     1      35.272 -21.076 -19.002  0.00  0.00    +0.071 C 
ATOM     15  C   UNL     1      34.621 -16.501 -24.235  0.00  0.00    +0.249 C 
ATOM     16  C   UNL     1      32.944 -21.696 -18.828  0.00  0.00    +0.015 C 
ATOM     17  C   UNL     1      35.611 -22.162 -18.182  0.00  0.00    +0.144 C 
ATOM     18  C   UNL     1      33.283 -22.771 -18.007  0.00  0.00    +0.004 C 
ATOM     19  C   UNL     1      34.616 -23.006 -17.689  0.00  0.00    +0.030 C 
ATOM     20  H   UNL     1      32.631 -19.530 -20.260  0.00  0.00    +0.148 HD
ATOM     21  H   UNL     1      38.287 -19.608 -19.417  0.00  0.00    +0.144 HD
ATOM     22  H   UNL     1      37.847 -20.929 -18.432  0.00  0.00    +0.144 HD
ENDROOT
BRANCH  15  23
ATOM     23  C   UNL     1      34.216 -15.101 -24.056  0.00  0.00    +0.054 C 
ATOM     24  C   UNL     1      33.460 -14.463 -25.040  0.00  0.00    +0.004 C 
ATOM     25  C   UNL     1      34.585 -14.410 -22.902  0.00  0.00    +0.004 C 
ATOM     26  C   UNL     1      33.075 -13.133 -24.870  0.00  0.00    -0.006 C 
ATOM     27  C   UNL     1      34.199 -13.080 -22.732  0.00  0.00    -0.006 C 
ATOM     28  C   UNL     1      33.444 -12.442 -23.716  0.00  0.00    -0.044 C 
BRANCH  28  29
ATOM     29  C   UNL     1      33.033 -11.021 -23.533  0.00  0.00    -0.059 C 
BRANCH  29  30
ATOM     30  N   UNL     1      34.176 -10.108 -23.500  0.00  0.00    +0.383 N 
ATOM     31  H   UNL     1      34.542  -9.988 -24.445  0.00  0.00    -0.089 HD
ATOM     32  H   UNL     1      34.904 -10.497 -22.901  0.00  0.00    -0.089 HD
ATOM     33  H   UNL     1      33.880  -9.204 -23.132  0.00  0.00    -0.089 HD
ENDBRANCH  29  30
ENDBRANCH  28  29
ENDBRANCH  15  23
TORSDOF 3
ENDMDL
MODEL 8
REMARK VINA RESULT:      -8.9     11.174     15.288
REMARK  Name = 24894149
REMARK  3 active torsions:
REMARK  status: ('A' for Active; 'I' for Inactive)
REMARK    1  A    between atoms: C_15  and  C_23
REMARK    2  A    between atoms: C_28  and  C_29
REMARK    3  A    between atoms: C_29  and  N_30
REMARK                            x       y       z     vdW  Elec       q    Type
REMARK                         _______ _______ _______ _____ _____    ______ ____
ROOT
ATOM      1  F   UNL     1      35.135 -16.166 -22.319  0.00  0.00    -0.204 F 
ATOM      2  O   UNL     1      34.906  -6.700 -23.916  0.00  0.00    -0.270 OA
ATOM      3  N   UNL     1      34.043  -8.643 -22.941  0.00  0.00    -0.276 N 
ATOM      4  N   UNL     1      32.989 -12.400 -24.421  0.00  0.00    -0.318 N 
ATOM      5  N   UNL     1      34.188 -12.082 -22.244  0.00  0.00    -0.242 NA
ATOM      6  N   UNL     1      35.000 -13.880 -21.056  0.00  0.00    -0.343 N 
ATOM      7  C   UNL     1      33.582 -11.495 -23.450  0.00  0.00    +0.145 C 
ATOM      8  C   UNL     1      34.681 -10.677 -24.174  0.00  0.00    +0.063 C 
ATOM      9  C   UNL     1      32.464 -10.537 -22.972  0.00  0.00    +0.063 C 
ATOM     10  C   UNL     1      35.165  -9.483 -23.354  0.00  0.00    +0.097 C 
ATOM     11  C   UNL     1      32.997  -9.340 -22.183  0.00  0.00    +0.097 C 
ATOM     12  C   UNL     1      33.346 -13.735 -24.394  0.00  0.00    +0.051 C 
ATOM     13  C   UNL     1      34.423 -13.357 -22.190  0.00  0.00    +0.125 C 
ATOM     14  C   UNL     1      34.070 -14.270 -23.321  0.00  0.00    +0.071 C 
ATOM     15  C   UNL     1      34.032  -7.289 -23.281  0.00  0.00    +0.249 C 
ATOM     16  C   UNL     1      32.959 -14.583 -25.442  0.00  0.00    +0.015 C 
ATOM     17  C   UNL     1      34.428 -15.626 -23.321  0.00  0.00    +0.144 C 
ATOM     18  C   UNL     1      33.309 -15.933 -25.437  0.00  0.00    +0.004 C 
ATOM     19  C   UNL     1      34.048 -16.452 -24.379  0.00  0.00    +0.030 C 
ATOM     20  H   UNL     1      32.344 -12.067 -25.085  0.00  0.00    +0.148 HD
ATOM     21  H   UNL     1      35.236 -13.289 -20.305  0.00  0.00    +0.144 HD
ATOM     22  H   UNL     1      35.177 -14.848 -20.994  0.00  0.00    +0.144 HD
ENDROOT
BRANCH  15  23
ATOM     23  C   UNL     1      32.887  -6.477 -22.851  0.00  0.00    +0.054 C 
ATOM     24  C   UNL     1      32.843  -5.966 -21.554  0.00  0.00    +0.004 C 
ATOM     25  C   UNL     1      31.845  -6.214 -23.740  0.00  0.00    +0.004 C 
ATOM     26  C   UNL     1      31.756  -5.193 -21.145  0.00  0.00    -0.006 C 
ATOM     27  C   UNL     1      30.758  -5.441 -23.332  0.00  0.00    -0.006 C 
ATOM     28  C   UNL     1      30.714  -4.931 -22.034  0.00  0.00    -0.044 C 
BRANCH  28  29
ATOM     29  C   UNL     1      29.551  -4.105 -21.599  0.00  0.00    -0.059 C 
BRANCH  29  30
ATOM     30  N   UNL     1      29.810  -2.670 -21.715  0.00  0.00    +0.383 N 
ATOM     31  H   UNL     1      30.202  -2.468 -22.635  0.00  0.00    -0.089 HD
ATOM     32  H   UNL     1      30.472  -2.385 -20.993  0.00  0.00    -0.089 HD
ATOM     33  H   UNL     1      28.937  -2.156 -21.596  0.00  0.00    -0.089 HD
ENDBRANCH  29  30
ENDBRANCH  28  29
ENDBRANCH  15  23
TORSDOF 3
ENDMDL
MODEL 9
REMARK VINA RESULT:      -8.9     12.741     17.364
REMARK  Name = 24894149
REMARK  3 active torsions:
REMARK  status: ('A' for Active; 'I' for Inactive)
REMARK    1  A    between atoms: C_15  and  C_23
REMARK    2  A    between atoms: C_28  and  C_29
REMARK    3  A    between atoms: C_29  and  N_30
REMARK                            x       y       z     vdW  Elec       q    Type
REMARK                         _______ _______ _______ _____ _____    ______ ____
ROOT
ATOM      1  F   UNL     1      31.380 -13.504 -21.105  0.00  0.00    -0.204 F 
ATOM      2  O   UNL     1      32.756  -4.055 -22.122  0.00  0.00    -0.270 OA
ATOM      3  N   UNL     1      31.760  -6.071 -22.770  0.00  0.00    -0.276 N 
ATOM      4  N   UNL     1      33.237  -9.869 -23.665  0.00  0.00    -0.318 N 
ATOM      5  N   UNL     1      31.150  -9.501 -22.330  0.00  0.00    -0.242 NA
ATOM      6  N   UNL     1      30.063 -11.254 -21.306  0.00  0.00    -0.343 N 
ATOM      7  C   UNL     1      32.294  -8.939 -23.065  0.00  0.00    +0.145 C 
ATOM      8  C   UNL     1      33.081  -8.034 -22.085  0.00  0.00    +0.063 C 
ATOM      9  C   UNL     1      31.714  -8.072 -24.209  0.00  0.00    +0.063 C 
ATOM     10  C   UNL     1      32.274  -6.820 -21.625  0.00  0.00    +0.097 C 
ATOM     11  C   UNL     1      30.942  -6.853 -23.703  0.00  0.00    +0.097 C 
ATOM     12  C   UNL     1      33.265 -11.175 -23.214  0.00  0.00    +0.051 C 
ATOM     13  C   UNL     1      31.140 -10.756 -22.002  0.00  0.00    +0.125 C 
ATOM     14  C   UNL     1      32.261 -11.674 -22.374  0.00  0.00    +0.071 C 
ATOM     15  C   UNL     1      32.071  -4.715 -22.902  0.00  0.00    +0.249 C 
ATOM     16  C   UNL     1      34.299 -12.033 -23.618  0.00  0.00    +0.015 C 
ATOM     17  C   UNL     1      32.316 -13.000 -21.923  0.00  0.00    +0.144 C 
ATOM     18  C   UNL     1      34.348 -13.353 -23.174  0.00  0.00    +0.004 C 
ATOM     19  C   UNL     1      33.360 -13.835 -22.323  0.00  0.00    +0.030 C 
ATOM     20  H   UNL     1      33.845  -9.573 -24.381  0.00  0.00    +0.148 HD
ATOM     21  H   UNL     1      29.320 -10.659 -21.055  0.00  0.00    +0.144 HD
ATOM     22  H   UNL     1      30.035 -12.207 -21.057  0.00  0.00    +0.144 HD
ENDROOT
BRANCH  15  23
ATOM     23  C   UNL     1      31.540  -3.994 -24.065  0.00  0.00    +0.054 C 
ATOM     24  C   UNL     1      32.156  -4.128 -25.309  0.00  0.00    +0.004 C 
ATOM     25  C   UNL     1      30.418  -3.176 -23.927  0.00  0.00    +0.004 C 
ATOM     26  C   UNL     1      31.651  -3.443 -26.415  0.00  0.00    -0.006 C 
ATOM     27  C   UNL     1      29.913  -2.492 -25.032  0.00  0.00    -0.006 C 
ATOM     28  C   UNL     1      30.529  -2.626 -26.276  0.00  0.00    -0.044 C 
BRANCH  28  29
ATOM     29  C   UNL     1      29.989  -1.894 -27.457  0.00  0.00    -0.059 C 
BRANCH  29  30
ATOM     30  N   UNL     1      30.268  -2.582 -28.718  0.00  0.00    +0.383 N 
ATOM     31  H   UNL     1      31.244  -2.437 -28.976  0.00  0.00    -0.089 HD
ATOM     32  H   UNL     1      29.663  -2.210 -29.450  0.00  0.00    -0.089 HD
ATOM     33  H   UNL     1      30.091  -3.581 -28.606  0.00  0.00    -0.089 HD
ENDBRANCH  29  30
ENDBRANCH  28  29
ENDBRANCH  15  23
TORSDOF 3
ENDMDL
