MODEL 1
REMARK VINA RESULT:     -11.1      0.000      0.000
REMARK  Name = 10113978
REMARK  4 active torsions:
REMARK  status: ('A' for Active; 'I' for Inactive)
REMARK    1  A    between atoms: N_1  and  C_16
REMARK    2  A    between atoms: N_2  and  C_24
REMARK    3  A    between atoms: C_22  and  S_29
REMARK    4  A    between atoms: S_29  and  N_32
REMARK                            x       y       z     vdW  Elec       q    Type
REMARK                         _______ _______ _______ _____ _____    ______ ____
ROOT
ATOM      1  N   UNL     1      33.723 -12.587 -22.912  0.00  0.00    -0.260 N 
ATOM      2  N   UNL     1      31.407  -8.743 -21.427  0.00  0.00    -0.247 N 
ATOM      3  N   UNL     1      32.567 -10.638 -22.179  0.00  0.00    -0.322 NA
ATOM      4  N   UNL     1      30.933 -10.806 -20.416  0.00  0.00    -0.170 NA
ATOM      5  C   UNL     1      32.772 -11.966 -22.065  0.00  0.00    +0.201 C 
ATOM      6  C   UNL     1      34.233 -11.815 -24.052  0.00  0.00    +0.120 C 
ATOM      7  C   UNL     1      31.647 -10.130 -21.337  0.00  0.00    +0.150 C 
ATOM      8  C   UNL     1      32.106 -12.771 -21.164  0.00  0.00    +0.070 C 
ATOM      9  C   UNL     1      31.188 -12.130 -20.356  0.00  0.00    +0.116 C 
ATOM     10  H   UNL     1      30.792  -8.399 -20.739  0.00  0.00    +0.165 HD
ENDROOT
BRANCH   1  16
ATOM     11  N   UNL     1      35.470 -17.941 -21.630  0.00  0.00    -0.253 N 
ATOM     12  N   UNL     1      35.396 -16.769 -20.971  0.00  0.00    -0.170 NA
ATOM     13  C   UNL     1      34.653 -16.600 -23.110  0.00  0.00    +0.033 A 
ATOM     14  C   UNL     1      34.888 -15.904 -21.868  0.00  0.00    +0.103 A 
ATOM     15  C   UNL     1      35.036 -17.898 -22.923  0.00  0.00    +0.057 A 
ATOM     16  C   UNL     1      34.061 -13.967 -22.926  0.00  0.00    +0.055 C 
ATOM     17  C   UNL     1      34.589 -14.536 -21.746  0.00  0.00    +0.036 C 
ATOM     18  C   UNL     1      34.136 -16.070 -24.286  0.00  0.00    +0.004 C 
ATOM     19  C   UNL     1      33.846 -14.700 -24.136  0.00  0.00    +0.015 C 
ATOM     20  C   UNL     1      35.038 -19.078 -23.808  0.00  0.00    +0.052 C 
ATOM     21  C   UNL     1      35.984 -19.099 -20.934  0.00  0.00    +0.153 C 
ENDBRANCH   1  16
BRANCH   2  24
ATOM     22  C   UNL     1      31.760  -5.510 -23.202  0.00  0.00    +0.119 C 
ATOM     23  C   UNL     1      32.813  -5.797 -24.070  0.00  0.00    -0.003 C 
ATOM     24  C   UNL     1      31.866  -7.782 -22.289  0.00  0.00    +0.059 C 
ATOM     25  C   UNL     1      31.294  -6.488 -22.323  0.00  0.00    +0.035 C 
ATOM     26  C   UNL     1      33.399  -7.064 -24.061  0.00  0.00    -0.002 C 
ATOM     27  C   UNL     1      32.932  -8.042 -23.183  0.00  0.00    +0.015 C 
ATOM     28  C   UNL     1      33.337  -4.773 -25.023  0.00  0.00    +0.032 C 
BRANCH  22  29
ATOM     29  S   UNL     1      31.003  -3.932 -23.187  0.00  0.00    +0.057 S 
ATOM     30  O   UNL     1      32.037  -2.934 -22.952  0.00  0.00    -0.153 OA
ATOM     31  O   UNL     1      30.142  -3.825 -24.354  0.00  0.00    -0.153 OA
BRANCH  29  32
ATOM     32  N   UNL     1      30.028  -4.057 -21.792  0.00  0.00    -0.203 NA
ATOM     33  H   UNL     1      30.483  -3.580 -21.013  0.00  0.00    +0.144 HD
ATOM     34  H   UNL     1      29.895  -5.042 -21.556  0.00  0.00    +0.144 HD
ENDBRANCH  29  32
ENDBRANCH  22  29
ENDBRANCH   2  24
TORSDOF 4
ENDMDL
MODEL 2
REMARK VINA RESULT:     -10.9      6.387     11.441
REMARK  Name = 10113978
REMARK  4 active torsions:
REMARK  status: ('A' for Active; 'I' for Inactive)
REMARK    1  A    between atoms: N_1  and  C_16
REMARK    2  A    between atoms: N_2  and  C_24
REMARK    3  A    between atoms: C_22  and  S_29
REMARK    4  A    between atoms: S_29  and  N_32
REMARK                            x       y       z     vdW  Elec       q    Type
REMARK                         _______ _______ _______ _____ _____    ______ ____
ROOT
ATOM      1  N   UNL     1      34.063 -14.474 -21.666  0.00  0.00    -0.260 N 
ATOM      2  N   UNL     1      35.393 -18.833 -22.918  0.00  0.00    -0.247 N 
ATOM      3  N   UNL     1      34.738 -16.675 -22.275  0.00  0.00    -0.322 NA
ATOM      4  N   UNL     1      34.551 -17.393 -24.568  0.00  0.00    -0.170 NA
ATOM      5  C   UNL     1      34.235 -15.480 -22.648  0.00  0.00    +0.201 C 
ATOM      6  C   UNL     1      34.178 -14.865 -20.256  0.00  0.00    +0.120 C 
ATOM      7  C   UNL     1      34.868 -17.572 -23.271  0.00  0.00    +0.150 C 
ATOM      8  C   UNL     1      33.871 -15.171 -23.942  0.00  0.00    +0.070 C 
ATOM      9  C   UNL     1      34.053 -16.176 -24.870  0.00  0.00    +0.116 C 
ATOM     10  H   UNL     1      35.550 -19.429 -23.687  0.00  0.00    +0.165 HD
ENDROOT
BRANCH   1  16
ATOM     11  N   UNL     1      33.009  -9.101 -23.508  0.00  0.00    -0.253 N 
ATOM     12  N   UNL     1      33.904 -10.063 -23.806  0.00  0.00    -0.170 NA
ATOM     13  C   UNL     1      32.455 -10.710 -22.181  0.00  0.00    +0.033 A 
ATOM     14  C   UNL     1      33.587 -11.087 -22.993  0.00  0.00    +0.103 A 
ATOM     15  C   UNL     1      32.113  -9.436 -22.535  0.00  0.00    +0.057 A 
ATOM     16  C   UNL     1      33.549 -13.167 -21.883  0.00  0.00    +0.055 C 
ATOM     17  C   UNL     1      34.173 -12.358 -22.858  0.00  0.00    +0.036 C 
ATOM     18  C   UNL     1      31.819 -11.481 -21.216  0.00  0.00    +0.004 C 
ATOM     19  C   UNL     1      32.426 -12.747 -21.101  0.00  0.00    +0.015 C 
ATOM     20  C   UNL     1      31.056  -8.519 -22.070  0.00  0.00    +0.052 C 
ATOM     21  C   UNL     1      33.076  -7.845 -24.219  0.00  0.00    +0.153 C 
ENDBRANCH   1  16
BRANCH   2  24
ATOM     22  C   UNL     1      35.222 -20.898 -19.846  0.00  0.00    +0.119 C 
ATOM     23  C   UNL     1      36.412 -20.535 -19.216  0.00  0.00    -0.003 C 
ATOM     24  C   UNL     1      35.726 -19.388 -21.710  0.00  0.00    +0.059 C 
ATOM     25  C   UNL     1      34.884 -20.334 -21.076  0.00  0.00    +0.035 C 
ATOM     26  C   UNL     1      37.264 -19.606 -19.815  0.00  0.00    -0.002 C 
ATOM     27  C   UNL     1      36.925 -19.041 -21.044  0.00  0.00    +0.015 C 
ATOM     28  C   UNL     1      36.805 -21.121 -17.899  0.00  0.00    +0.032 C 
BRANCH  22  29
ATOM     29  S   UNL     1      34.131 -22.060 -19.123  0.00  0.00    +0.057 S 
ATOM     30  O   UNL     1      34.500 -23.386 -19.598  0.00  0.00    -0.153 OA
ATOM     31  O   UNL     1      34.059 -21.794 -17.695  0.00  0.00    -0.153 OA
BRANCH  29  32
ATOM     32  N   UNL     1      32.653 -21.605 -19.845  0.00  0.00    -0.203 NA
ATOM     33  H   UNL     1      32.214 -22.423 -20.267  0.00  0.00    +0.144 HD
ATOM     34  H   UNL     1      32.827 -20.903 -20.565  0.00  0.00    +0.144 HD
ENDBRANCH  29  32
ENDBRANCH  22  29
ENDBRANCH   2  24
TORSDOF 4
ENDMDL
MODEL 3
REMARK VINA RESULT:     -10.1      0.929      1.078
REMARK  Name = 10113978
REMARK  4 active torsions:
REMARK  status: ('A' for Active; 'I' for Inactive)
REMARK    1  A    between atoms: N_1  and  C_16
REMARK    2  A    between atoms: N_2  and  C_24
REMARK    3  A    between atoms: C_22  and  S_29
REMARK    4  A    between atoms: S_29  and  N_32
REMARK                            x       y       z     vdW  Elec       q    Type
REMARK                         _______ _______ _______ _____ _____    ______ ____
ROOT
ATOM      1  N   UNL     1      33.678 -13.005 -23.071  0.00  0.00    -0.260 N 
ATOM      2  N   UNL     1      31.480  -9.128 -21.495  0.00  0.00    -0.247 N 
ATOM      3  N   UNL     1      32.576 -11.041 -22.295  0.00  0.00    -0.322 NA
ATOM      4  N   UNL     1      31.396 -11.080 -20.194  0.00  0.00    -0.170 NA
ATOM      5  C   UNL     1      32.898 -12.336 -22.095  0.00  0.00    +0.201 C 
ATOM      6  C   UNL     1      33.862 -12.348 -24.370  0.00  0.00    +0.120 C 
ATOM      7  C   UNL     1      31.835 -10.483 -21.320  0.00  0.00    +0.150 C 
ATOM      8  C   UNL     1      32.511 -13.060 -20.987  0.00  0.00    +0.070 C 
ATOM      9  C   UNL     1      31.753 -12.374 -20.059  0.00  0.00    +0.116 C 
ATOM     10  H   UNL     1      31.011  -8.736 -20.722  0.00  0.00    +0.165 HD
ENDROOT
BRANCH   1  16
ATOM     11  N   UNL     1      35.687 -18.193 -21.516  0.00  0.00    -0.253 N 
ATOM     12  N   UNL     1      35.500 -17.009 -20.902  0.00  0.00    -0.170 NA
ATOM     13  C   UNL     1      34.873 -16.953 -23.084  0.00  0.00    +0.033 A 
ATOM     14  C   UNL     1      34.991 -16.207 -21.854  0.00  0.00    +0.103 A 
ATOM     15  C   UNL     1      35.327 -18.217 -22.832  0.00  0.00    +0.057 A 
ATOM     16  C   UNL     1      34.104 -14.360 -23.020  0.00  0.00    +0.055 C 
ATOM     17  C   UNL     1      34.598 -14.858 -21.794  0.00  0.00    +0.036 C 
ATOM     18  C   UNL     1      34.392 -16.493 -24.303  0.00  0.00    +0.004 C 
ATOM     19  C   UNL     1      34.006 -15.141 -24.215  0.00  0.00    +0.015 C 
ATOM     20  C   UNL     1      35.455 -19.419 -23.676  0.00  0.00    +0.052 C 
ATOM     21  C   UNL     1      36.233 -19.294 -20.755  0.00  0.00    +0.153 C 
ENDBRANCH   1  16
BRANCH   2  24
ATOM     22  C   UNL     1      31.510  -5.995 -23.472  0.00  0.00    +0.119 C 
ATOM     23  C   UNL     1      32.040  -6.449 -24.680  0.00  0.00    -0.003 C 
ATOM     24  C   UNL     1      31.663  -8.254 -22.534  0.00  0.00    +0.059 C 
ATOM     25  C   UNL     1      31.326  -6.885 -22.414  0.00  0.00    +0.035 C 
ATOM     26  C   UNL     1      32.383  -7.793 -24.830  0.00  0.00    -0.002 C 
ATOM     27  C   UNL     1      32.197  -8.682 -23.773  0.00  0.00    +0.015 C 
ATOM     28  C   UNL     1      32.252  -5.522 -25.832  0.00  0.00    +0.032 C 
BRANCH  22  29
ATOM     29  S   UNL     1      31.070  -4.316 -23.249  0.00  0.00    +0.057 S 
ATOM     30  O   UNL     1      30.073  -3.971 -24.251  0.00  0.00    -0.153 OA
ATOM     31  O   UNL     1      30.789  -4.098 -21.838  0.00  0.00    -0.153 OA
BRANCH  29  32
ATOM     32  N   UNL     1      32.541  -3.544 -23.643  0.00  0.00    -0.203 NA
ATOM     33  H   UNL     1      32.917  -3.945 -24.503  0.00  0.00    +0.144 HD
ATOM     34  H   UNL     1      33.210  -3.678 -22.884  0.00  0.00    +0.144 HD
ENDBRANCH  29  32
ENDBRANCH  22  29
ENDBRANCH   2  24
TORSDOF 4
ENDMDL
MODEL 4
REMARK VINA RESULT:     -10.1      1.823      2.318
REMARK  Name = 10113978
REMARK  4 active torsions:
REMARK  status: ('A' for Active; 'I' for Inactive)
REMARK    1  A    between atoms: N_1  and  C_16
REMARK    2  A    between atoms: N_2  and  C_24
REMARK    3  A    between atoms: C_22  and  S_29
REMARK    4  A    between atoms: S_29  and  N_32
REMARK                            x       y       z     vdW  Elec       q    Type
REMARK                         _______ _______ _______ _____ _____    ______ ____
ROOT
ATOM      1  N   UNL     1      33.316 -11.707 -22.903  0.00  0.00    -0.260 N 
ATOM      2  N   UNL     1      31.535  -8.037 -20.516  0.00  0.00    -0.247 N 
ATOM      3  N   UNL     1      32.425  -9.844 -21.717  0.00  0.00    -0.322 NA
ATOM      4  N   UNL     1      31.391 -10.177 -19.565  0.00  0.00    -0.170 NA
ATOM      5  C   UNL     1      32.659 -11.172 -21.768  0.00  0.00    +0.201 C 
ATOM      6  C   UNL     1      33.462 -10.844 -24.082  0.00  0.00    +0.120 C 
ATOM      7  C   UNL     1      31.796  -9.421 -20.604  0.00  0.00    +0.150 C 
ATOM      8  C   UNL     1      32.295 -12.054 -20.772  0.00  0.00    +0.070 C 
ATOM      9  C   UNL     1      31.657 -11.495 -19.683  0.00  0.00    +0.116 C 
ATOM     10  H   UNL     1      31.152  -7.758 -19.652  0.00  0.00    +0.165 HD
ENDROOT
BRANCH   1  16
ATOM     11  N   UNL     1      35.275 -17.129 -22.531  0.00  0.00    -0.253 N 
ATOM     12  N   UNL     1      35.343 -16.025 -21.761  0.00  0.00    -0.170 NA
ATOM     13  C   UNL     1      34.173 -15.667 -23.675  0.00  0.00    +0.033 A 
ATOM     14  C   UNL     1      34.663 -15.089 -22.446  0.00  0.00    +0.103 A 
ATOM     15  C   UNL     1      34.582 -16.970 -23.696  0.00  0.00    +0.057 A 
ATOM     16  C   UNL     1      33.640 -13.074 -23.119  0.00  0.00    +0.055 C 
ATOM     17  C   UNL     1      34.399 -13.743 -22.135  0.00  0.00    +0.036 C 
ATOM     18  C   UNL     1      33.425 -15.037 -24.661  0.00  0.00    +0.004 C 
ATOM     19  C   UNL     1      33.176 -13.692 -24.323  0.00  0.00    +0.015 C 
ATOM     20  C   UNL     1      34.396 -18.061 -24.671  0.00  0.00    +0.052 C 
ATOM     21  C   UNL     1      35.918 -18.338 -22.071  0.00  0.00    +0.153 C 
ENDBRANCH   1  16
BRANCH   2  24
ATOM     22  C   UNL     1      32.777  -6.075 -23.403  0.00  0.00    +0.119 C 
ATOM     23  C   UNL     1      32.080  -4.879 -23.231  0.00  0.00    -0.003 C 
ATOM     24  C   UNL     1      31.713  -7.007 -21.401  0.00  0.00    +0.059 C 
ATOM     25  C   UNL     1      32.595  -7.124 -22.502  0.00  0.00    +0.035 C 
ATOM     26  C   UNL     1      31.201  -4.732 -22.156  0.00  0.00    -0.002 C 
ATOM     27  C   UNL     1      31.021  -5.781 -21.255  0.00  0.00    +0.015 C 
ATOM     28  C   UNL     1      32.250  -3.737 -24.178  0.00  0.00    +0.032 C 
BRANCH  22  29
ATOM     29  S   UNL     1      33.886  -6.293 -24.739  0.00  0.00    +0.057 S 
ATOM     30  O   UNL     1      33.120  -6.719 -25.900  0.00  0.00    -0.153 OA
ATOM     31  O   UNL     1      34.740  -5.118 -24.824  0.00  0.00    -0.153 OA
BRANCH  29  32
ATOM     32  N   UNL     1      34.814  -7.610 -24.174  0.00  0.00    -0.203 NA
ATOM     33  H   UNL     1      34.337  -8.050 -23.387  0.00  0.00    +0.144 HD
ATOM     34  H   UNL     1      35.731  -7.276 -23.873  0.00  0.00    +0.144 HD
ENDBRANCH  29  32
ENDBRANCH  22  29
ENDBRANCH   2  24
TORSDOF 4
ENDMDL
MODEL 5
REMARK VINA RESULT:     -10.0      1.944      2.268
REMARK  Name = 10113978
REMARK  4 active torsions:
REMARK  status: ('A' for Active; 'I' for Inactive)
REMARK    1  A    between atoms: N_1  and  C_16
REMARK    2  A    between atoms: N_2  and  C_24
REMARK    3  A    between atoms: C_22  and  S_29
REMARK    4  A    between atoms: S_29  and  N_32
REMARK                            x       y       z     vdW  Elec       q    Type
REMARK                         _______ _______ _______ _____ _____    ______ ____
ROOT
ATOM      1  N   UNL     1      33.658 -13.099 -23.079  0.00  0.00    -0.260 N 
ATOM      2  N   UNL     1      31.437  -9.195 -21.607  0.00  0.00    -0.247 N 
ATOM      3  N   UNL     1      32.546 -11.122 -22.355  0.00  0.00    -0.322 NA
ATOM      4  N   UNL     1      31.269 -11.145 -20.312  0.00  0.00    -0.170 NA
ATOM      5  C   UNL     1      32.843 -12.420 -22.141  0.00  0.00    +0.201 C 
ATOM      6  C   UNL     1      33.911 -12.446 -24.368  0.00  0.00    +0.120 C 
ATOM      7  C   UNL     1      31.767 -10.554 -21.416  0.00  0.00    +0.150 C 
ATOM      8  C   UNL     1      32.396 -13.139 -21.051  0.00  0.00    +0.070 C 
ATOM      9  C   UNL     1      31.604 -12.443 -20.160  0.00  0.00    +0.116 C 
ATOM     10  H   UNL     1      30.937  -8.797 -20.857  0.00  0.00    +0.165 HD
ENDROOT
BRANCH   1  16
ATOM     11  N   UNL     1      35.628 -18.283 -21.459  0.00  0.00    -0.253 N 
ATOM     12  N   UNL     1      35.474 -17.083 -20.866  0.00  0.00    -0.170 NA
ATOM     13  C   UNL     1      34.794 -17.064 -23.033  0.00  0.00    +0.033 A 
ATOM     14  C   UNL     1      34.953 -16.294 -21.823  0.00  0.00    +0.103 A 
ATOM     15  C   UNL     1      35.235 -18.329 -22.765  0.00  0.00    +0.057 A 
ATOM     16  C   UNL     1      34.066 -14.459 -23.008  0.00  0.00    +0.055 C 
ATOM     17  C   UNL     1      34.582 -14.938 -21.784  0.00  0.00    +0.036 C 
ATOM     18  C   UNL     1      34.291 -16.624 -24.251  0.00  0.00    +0.004 C 
ATOM     19  C   UNL     1      33.927 -15.264 -24.183  0.00  0.00    +0.015 C 
ATOM     20  C   UNL     1      35.325 -19.552 -23.585  0.00  0.00    +0.052 C 
ATOM     21  C   UNL     1      36.176 -19.375 -20.687  0.00  0.00    +0.153 C 
ENDBRANCH   1  16
BRANCH   2  24
ATOM     22  C   UNL     1      33.240  -7.035 -24.017  0.00  0.00    +0.119 C 
ATOM     23  C   UNL     1      32.177  -6.525 -24.762  0.00  0.00    -0.003 C 
ATOM     24  C   UNL     1      31.678  -8.324 -22.636  0.00  0.00    +0.059 C 
ATOM     25  C   UNL     1      32.994  -7.922 -22.970  0.00  0.00    +0.035 C 
ATOM     26  C   UNL     1      30.868  -6.902 -24.460  0.00  0.00    -0.002 C 
ATOM     27  C   UNL     1      30.623  -7.788 -23.412  0.00  0.00    +0.015 C 
ATOM     28  C   UNL     1      32.405  -5.574 -25.891  0.00  0.00    +0.032 C 
BRANCH  22  29
ATOM     29  S   UNL     1      34.893  -6.583 -24.370  0.00  0.00    +0.057 S 
ATOM     30  O   UNL     1      35.395  -7.471 -25.408  0.00  0.00    -0.153 OA
ATOM     31  O   UNL     1      34.945  -5.142 -24.559  0.00  0.00    -0.153 OA
BRANCH  29  32
ATOM     32  N   UNL     1      35.655  -6.973 -22.893  0.00  0.00    -0.203 NA
ATOM     33  H   UNL     1      34.947  -7.208 -22.196  0.00  0.00    +0.144 HD
ATOM     34  H   UNL     1      36.199  -6.173 -22.568  0.00  0.00    +0.144 HD
ENDBRANCH  29  32
ENDBRANCH  22  29
ENDBRANCH   2  24
TORSDOF 4
ENDMDL
MODEL 6
REMARK VINA RESULT:      -9.9      9.710     14.863
REMARK  Name = 10113978
REMARK  4 active torsions:
REMARK  status: ('A' for Active; 'I' for Inactive)
REMARK    1  A    between atoms: N_1  and  C_16
REMARK    2  A    between atoms: N_2  and  C_24
REMARK    3  A    between atoms: C_22  and  S_29
REMARK    4  A    between atoms: S_29  and  N_32
REMARK                            x       y       z     vdW  Elec       q    Type
REMARK                         _______ _______ _______ _____ _____    ______ ____
ROOT
ATOM      1  N   UNL     1      35.597 -20.280 -19.822  0.00  0.00    -0.260 N 
ATOM      2  N   UNL     1      34.491 -23.430 -16.475  0.00  0.00    -0.247 N 
ATOM      3  N   UNL     1      35.062 -21.869 -18.130  0.00  0.00    -0.322 NA
ATOM      4  N   UNL     1      32.762 -22.482 -17.748  0.00  0.00    -0.170 NA
ATOM      5  C   UNL     1      34.639 -21.038 -19.106  0.00  0.00    +0.201 C 
ATOM      6  C   UNL     1      36.964 -20.225 -19.290  0.00  0.00    +0.120 C 
ATOM      7  C   UNL     1      34.086 -22.550 -17.501  0.00  0.00    +0.150 C 
ATOM      8  C   UNL     1      33.314 -20.877 -19.455  0.00  0.00    +0.070 C 
ATOM      9  C   UNL     1      32.410 -21.632 -18.735  0.00  0.00    +0.116 C 
ATOM     10  H   UNL     1      33.758 -23.969 -16.100  0.00  0.00    +0.165 HD
ENDROOT
BRANCH   1  16
ATOM     11  N   UNL     1      34.764 -15.593 -23.094  0.00  0.00    -0.253 N 
ATOM     12  N   UNL     1      35.095 -15.824 -21.809  0.00  0.00    -0.170 NA
ATOM     13  C   UNL     1      34.789 -17.748 -22.976  0.00  0.00    +0.033 A 
ATOM     14  C   UNL     1      35.120 -17.164 -21.698  0.00  0.00    +0.103 A 
ATOM     15  C   UNL     1      34.567 -16.717 -23.843  0.00  0.00    +0.057 A 
ATOM     16  C   UNL     1      35.327 -19.363 -20.873  0.00  0.00    +0.055 C 
ATOM     17  C   UNL     1      35.404 -17.982 -20.590  0.00  0.00    +0.036 C 
ATOM     18  C   UNL     1      34.705 -19.100 -23.286  0.00  0.00    +0.004 C 
ATOM     19  C   UNL     1      34.994 -19.894 -22.159  0.00  0.00    +0.015 C 
ATOM     20  C   UNL     1      34.199 -16.672 -25.271  0.00  0.00    +0.052 C 
ATOM     21  C   UNL     1      34.652 -14.226 -23.549  0.00  0.00    +0.153 C 
ENDBRANCH   1  16
BRANCH   2  24
ATOM     22  C   UNL     1      37.217 -25.144 -14.642  0.00  0.00    +0.119 C 
ATOM     23  C   UNL     1      38.229 -24.187 -14.716  0.00  0.00    -0.003 C 
ATOM     24  C   UNL     1      35.711 -23.677 -15.901  0.00  0.00    +0.059 C 
ATOM     25  C   UNL     1      35.976 -24.893 -15.228  0.00  0.00    +0.035 C 
ATOM     26  C   UNL     1      37.999 -22.978 -15.373  0.00  0.00    -0.002 C 
ATOM     27  C   UNL     1      36.758 -22.727 -15.957  0.00  0.00    +0.015 C 
ATOM     28  C   UNL     1      39.569 -24.425 -14.101  0.00  0.00    +0.032 C 
BRANCH  22  29
ATOM     29  S   UNL     1      37.471 -26.671 -13.826  0.00  0.00    +0.057 S 
ATOM     30  O   UNL     1      38.733 -27.229 -14.289  0.00  0.00    -0.153 OA
ATOM     31  O   UNL     1      37.242 -26.474 -12.403  0.00  0.00    -0.153 OA
BRANCH  29  32
ATOM     32  N   UNL     1      36.188 -27.596 -14.468  0.00  0.00    -0.203 NA
ATOM     33  H   UNL     1      35.334 -27.037 -14.471  0.00  0.00    +0.144 HD
ATOM     34  H   UNL     1      36.047 -28.428 -13.894  0.00  0.00    +0.144 HD
ENDBRANCH  29  32
ENDBRANCH  22  29
ENDBRANCH   2  24
TORSDOF 4
ENDMDL
MODEL 7
REMARK VINA RESULT:      -9.4      4.147      9.662
REMARK  Name = 10113978
REMARK  4 active torsions:
REMARK  status: ('A' for Active; 'I' for Inactive)
REMARK    1  A    between atoms: N_1  and  C_16
REMARK    2  A    between atoms: N_2  and  C_24
REMARK    3  A    between atoms: C_22  and  S_29
REMARK    4  A    between atoms: S_29  and  N_32
REMARK                            x       y       z     vdW  Elec       q    Type
REMARK                         _______ _______ _______ _____ _____    ______ ____
ROOT
ATOM      1  N   UNL     1      32.362  -9.346 -22.678  0.00  0.00    -0.260 N 
ATOM      2  N   UNL     1      32.622 -13.222 -19.984  0.00  0.00    -0.247 N 
ATOM      3  N   UNL     1      32.504 -11.310 -21.338  0.00  0.00    -0.322 NA
ATOM      4  N   UNL     1      31.646 -11.286 -19.085  0.00  0.00    -0.170 NA
ATOM      5  C   UNL     1      32.123 -10.021 -21.455  0.00  0.00    +0.201 C 
ATOM      6  C   UNL     1      33.252  -9.988 -23.653  0.00  0.00    +0.120 C 
ATOM      7  C   UNL     1      32.239 -11.873 -20.144  0.00  0.00    +0.150 C 
ATOM      8  C   UNL     1      31.508  -9.307 -20.448  0.00  0.00    +0.070 C 
ATOM      9  C   UNL     1      31.293  -9.998 -19.272  0.00  0.00    +0.116 C 
ATOM     10  H   UNL     1      32.335 -13.619 -19.130  0.00  0.00    +0.165 HD
ENDROOT
BRANCH   1  16
ATOM     11  N   UNL     1      31.730  -3.604 -22.689  0.00  0.00    -0.253 N 
ATOM     12  N   UNL     1      32.333  -4.505 -21.889  0.00  0.00    -0.170 NA
ATOM     13  C   UNL     1      31.314  -5.482 -23.668  0.00  0.00    +0.033 A 
ATOM     14  C   UNL     1      32.093  -5.694 -22.472  0.00  0.00    +0.103 A 
ATOM     15  C   UNL     1      31.100  -4.137 -23.776  0.00  0.00    +0.057 A 
ATOM     16  C   UNL     1      32.029  -7.996 -22.972  0.00  0.00    +0.055 C 
ATOM     17  C   UNL     1      32.478  -6.991 -22.089  0.00  0.00    +0.036 C 
ATOM     18  C   UNL     1      30.858  -6.448 -24.557  0.00  0.00    +0.004 C 
ATOM     19  C   UNL     1      31.256  -7.736 -24.148  0.00  0.00    +0.015 C 
ATOM     20  C   UNL     1      30.383  -3.315 -24.768  0.00  0.00    +0.052 C 
ATOM     21  C   UNL     1      31.801  -2.205 -22.337  0.00  0.00    +0.153 C 
ENDBRANCH   1  16
BRANCH   2  24
ATOM     22  C   UNL     1      33.844 -14.966 -23.016  0.00  0.00    +0.119 C 
ATOM     23  C   UNL     1      34.752 -15.865 -22.457  0.00  0.00    -0.003 C 
ATOM     24  C   UNL     1      33.317 -14.084 -20.791  0.00  0.00    +0.059 C 
ATOM     25  C   UNL     1      33.138 -14.087 -22.195  0.00  0.00    +0.035 C 
ATOM     26  C   UNL     1      34.951 -15.888 -21.076  0.00  0.00    -0.002 C 
ATOM     27  C   UNL     1      34.244 -15.010 -20.255  0.00  0.00    +0.015 C 
ATOM     28  C   UNL     1      35.526 -16.819 -23.307  0.00  0.00    +0.032 C 
BRANCH  22  29
ATOM     29  S   UNL     1      33.570 -14.911 -24.743  0.00  0.00    +0.057 S 
ATOM     30  O   UNL     1      34.770 -14.385 -25.378  0.00  0.00    -0.153 OA
ATOM     31  O   UNL     1      33.030 -16.195 -25.163  0.00  0.00    -0.153 OA
BRANCH  29  32
ATOM     32  N   UNL     1      32.335 -13.736 -24.835  0.00  0.00    -0.203 NA
ATOM     33  H   UNL     1      31.639 -14.027 -25.522  0.00  0.00    +0.144 HD
ATOM     34  H   UNL     1      32.736 -12.841 -25.117  0.00  0.00    +0.144 HD
ENDBRANCH  29  32
ENDBRANCH  22  29
ENDBRANCH   2  24
TORSDOF 4
ENDMDL
MODEL 8
REMARK VINA RESULT:      -9.3     10.280     15.309
REMARK  Name = 10113978
REMARK  4 active torsions:
REMARK  status: ('A' for Active; 'I' for Inactive)
REMARK    1  A    between atoms: N_1  and  C_16
REMARK    2  A    between atoms: N_2  and  C_24
REMARK    3  A    between atoms: C_22  and  S_29
REMARK    4  A    between atoms: S_29  and  N_32
REMARK                            x       y       z     vdW  Elec       q    Type
REMARK                         _______ _______ _______ _____ _____    ______ ____
ROOT
ATOM      1  N   UNL     1      35.766 -21.455 -18.647  0.00  0.00    -0.260 N 
ATOM      2  N   UNL     1      34.186 -24.352 -15.263  0.00  0.00    -0.247 N 
ATOM      3  N   UNL     1      34.991 -22.918 -16.936  0.00  0.00    -0.322 NA
ATOM      4  N   UNL     1      32.624 -23.249 -16.623  0.00  0.00    -0.170 NA
ATOM      5  C   UNL     1      34.701 -22.074 -17.948  0.00  0.00    +0.201 C 
ATOM      6  C   UNL     1      37.111 -21.543 -18.067  0.00  0.00    +0.120 C 
ATOM      7  C   UNL     1      33.921 -23.462 -16.326  0.00  0.00    +0.150 C 
ATOM      8  C   UNL     1      33.417 -21.771 -18.350  0.00  0.00    +0.070 C 
ATOM      9  C   UNL     1      32.407 -22.394 -17.644  0.00  0.00    +0.116 C 
ATOM     10  H   UNL     1      33.382 -24.791 -14.901  0.00  0.00    +0.165 HD
ENDROOT
BRANCH   1  16
ATOM     11  N   UNL     1      34.256 -18.657 -23.471  0.00  0.00    -0.253 N 
ATOM     12  N   UNL     1      33.866 -19.788 -22.851  0.00  0.00    -0.170 NA
ATOM     13  C   UNL     1      35.524 -18.719 -21.725  0.00  0.00    +0.033 A 
ATOM     14  C   UNL     1      34.639 -19.859 -21.753  0.00  0.00    +0.103 A 
ATOM     15  C   UNL     1      35.252 -17.974 -22.837  0.00  0.00    +0.057 A 
ATOM     16  C   UNL     1      35.641 -20.544 -19.732  0.00  0.00    +0.055 C 
ATOM     17  C   UNL     1      34.680 -20.822 -20.729  0.00  0.00    +0.036 C 
ATOM     18  C   UNL     1      36.477 -18.418 -20.761  0.00  0.00    +0.004 C 
ATOM     19  C   UNL     1      36.497 -19.398 -19.749  0.00  0.00    +0.015 C 
ATOM     20  C   UNL     1      35.815 -16.713 -23.357  0.00  0.00    +0.052 C 
ATOM     21  C   UNL     1      33.608 -18.283 -24.707  0.00  0.00    +0.153 C 
ENDBRANCH   1  16
BRANCH   2  24
ATOM     22  C   UNL     1      36.991 -24.427 -12.844  0.00  0.00    +0.119 C 
ATOM     23  C   UNL     1      37.747 -25.485 -13.348  0.00  0.00    -0.003 C 
ATOM     24  C   UNL     1      35.348 -24.722 -14.639  0.00  0.00    +0.059 C 
ATOM     25  C   UNL     1      35.808 -24.052 -13.480  0.00  0.00    +0.035 C 
ATOM     26  C   UNL     1      37.321 -26.167 -14.488  0.00  0.00    -0.002 C 
ATOM     27  C   UNL     1      36.138 -25.790 -15.124  0.00  0.00    +0.015 C 
ATOM     28  C   UNL     1      39.019 -25.914 -12.691  0.00  0.00    +0.032 C 
BRANCH  22  29
ATOM     29  S   UNL     1      37.496 -23.551 -11.416  0.00  0.00    +0.057 S 
ATOM     30  O   UNL     1      38.949 -23.601 -11.342  0.00  0.00    -0.153 OA
ATOM     31  O   UNL     1      36.813 -22.267 -11.399  0.00  0.00    -0.153 OA
BRANCH  29  32
ATOM     32  N   UNL     1      36.844 -24.539 -10.186  0.00  0.00    -0.203 NA
ATOM     33  H   UNL     1      36.146 -25.165 -10.587  0.00  0.00    +0.144 HD
ATOM     34  H   UNL     1      36.406 -23.953  -9.475  0.00  0.00    +0.144 HD
ENDBRANCH  29  32
ENDBRANCH  22  29
ENDBRANCH   2  24
TORSDOF 4
ENDMDL
MODEL 9
REMARK VINA RESULT:      -9.1      3.022      5.294
REMARK  Name = 10113978
REMARK  4 active torsions:
REMARK  status: ('A' for Active; 'I' for Inactive)
REMARK    1  A    between atoms: N_1  and  C_16
REMARK    2  A    between atoms: N_2  and  C_24
REMARK    3  A    between atoms: C_22  and  S_29
REMARK    4  A    between atoms: S_29  and  N_32
REMARK                            x       y       z     vdW  Elec       q    Type
REMARK                         _______ _______ _______ _____ _____    ______ ____
ROOT
ATOM      1  N   UNL     1      32.269  -8.499 -23.375  0.00  0.00    -0.260 N 
ATOM      2  N   UNL     1      32.031  -3.779 -23.310  0.00  0.00    -0.247 N 
ATOM      3  N   UNL     1      32.146  -6.121 -23.364  0.00  0.00    -0.322 NA
ATOM      4  N   UNL     1      32.325  -4.921 -21.282  0.00  0.00    -0.170 NA
ATOM      5  C   UNL     1      32.286  -7.270 -22.671  0.00  0.00    +0.201 C 
ATOM      6  C   UNL     1      31.825  -8.483 -24.774  0.00  0.00    +0.120 C 
ATOM      7  C   UNL     1      32.174  -5.001 -22.618  0.00  0.00    +0.150 C 
ATOM      8  C   UNL     1      32.448  -7.326 -21.303  0.00  0.00    +0.070 C 
ATOM      9  C   UNL     1      32.460  -6.108 -20.653  0.00  0.00    +0.116 C 
ATOM     10  H   UNL     1      32.141  -2.983 -22.740  0.00  0.00    +0.165 HD
ENDROOT
BRANCH   1  16
ATOM     11  N   UNL     1      33.820 -13.902 -22.041  0.00  0.00    -0.253 N 
ATOM     12  N   UNL     1      34.205 -12.986 -22.951  0.00  0.00    -0.170 NA
ATOM     13  C   UNL     1      32.536 -12.220 -21.614  0.00  0.00    +0.033 A 
ATOM     14  C   UNL     1      33.422 -11.918 -22.713  0.00  0.00    +0.103 A 
ATOM     15  C   UNL     1      32.817 -13.494 -21.210  0.00  0.00    +0.057 A 
ATOM     16  C   UNL     1      32.403  -9.795 -22.806  0.00  0.00    +0.055 C 
ATOM     17  C   UNL     1      33.373 -10.665 -23.349  0.00  0.00    +0.036 C 
ATOM     18  C   UNL     1      31.574 -11.387 -21.058  0.00  0.00    +0.004 C 
ATOM     19  C   UNL     1      31.546 -10.141 -21.713  0.00  0.00    +0.015 C 
ATOM     20  C   UNL     1      32.258 -14.352 -20.149  0.00  0.00    +0.052 C 
ATOM     21  C   UNL     1      34.479 -15.188 -22.027  0.00  0.00    +0.153 C 
ENDBRANCH   1  16
BRANCH   2  24
ATOM     22  C   UNL     1      32.338  -3.656 -27.000  0.00  0.00    +0.119 C 
ATOM     23  C   UNL     1      31.223  -2.888 -27.334  0.00  0.00    -0.003 C 
ATOM     24  C   UNL     1      31.767  -3.488 -24.622  0.00  0.00    +0.059 C 
ATOM     25  C   UNL     1      32.605  -3.953 -25.664  0.00  0.00    +0.035 C 
ATOM     26  C   UNL     1      30.375  -2.415 -26.331  0.00  0.00    -0.002 C 
ATOM     27  C   UNL     1      30.644  -2.711 -24.995  0.00  0.00    +0.015 C 
ATOM     28  C   UNL     1      30.906  -2.553 -28.755  0.00  0.00    +0.032 C 
BRANCH  22  29
ATOM     29  S   UNL     1      33.421  -4.265 -28.233  0.00  0.00    +0.057 S 
ATOM     30  O   UNL     1      32.664  -5.151 -29.104  0.00  0.00    -0.153 OA
ATOM     31  O   UNL     1      34.152  -3.141 -28.798  0.00  0.00    -0.153 OA
BRANCH  29  32
ATOM     32  N   UNL     1      34.491  -5.199 -27.287  0.00  0.00    -0.203 NA
ATOM     33  H   UNL     1      35.434  -4.818 -27.363  0.00  0.00    +0.144 HD
ATOM     34  H   UNL     1      34.487  -6.164 -27.620  0.00  0.00    +0.144 HD
ENDBRANCH  29  32
ENDBRANCH  22  29
ENDBRANCH   2  24
TORSDOF 4
ENDMDL
