MODEL 1
REMARK VINA RESULT:     -11.4      0.000      0.000
REMARK  Name = 42642648
REMARK  5 active torsions:
REMARK  status: ('A' for Active; 'I' for Inactive)
REMARK    1  A    between atoms: N_1  and  C_22
REMARK    2  A    between atoms: C_4  and  N_15
REMARK    3  A    between atoms: C_25  and  O_28
REMARK    4  A    between atoms: O_28  and  C_29
REMARK    5  A    between atoms: C_29  and  C_32
REMARK                            x       y       z     vdW  Elec       q    Type
REMARK                         _______ _______ _______ _____ _____    ______ ____
ROOT
ATOM      1  N   UNL     1      33.581 -22.786 -17.785  0.00  0.00    -0.301 N 
ATOM      2  N   UNL     1      30.350 -23.014 -15.209  0.00  0.00    -0.248 NA
ATOM      3  N   UNL     1      31.336 -22.289 -17.284  0.00  0.00    -0.233 NA
ATOM      4  C   UNL     1      33.940 -24.797 -14.068  0.00  0.00    +0.048 C 
ATOM      5  C   UNL     1      32.640 -23.541 -15.680  0.00  0.00    +0.117 C 
ATOM      6  C   UNL     1      33.850 -24.145 -15.293  0.00  0.00    +0.001 C 
ATOM      7  C   UNL     1      31.511 -23.586 -14.847  0.00  0.00    +0.067 C 
ATOM      8  C   UNL     1      32.484 -22.873 -16.891  0.00  0.00    +0.115 C 
ATOM      9  C   UNL     1      32.829 -24.848 -13.234  0.00  0.00    +0.016 C 
ATOM     10  C   UNL     1      31.631 -24.246 -13.626  0.00  0.00    +0.016 C 
ATOM     11  C   UNL     1      30.325 -22.396 -16.406  0.00  0.00    +0.251 C 
ATOM     12  H   UNL     1      34.200 -23.550 -17.729  0.00  0.00    +0.153 HD
ENDROOT
BRANCH   4  15
ATOM     13  O   UNL     1      37.149 -25.748 -12.624  0.00  0.00    -0.448 OA
ATOM     14  N   UNL     1      36.031 -23.824 -12.107  0.00  0.00    -0.222 NA
ATOM     15  N   UNL     1      35.150 -25.403 -13.673  0.00  0.00    -0.269 N 
ATOM     16  C   UNL     1      37.230 -23.891 -11.257  0.00  0.00    +0.151 C 
ATOM     17  C   UNL     1      38.083 -24.971 -11.888  0.00  0.00    +0.233 C 
ATOM     18  C   UNL     1      36.067 -24.931 -12.784  0.00  0.00    +0.284 C 
ATOM     19  C   UNL     1      37.917 -22.540 -11.205  0.00  0.00    +0.030 C 
ATOM     20  H   UNL     1      35.357 -26.271 -14.091  0.00  0.00    +0.157 HD
ENDBRANCH   4  15
BRANCH   1  22
ATOM     21 CL   UNL     1      37.343 -20.160 -20.047  0.00  0.00    -0.079 Cl
ATOM     22  C   UNL     1      33.955 -21.822 -18.734  0.00  0.00    +0.050 C 
ATOM     23  C   UNL     1      35.300 -21.499 -18.908  0.00  0.00    +0.029 C 
ATOM     24  C   UNL     1      32.980 -21.187 -19.503  0.00  0.00    +0.018 C 
ATOM     25  C   UNL     1      34.696 -19.905 -20.622  0.00  0.00    +0.150 C 
ATOM     26  C   UNL     1      35.671 -20.541 -19.852  0.00  0.00    +0.093 C 
ATOM     27  C   UNL     1      33.350 -20.228 -20.446  0.00  0.00    +0.039 C 
BRANCH  25  28
ATOM     28  O   UNL     1      35.029 -18.965 -21.550  0.00  0.00    -0.468 OA
BRANCH  28  29
ATOM     29  C   UNL     1      35.389 -17.674 -21.063  0.00  0.00    +0.257 C 
BRANCH  29  32
ATOM     30  S   UNL     1      34.624 -15.054 -21.569  0.00  0.00    -0.067 S 
ATOM     31  N   UNL     1      34.968 -16.864 -23.382  0.00  0.00    -0.237 NA
ATOM     32  C   UNL     1      35.017 -16.642 -22.088  0.00  0.00    +0.132 C 
ATOM     33  C   UNL     1      34.363 -14.611 -23.204  0.00  0.00    +0.057 C 
ATOM     34  C   UNL     1      34.592 -15.699 -24.021  0.00  0.00    +0.106 C 
ENDBRANCH  29  32
ENDBRANCH  28  29
ENDBRANCH  25  28
ENDBRANCH   1  22
TORSDOF 5
ENDMDL
MODEL 2
REMARK VINA RESULT:     -11.4      5.573      9.943
REMARK  Name = 42642648
REMARK  5 active torsions:
REMARK  status: ('A' for Active; 'I' for Inactive)
REMARK    1  A    between atoms: N_1  and  C_22
REMARK    2  A    between atoms: C_4  and  N_15
REMARK    3  A    between atoms: C_25  and  O_28
REMARK    4  A    between atoms: O_28  and  C_29
REMARK    5  A    between atoms: C_29  and  C_32
REMARK                            x       y       z     vdW  Elec       q    Type
REMARK                         _______ _______ _______ _____ _____    ______ ____
ROOT
ATOM      1  N   UNL     1      34.222 -14.168 -22.064  0.00  0.00    -0.301 N 
ATOM      2  N   UNL     1      33.837 -16.758 -25.270  0.00  0.00    -0.248 NA
ATOM      3  N   UNL     1      33.492 -14.598 -24.260  0.00  0.00    -0.233 NA
ATOM      4  C   UNL     1      35.701 -18.135 -21.805  0.00  0.00    +0.048 C 
ATOM      5  C   UNL     1      34.596 -16.362 -23.030  0.00  0.00    +0.117 C 
ATOM      6  C   UNL     1      35.226 -16.829 -21.863  0.00  0.00    +0.001 C 
ATOM      7  C   UNL     1      34.437 -17.195 -24.149  0.00  0.00    +0.067 C 
ATOM      8  C   UNL     1      34.098 -15.068 -23.153  0.00  0.00    +0.115 C 
ATOM      9  C   UNL     1      35.549 -18.970 -22.906  0.00  0.00    +0.016 C 
ATOM     10  C   UNL     1      34.922 -18.499 -24.062  0.00  0.00    +0.016 C 
ATOM     11  C   UNL     1      33.397 -15.484 -25.265  0.00  0.00    +0.251 C 
ATOM     12  H   UNL     1      35.014 -14.332 -21.503  0.00  0.00    +0.153 HD
ENDROOT
BRANCH   4  15
ATOM     13  O   UNL     1      36.903 -19.969 -18.894  0.00  0.00    -0.448 OA
ATOM     14  N   UNL     1      35.355 -20.777 -20.368  0.00  0.00    -0.222 NA
ATOM     15  N   UNL     1      36.333 -18.610 -20.638  0.00  0.00    -0.269 N 
ATOM     16  C   UNL     1      35.644 -21.838 -19.391  0.00  0.00    +0.151 C 
ATOM     17  C   UNL     1      36.379 -21.134 -18.271  0.00  0.00    +0.233 C 
ATOM     18  C   UNL     1      36.149 -19.810 -20.021  0.00  0.00    +0.284 C 
ATOM     19  C   UNL     1      34.358 -22.502 -18.938  0.00  0.00    +0.030 C 
ATOM     20  H   UNL     1      36.985 -18.001 -20.220  0.00  0.00    +0.157 HD
ENDBRANCH   4  15
BRANCH   1  22
ATOM     21 CL   UNL     1      31.908  -9.756 -23.221  0.00  0.00    -0.079 Cl
ATOM     22  C   UNL     1      33.434 -13.089 -21.633  0.00  0.00    +0.050 C 
ATOM     23  C   UNL     1      33.095 -12.073 -22.525  0.00  0.00    +0.029 C 
ATOM     24  C   UNL     1      32.990 -13.035 -20.313  0.00  0.00    +0.018 C 
ATOM     25  C   UNL     1      31.867 -10.947 -20.775  0.00  0.00    +0.150 C 
ATOM     26  C   UNL     1      32.311 -11.001 -22.097  0.00  0.00    +0.093 C 
ATOM     27  C   UNL     1      32.206 -11.964 -19.884  0.00  0.00    +0.039 C 
BRANCH  25  28
ATOM     28  O   UNL     1      31.100  -9.912 -20.329  0.00  0.00    -0.468 OA
BRANCH  28  29
ATOM     29  C   UNL     1      31.754  -8.913 -19.547  0.00  0.00    +0.257 C 
BRANCH  29  32
ATOM     30  S   UNL     1      31.160  -6.571 -20.911  0.00  0.00    -0.067 S 
ATOM     31  N   UNL     1      33.461  -7.747 -20.940  0.00  0.00    -0.237 NA
ATOM     32  C   UNL     1      32.242  -7.822 -20.454  0.00  0.00    +0.132 C 
ATOM     33  C   UNL     1      32.414  -5.857 -21.836  0.00  0.00    +0.057 C 
ATOM     34  C   UNL     1      33.558  -6.620 -21.732  0.00  0.00    +0.106 C 
ENDBRANCH  29  32
ENDBRANCH  28  29
ENDBRANCH  25  28
ENDBRANCH   1  22
TORSDOF 5
ENDMDL
MODEL 3
REMARK VINA RESULT:     -11.0      1.127      1.539
REMARK  Name = 42642648
REMARK  5 active torsions:
REMARK  status: ('A' for Active; 'I' for Inactive)
REMARK    1  A    between atoms: N_1  and  C_22
REMARK    2  A    between atoms: C_4  and  N_15
REMARK    3  A    between atoms: C_25  and  O_28
REMARK    4  A    between atoms: O_28  and  C_29
REMARK    5  A    between atoms: C_29  and  C_32
REMARK                            x       y       z     vdW  Elec       q    Type
REMARK                         _______ _______ _______ _____ _____    ______ ____
ROOT
ATOM      1  N   UNL     1      33.328 -22.752 -17.234  0.00  0.00    -0.301 N 
ATOM      2  N   UNL     1      29.776 -22.978 -15.121  0.00  0.00    -0.248 NA
ATOM      3  N   UNL     1      30.987 -22.521 -17.153  0.00  0.00    -0.233 NA
ATOM      4  C   UNL     1      33.328 -23.935 -13.161  0.00  0.00    +0.048 C 
ATOM      5  C   UNL     1      32.160 -23.227 -15.161  0.00  0.00    +0.117 C 
ATOM      6  C   UNL     1      33.357 -23.550 -14.497  0.00  0.00    +0.001 C 
ATOM      7  C   UNL     1      30.926 -23.285 -14.495  0.00  0.00    +0.067 C 
ATOM      8  C   UNL     1      32.120 -22.835 -16.496  0.00  0.00    +0.115 C 
ATOM      9  C   UNL     1      32.112 -23.996 -12.490  0.00  0.00    +0.016 C 
ATOM     10  C   UNL     1      30.927 -23.672 -13.157  0.00  0.00    +0.016 C 
ATOM     11  C   UNL     1      29.869 -22.613 -16.415  0.00  0.00    +0.251 C 
ATOM     12  H   UNL     1      34.019 -23.386 -16.936  0.00  0.00    +0.153 HD
ENDROOT
BRANCH   4  15
ATOM     13  O   UNL     1      36.624 -25.064 -12.089  0.00  0.00    -0.448 OA
ATOM     14  N   UNL     1      35.818 -25.297 -14.214  0.00  0.00    -0.222 NA
ATOM     15  N   UNL     1      34.524 -24.260 -12.490  0.00  0.00    -0.269 N 
ATOM     16  C   UNL     1      37.206 -25.787 -14.202  0.00  0.00    +0.151 C 
ATOM     17  C   UNL     1      37.543 -25.936 -12.733  0.00  0.00    +0.233 C 
ATOM     18  C   UNL     1      35.626 -24.875 -13.001  0.00  0.00    +0.284 C 
ATOM     19  C   UNL     1      37.312 -27.088 -14.974  0.00  0.00    +0.030 C 
ATOM     20  H   UNL     1      34.568 -24.013 -11.537  0.00  0.00    +0.157 HD
ENDBRANCH   4  15
BRANCH   1  22
ATOM     21 CL   UNL     1      37.159 -20.847 -20.036  0.00  0.00    -0.079 Cl
ATOM     22  C   UNL     1      33.727 -21.941 -18.308  0.00  0.00    +0.050 C 
ATOM     23  C   UNL     1      35.081 -21.804 -18.613  0.00  0.00    +0.029 C 
ATOM     24  C   UNL     1      32.770 -21.272 -19.070  0.00  0.00    +0.018 C 
ATOM     25  C   UNL     1      34.519 -20.329 -20.443  0.00  0.00    +0.150 C 
ATOM     26  C   UNL     1      35.478 -20.999 -19.681  0.00  0.00    +0.093 C 
ATOM     27  C   UNL     1      33.166 -20.466 -20.137  0.00  0.00    +0.039 C 
BRANCH  25  28
ATOM     28  O   UNL     1      34.878 -19.536 -21.492  0.00  0.00    -0.468 OA
BRANCH  28  29
ATOM     29  C   UNL     1      35.322 -18.216 -21.181  0.00  0.00    +0.257 C 
BRANCH  29  32
ATOM     30  S   UNL     1      34.892 -15.630 -22.093  0.00  0.00    -0.067 S 
ATOM     31  N   UNL     1      34.923 -17.735 -23.594  0.00  0.00    -0.237 NA
ATOM     32  C   UNL     1      35.051 -17.319 -22.353  0.00  0.00    +0.132 C 
ATOM     33  C   UNL     1      34.630 -15.421 -23.774  0.00  0.00    +0.057 C 
ATOM     34  C   UNL     1      34.681 -16.645 -24.407  0.00  0.00    +0.106 C 
ENDBRANCH  29  32
ENDBRANCH  28  29
ENDBRANCH  25  28
ENDBRANCH   1  22
TORSDOF 5
ENDMDL
MODEL 4
REMARK VINA RESULT:     -10.6      1.725      2.213
REMARK  Name = 42642648
REMARK  5 active torsions:
REMARK  status: ('A' for Active; 'I' for Inactive)
REMARK    1  A    between atoms: N_1  and  C_22
REMARK    2  A    between atoms: C_4  and  N_15
REMARK    3  A    between atoms: C_25  and  O_28
REMARK    4  A    between atoms: O_28  and  C_29
REMARK    5  A    between atoms: C_29  and  C_32
REMARK                            x       y       z     vdW  Elec       q    Type
REMARK                         _______ _______ _______ _____ _____    ______ ____
ROOT
ATOM      1  N   UNL     1      34.746 -22.632 -17.344  0.00  0.00    -0.301 N 
ATOM      2  N   UNL     1      31.343 -23.580 -15.188  0.00  0.00    -0.248 NA
ATOM      3  N   UNL     1      32.411 -22.898 -17.237  0.00  0.00    -0.233 NA
ATOM      4  C   UNL     1      35.036 -23.747 -13.262  0.00  0.00    +0.048 C 
ATOM      5  C   UNL     1      33.726 -23.321 -15.254  0.00  0.00    +0.117 C 
ATOM      6  C   UNL     1      34.970 -23.379 -14.601  0.00  0.00    +0.001 C 
ATOM      7  C   UNL     1      32.538 -23.631 -14.573  0.00  0.00    +0.067 C 
ATOM      8  C   UNL     1      33.591 -22.959 -16.591  0.00  0.00    +0.115 C 
ATOM      9  C   UNL     1      33.867 -24.056 -12.577  0.00  0.00    +0.016 C 
ATOM     10  C   UNL     1      32.634 -23.996 -13.232  0.00  0.00    +0.016 C 
ATOM     11  C   UNL     1      31.344 -23.216 -16.485  0.00  0.00    +0.251 C 
ATOM     12  H   UNL     1      35.559 -23.103 -17.049  0.00  0.00    +0.153 HD
ENDROOT
BRANCH   4  15
ATOM     13  O   UNL     1      38.479 -24.255 -12.180  0.00  0.00    -0.448 OA
ATOM     14  N   UNL     1      37.667 -24.905 -14.213  0.00  0.00    -0.222 NA
ATOM     15  N   UNL     1      36.280 -23.806 -12.602  0.00  0.00    -0.269 N 
ATOM     16  C   UNL     1      39.108 -25.199 -14.189  0.00  0.00    +0.151 C 
ATOM     17  C   UNL     1      39.495 -25.081 -12.730  0.00  0.00    +0.233 C 
ATOM     18  C   UNL     1      37.445 -24.338 -13.066  0.00  0.00    +0.284 C 
ATOM     19  C   UNL     1      39.377 -26.573 -14.771  0.00  0.00    +0.030 C 
ATOM     20  H   UNL     1      36.311 -23.417 -11.698  0.00  0.00    +0.157 HD
ENDBRANCH   4  15
BRANCH   1  22
ATOM     21 CL   UNL     1      32.730 -19.987 -21.230  0.00  0.00    -0.079 Cl
ATOM     22  C   UNL     1      34.956 -21.765 -18.429  0.00  0.00    +0.050 C 
ATOM     23  C   UNL     1      33.876 -21.348 -19.206  0.00  0.00    +0.029 C 
ATOM     24  C   UNL     1      36.243 -21.322 -18.728  0.00  0.00    +0.018 C 
ATOM     25  C   UNL     1      35.373 -20.044 -20.584  0.00  0.00    +0.150 C 
ATOM     26  C   UNL     1      34.083 -20.487 -20.284  0.00  0.00    +0.093 C 
ATOM     27  C   UNL     1      36.452 -20.462 -19.806  0.00  0.00    +0.039 C 
BRANCH  25  28
ATOM     28  O   UNL     1      35.605 -19.202 -21.631  0.00  0.00    -0.468 OA
BRANCH  28  29
ATOM     29  C   UNL     1      35.867 -17.836 -21.316  0.00  0.00    +0.257 C 
BRANCH  29  32
ATOM     30  S   UNL     1      34.710 -17.696 -23.835  0.00  0.00    -0.067 S 
ATOM     31  N   UNL     1      35.188 -15.657 -22.319  0.00  0.00    -0.237 NA
ATOM     32  C   UNL     1      35.289 -16.966 -22.394  0.00  0.00    +0.132 C 
ATOM     33  C   UNL     1      34.284 -16.142 -24.421  0.00  0.00    +0.057 C 
ATOM     34  C   UNL     1      34.612 -15.186 -23.483  0.00  0.00    +0.106 C 
ENDBRANCH  29  32
ENDBRANCH  28  29
ENDBRANCH  25  28
ENDBRANCH   1  22
TORSDOF 5
ENDMDL
MODEL 5
REMARK VINA RESULT:     -10.4      2.176      2.990
REMARK  Name = 42642648
REMARK  5 active torsions:
REMARK  status: ('A' for Active; 'I' for Inactive)
REMARK    1  A    between atoms: N_1  and  C_22
REMARK    2  A    between atoms: C_4  and  N_15
REMARK    3  A    between atoms: C_25  and  O_28
REMARK    4  A    between atoms: O_28  and  C_29
REMARK    5  A    between atoms: C_29  and  C_32
REMARK                            x       y       z     vdW  Elec       q    Type
REMARK                         _______ _______ _______ _____ _____    ______ ____
ROOT
ATOM      1  N   UNL     1      35.285 -21.312 -19.572  0.00  0.00    -0.301 N 
ATOM      2  N   UNL     1      32.153 -22.561 -17.171  0.00  0.00    -0.248 NA
ATOM      3  N   UNL     1      32.974 -21.534 -19.191  0.00  0.00    -0.233 NA
ATOM      4  C   UNL     1      36.056 -23.182 -15.844  0.00  0.00    +0.048 C 
ATOM      5  C   UNL     1      34.516 -22.356 -17.522  0.00  0.00    +0.117 C 
ATOM      6  C   UNL     1      35.832 -22.567 -17.071  0.00  0.00    +0.001 C 
ATOM      7  C   UNL     1      33.415 -22.758 -16.749  0.00  0.00    +0.067 C 
ATOM      8  C   UNL     1      34.224 -21.746 -18.738  0.00  0.00    +0.115 C 
ATOM      9  C   UNL     1      34.973 -23.585 -15.070  0.00  0.00    +0.016 C 
ATOM     10  C   UNL     1      33.669 -23.371 -15.524  0.00  0.00    +0.016 C 
ATOM     11  C   UNL     1      32.001 -21.960 -18.368  0.00  0.00    +0.251 C 
ATOM     12  H   UNL     1      36.104 -21.851 -19.485  0.00  0.00    +0.153 HD
ENDROOT
BRANCH   4  15
ATOM     13  O   UNL     1      39.148 -24.304 -14.276  0.00  0.00    -0.448 OA
ATOM     14  N   UNL     1      37.120 -25.310 -13.972  0.00  0.00    -0.222 NA
ATOM     15  N   UNL     1      37.371 -23.397 -15.387  0.00  0.00    -0.269 N 
ATOM     16  C   UNL     1      38.129 -26.104 -13.253  0.00  0.00    +0.151 C 
ATOM     17  C   UNL     1      39.348 -25.208 -13.198  0.00  0.00    +0.233 C 
ATOM     18  C   UNL     1      37.811 -24.370 -14.541  0.00  0.00    +0.284 C 
ATOM     19  C   UNL     1      37.613 -26.496 -11.882  0.00  0.00    +0.030 C 
ATOM     20  H   UNL     1      38.054 -22.768 -15.717  0.00  0.00    +0.157 HD
ENDBRANCH   4  15
BRANCH   1  22
ATOM     21 CL   UNL     1      33.757 -19.272 -24.006  0.00  0.00    -0.079 Cl
ATOM     22  C   UNL     1      35.393 -20.263 -20.499  0.00  0.00    +0.050 C 
ATOM     23  C   UNL     1      34.619 -20.275 -21.659  0.00  0.00    +0.029 C 
ATOM     24  C   UNL     1      36.274 -19.210 -20.259  0.00  0.00    +0.018 C 
ATOM     25  C   UNL     1      35.607 -18.177 -22.339  0.00  0.00    +0.150 C 
ATOM     26  C   UNL     1      34.725 -19.232 -22.579  0.00  0.00    +0.093 C 
ATOM     27  C   UNL     1      36.381 -18.167 -21.179  0.00  0.00    +0.039 C 
BRANCH  25  28
ATOM     28  O   UNL     1      35.733 -17.145 -23.221  0.00  0.00    -0.468 OA
BRANCH  28  29
ATOM     29  C   UNL     1      35.341 -15.852 -22.763  0.00  0.00    +0.257 C 
BRANCH  29  32
ATOM     30  S   UNL     1      33.633 -13.756 -23.387  0.00  0.00    -0.067 S 
ATOM     31  N   UNL     1      34.135 -15.759 -24.942  0.00  0.00    -0.237 NA
ATOM     32  C   UNL     1      34.410 -15.238 -23.767  0.00  0.00    +0.132 C 
ATOM     33  C   UNL     1      32.859 -13.798 -24.916  0.00  0.00    +0.057 C 
ATOM     34  C   UNL     1      33.245 -14.932 -25.600  0.00  0.00    +0.106 C 
ENDBRANCH  29  32
ENDBRANCH  28  29
ENDBRANCH  25  28
ENDBRANCH   1  22
TORSDOF 5
ENDMDL
MODEL 6
REMARK VINA RESULT:      -9.5      8.901     16.605
REMARK  Name = 42642648
REMARK  5 active torsions:
REMARK  status: ('A' for Active; 'I' for Inactive)
REMARK    1  A    between atoms: N_1  and  C_22
REMARK    2  A    between atoms: C_4  and  N_15
REMARK    3  A    between atoms: C_25  and  O_28
REMARK    4  A    between atoms: O_28  and  C_29
REMARK    5  A    between atoms: C_29  and  C_32
REMARK                            x       y       z     vdW  Elec       q    Type
REMARK                         _______ _______ _______ _____ _____    ______ ____
ROOT
ATOM      1  N   UNL     1      33.190  -9.262 -22.969  0.00  0.00    -0.301 N 
ATOM      2  N   UNL     1      31.530  -6.631 -20.238  0.00  0.00    -0.248 NA
ATOM      3  N   UNL     1      32.615  -8.720 -20.752  0.00  0.00    -0.233 NA
ATOM      4  C   UNL     1      31.581  -5.558 -24.266  0.00  0.00    +0.048 C 
ATOM      5  C   UNL     1      32.100  -7.144 -22.510  0.00  0.00    +0.117 C 
ATOM      6  C   UNL     1      32.116  -6.778 -23.868  0.00  0.00    +0.001 C 
ATOM      7  C   UNL     1      31.550  -6.291 -21.539  0.00  0.00    +0.067 C 
ATOM      8  C   UNL     1      32.618  -8.349 -22.047  0.00  0.00    +0.115 C 
ATOM      9  C   UNL     1      31.033  -4.706 -23.313  0.00  0.00    +0.016 C 
ATOM     10  C   UNL     1      31.020  -5.076 -21.966  0.00  0.00    +0.016 C 
ATOM     11  C   UNL     1      32.063  -7.826 -19.915  0.00  0.00    +0.251 C 
ATOM     12  H   UNL     1      33.597  -8.829 -23.754  0.00  0.00    +0.153 HD
ENDROOT
BRANCH   4  15
ATOM     13  O   UNL     1      32.334  -4.426 -27.647  0.00  0.00    -0.448 OA
ATOM     14  N   UNL     1      33.861  -4.496 -25.950  0.00  0.00    -0.222 NA
ATOM     15  N   UNL     1      31.594  -5.186 -25.625  0.00  0.00    -0.269 N 
ATOM     16  C   UNL     1      34.564  -4.074 -27.172  0.00  0.00    +0.151 C 
ATOM     17  C   UNL     1      33.458  -3.711 -28.140  0.00  0.00    +0.233 C 
ATOM     18  C   UNL     1      32.645  -4.711 -26.349  0.00  0.00    +0.284 C 
ATOM     19  C   UNL     1      35.499  -2.918 -26.871  0.00  0.00    +0.030 C 
ATOM     20  H   UNL     1      30.741  -5.281 -26.109  0.00  0.00    +0.157 HD
ENDBRANCH   4  15
BRANCH   1  22
ATOM     21 CL   UNL     1      31.947 -13.708 -20.768  0.00  0.00    -0.079 Cl
ATOM     22  C   UNL     1      33.288 -10.662 -22.978  0.00  0.00    +0.050 C 
ATOM     23  C   UNL     1      32.649 -11.412 -21.991  0.00  0.00    +0.029 C 
ATOM     24  C   UNL     1      34.025 -11.302 -23.973  0.00  0.00    +0.018 C 
ATOM     25  C   UNL     1      33.484 -13.445 -22.997  0.00  0.00    +0.150 C 
ATOM     26  C   UNL     1      32.746 -12.804 -22.001  0.00  0.00    +0.093 C 
ATOM     27  C   UNL     1      34.123 -12.693 -23.983  0.00  0.00    +0.039 C 
BRANCH  25  28
ATOM     28  O   UNL     1      33.597 -14.803 -23.031  0.00  0.00    -0.468 OA
BRANCH  28  29
ATOM     29  C   UNL     1      34.827 -15.338 -23.519  0.00  0.00    +0.257 C 
BRANCH  29  32
ATOM     30  S   UNL     1      35.364 -17.764 -22.284  0.00  0.00    -0.067 S 
ATOM     31  N   UNL     1      34.165 -17.504 -24.559  0.00  0.00    -0.237 NA
ATOM     32  C   UNL     1      34.722 -16.833 -23.575  0.00  0.00    +0.132 C 
ATOM     33  C   UNL     1      34.860 -19.189 -23.094  0.00  0.00    +0.057 C 
ATOM     34  C   UNL     1      34.245 -18.854 -24.282  0.00  0.00    +0.106 C 
ENDBRANCH  29  32
ENDBRANCH  28  29
ENDBRANCH  25  28
ENDBRANCH   1  22
TORSDOF 5
ENDMDL
MODEL 7
REMARK VINA RESULT:      -9.4     10.734     18.046
REMARK  Name = 42642648
REMARK  5 active torsions:
REMARK  status: ('A' for Active; 'I' for Inactive)
REMARK    1  A    between atoms: N_1  and  C_22
REMARK    2  A    between atoms: C_4  and  N_15
REMARK    3  A    between atoms: C_25  and  O_28
REMARK    4  A    between atoms: O_28  and  C_29
REMARK    5  A    between atoms: C_29  and  C_32
REMARK                            x       y       z     vdW  Elec       q    Type
REMARK                         _______ _______ _______ _____ _____    ______ ____
ROOT
ATOM      1  N   UNL     1      32.934  -7.297 -23.000  0.00  0.00    -0.301 N 
ATOM      2  N   UNL     1      30.403  -4.128 -22.178  0.00  0.00    -0.248 NA
ATOM      3  N   UNL     1      31.207  -6.350 -21.712  0.00  0.00    -0.233 NA
ATOM      4  C   UNL     1      33.118  -3.750 -25.318  0.00  0.00    +0.048 C 
ATOM      5  C   UNL     1      32.164  -5.055 -23.514  0.00  0.00    +0.117 C 
ATOM      6  C   UNL     1      33.080  -4.924 -24.574  0.00  0.00    +0.001 C 
ATOM      7  C   UNL     1      31.281  -4.013 -23.189  0.00  0.00    +0.067 C 
ATOM      8  C   UNL     1      32.075  -6.203 -22.732  0.00  0.00    +0.115 C 
ATOM      9  C   UNL     1      32.248  -2.711 -25.006  0.00  0.00    +0.016 C 
ATOM     10  C   UNL     1      31.341  -2.849 -23.952  0.00  0.00    +0.016 C 
ATOM     11  C   UNL     1      30.413  -5.289 -21.495  0.00  0.00    +0.251 C 
ATOM     12  H   UNL     1      33.805  -7.035 -23.377  0.00  0.00    +0.153 HD
ENDROOT
BRANCH   4  15
ATOM     13  O   UNL     1      34.990  -3.820 -28.444  0.00  0.00    -0.448 OA
ATOM     14  N   UNL     1      32.964  -4.831 -28.141  0.00  0.00    -0.222 NA
ATOM     15  N   UNL     1      34.033  -3.612 -26.381  0.00  0.00    -0.269 N 
ATOM     16  C   UNL     1      33.348  -5.006 -29.551  0.00  0.00    +0.151 C 
ATOM     17  C   UNL     1      34.817  -4.640 -29.592  0.00  0.00    +0.233 C 
ATOM     18  C   UNL     1      33.926  -4.116 -27.642  0.00  0.00    +0.284 C 
ATOM     19  C   UNL     1      33.074  -6.428 -30.000  0.00  0.00    +0.030 C 
ATOM     20  H   UNL     1      34.845  -3.090 -26.190  0.00  0.00    +0.157 HD
ENDBRANCH   4  15
BRANCH   1  22
ATOM     21 CL   UNL     1      30.584 -11.138 -20.575  0.00  0.00    -0.079 Cl
ATOM     22  C   UNL     1      32.784  -8.683 -22.832  0.00  0.00    +0.050 C 
ATOM     23  C   UNL     1      31.871  -9.177 -21.901  0.00  0.00    +0.029 C 
ATOM     24  C   UNL     1      33.548  -9.564 -23.595  0.00  0.00    +0.018 C 
ATOM     25  C   UNL     1      32.485 -11.436 -22.499  0.00  0.00    +0.150 C 
ATOM     26  C   UNL     1      31.720 -10.554 -21.734  0.00  0.00    +0.093 C 
ATOM     27  C   UNL     1      33.398 -10.941 -23.429  0.00  0.00    +0.039 C 
BRANCH  25  28
ATOM     28  O   UNL     1      32.360 -12.786 -22.356  0.00  0.00    -0.468 OA
BRANCH  28  29
ATOM     29  C   UNL     1      33.533 -13.509 -21.985  0.00  0.00    +0.257 C 
BRANCH  29  32
ATOM     30  S   UNL     1      34.959 -15.781 -22.694  0.00  0.00    -0.067 S 
ATOM     31  N   UNL     1      33.280 -14.558 -24.232  0.00  0.00    -0.237 NA
ATOM     32  C   UNL     1      33.830 -14.536 -23.038  0.00  0.00    +0.132 C 
ATOM     33  C   UNL     1      34.702 -16.414 -24.266  0.00  0.00    +0.057 C 
ATOM     34  C   UNL     1      33.782 -15.635 -24.935  0.00  0.00    +0.106 C 
ENDBRANCH  29  32
ENDBRANCH  28  29
ENDBRANCH  25  28
ENDBRANCH   1  22
TORSDOF 5
ENDMDL
MODEL 8
REMARK VINA RESULT:      -9.2      9.148     17.427
REMARK  Name = 42642648
REMARK  5 active torsions:
REMARK  status: ('A' for Active; 'I' for Inactive)
REMARK    1  A    between atoms: N_1  and  C_22
REMARK    2  A    between atoms: C_4  and  N_15
REMARK    3  A    between atoms: C_25  and  O_28
REMARK    4  A    between atoms: O_28  and  C_29
REMARK    5  A    between atoms: C_29  and  C_32
REMARK                            x       y       z     vdW  Elec       q    Type
REMARK                         _______ _______ _______ _____ _____    ______ ____
ROOT
ATOM      1  N   UNL     1      33.388  -8.089 -23.529  0.00  0.00    -0.301 N 
ATOM      2  N   UNL     1      32.019  -4.812 -21.404  0.00  0.00    -0.248 NA
ATOM      3  N   UNL     1      32.859  -7.069 -21.475  0.00  0.00    -0.233 NA
ATOM      4  C   UNL     1      32.229  -4.549 -25.558  0.00  0.00    +0.048 C 
ATOM      5  C   UNL     1      32.546  -5.814 -23.517  0.00  0.00    +0.117 C 
ATOM      6  C   UNL     1      32.616  -5.722 -24.919  0.00  0.00    +0.001 C 
ATOM      7  C   UNL     1      32.089  -4.734 -22.744  0.00  0.00    +0.067 C 
ATOM      8  C   UNL     1      32.917  -6.958 -22.816  0.00  0.00    +0.115 C 
ATOM      9  C   UNL     1      31.774  -3.473 -24.804  0.00  0.00    +0.016 C 
ATOM     10  C   UNL     1      31.707  -3.573 -23.411  0.00  0.00    +0.016 C 
ATOM     11  C   UNL     1      32.407  -5.974 -20.842  0.00  0.00    +0.251 C 
ATOM     12  H   UNL     1      33.849  -7.864 -24.369  0.00  0.00    +0.153 HD
ENDROOT
BRANCH   4  15
ATOM     13  O   UNL     1      33.010  -4.733 -29.113  0.00  0.00    -0.448 OA
ATOM     14  N   UNL     1      34.201  -5.802 -27.484  0.00  0.00    -0.222 NA
ATOM     15  N   UNL     1      32.297  -4.450 -26.962  0.00  0.00    -0.269 N 
ATOM     16  C   UNL     1      34.765  -6.194 -28.785  0.00  0.00    +0.151 C 
ATOM     17  C   UNL     1      34.183  -5.200 -29.766  0.00  0.00    +0.233 C 
ATOM     18  C   UNL     1      33.203  -5.032 -27.796  0.00  0.00    +0.284 C 
ATOM     19  C   UNL     1      36.281  -6.165 -28.732  0.00  0.00    +0.030 C 
ATOM     20  H   UNL     1      31.606  -3.894 -27.392  0.00  0.00    +0.157 HD
ENDBRANCH   4  15
BRANCH   1  22
ATOM     21 CL   UNL     1      31.145 -11.919 -20.988  0.00  0.00    -0.079 Cl
ATOM     22  C   UNL     1      33.324  -9.467 -23.268  0.00  0.00    +0.050 C 
ATOM     23  C   UNL     1      32.383  -9.963 -22.367  0.00  0.00    +0.029 C 
ATOM     24  C   UNL     1      34.203 -10.339 -23.909  0.00  0.00    +0.018 C 
ATOM     25  C   UNL     1      33.198 -12.205 -22.750  0.00  0.00    +0.150 C 
ATOM     26  C   UNL     1      32.319 -11.332 -22.108  0.00  0.00    +0.093 C 
ATOM     27  C   UNL     1      34.140 -11.708 -23.650  0.00  0.00    +0.039 C 
BRANCH  25  28
ATOM     28  O   UNL     1      33.159 -13.547 -22.515  0.00  0.00    -0.468 OA
BRANCH  28  29
ATOM     29  C   UNL     1      34.277 -14.118 -21.838  0.00  0.00    +0.257 C 
BRANCH  29  32
ATOM     30  S   UNL     1      34.200 -15.699 -24.118  0.00  0.00    -0.067 S 
ATOM     31  N   UNL     1      35.216 -16.427 -21.856  0.00  0.00    -0.237 NA
ATOM     32  C   UNL     1      34.615 -15.435 -22.474  0.00  0.00    +0.132 C 
ATOM     33  C   UNL     1      34.877 -17.270 -24.011  0.00  0.00    +0.057 C 
ATOM     34  C   UNL     1      35.366 -17.479 -22.738  0.00  0.00    +0.106 C 
ENDBRANCH  29  32
ENDBRANCH  28  29
ENDBRANCH  25  28
ENDBRANCH   1  22
TORSDOF 5
ENDMDL
MODEL 9
REMARK VINA RESULT:      -9.1      8.911     16.709
REMARK  Name = 42642648
REMARK  5 active torsions:
REMARK  status: ('A' for Active; 'I' for Inactive)
REMARK    1  A    between atoms: N_1  and  C_22
REMARK    2  A    between atoms: C_4  and  N_15
REMARK    3  A    between atoms: C_25  and  O_28
REMARK    4  A    between atoms: O_28  and  C_29
REMARK    5  A    between atoms: C_29  and  C_32
REMARK                            x       y       z     vdW  Elec       q    Type
REMARK                         _______ _______ _______ _____ _____    ______ ____
ROOT
ATOM      1  N   UNL     1      33.526  -9.251 -23.340  0.00  0.00    -0.301 N 
ATOM      2  N   UNL     1      30.400  -6.594 -23.891  0.00  0.00    -0.248 NA
ATOM      3  N   UNL     1      31.258  -8.687 -23.060  0.00  0.00    -0.233 NA
ATOM      4  C   UNL     1      34.173  -5.563 -25.333  0.00  0.00    +0.048 C 
ATOM      5  C   UNL     1      32.717  -7.130 -24.195  0.00  0.00    +0.117 C 
ATOM      6  C   UNL     1      33.989  -6.779 -24.683  0.00  0.00    +0.001 C 
ATOM      7  C   UNL     1      31.620  -6.268 -24.354  0.00  0.00    +0.067 C 
ATOM      8  C   UNL     1      32.466  -8.330 -23.537  0.00  0.00    +0.115 C 
ATOM      9  C   UNL     1      33.094  -4.702 -25.497  0.00  0.00    +0.016 C 
ATOM     10  C   UNL     1      31.833  -5.058 -25.010  0.00  0.00    +0.016 C 
ATOM     11  C   UNL     1      30.285  -7.785 -23.270  0.00  0.00    +0.251 C 
ATOM     12  H   UNL     1      34.409  -8.826 -23.253  0.00  0.00    +0.153 HD
ENDROOT
BRANCH   4  15
ATOM     13  O   UNL     1      37.229  -4.981 -27.232  0.00  0.00    -0.448 OA
ATOM     14  N   UNL     1      35.385  -6.041 -28.066  0.00  0.00    -0.222 NA
ATOM     15  N   UNL     1      35.445  -5.206 -25.824  0.00  0.00    -0.269 N 
ATOM     16  C   UNL     1      36.366  -5.920 -29.156  0.00  0.00    +0.151 C 
ATOM     17  C   UNL     1      37.659  -5.547 -28.462  0.00  0.00    +0.233 C 
ATOM     18  C   UNL     1      35.954  -5.440 -27.066  0.00  0.00    +0.284 C 
ATOM     19  C   UNL     1      36.457  -7.220 -29.931  0.00  0.00    +0.030 C 
ATOM     20  H   UNL     1      36.035  -4.731 -25.195  0.00  0.00    +0.157 HD
ENDBRANCH   4  15
BRANCH   1  22
ATOM     21 CL   UNL     1      32.052 -13.458 -20.832  0.00  0.00    -0.079 Cl
ATOM     22  C   UNL     1      33.557 -10.651 -23.244  0.00  0.00    +0.050 C 
ATOM     23  C   UNL     1      32.874 -11.295 -22.213  0.00  0.00    +0.029 C 
ATOM     24  C   UNL     1      34.272 -11.397 -24.180  0.00  0.00    +0.018 C 
ATOM     25  C   UNL     1      33.621 -13.434 -23.055  0.00  0.00    +0.150 C 
ATOM     26  C   UNL     1      32.905 -12.687 -22.118  0.00  0.00    +0.093 C 
ATOM     27  C   UNL     1      34.304 -12.789 -24.086  0.00  0.00    +0.039 C 
BRANCH  25  28
ATOM     28  O   UNL     1      33.669 -14.794 -22.987  0.00  0.00    -0.468 OA
BRANCH  28  29
ATOM     29  C   UNL     1      34.950 -15.404 -23.140  0.00  0.00    +0.257 C 
BRANCH  29  32
ATOM     30  S   UNL     1      35.382 -17.987 -22.220  0.00  0.00    -0.067 S 
ATOM     31  N   UNL     1      34.158 -17.392 -24.418  0.00  0.00    -0.237 NA
ATOM     32  C   UNL     1      34.767 -16.875 -23.374  0.00  0.00    +0.132 C 
ATOM     33  C   UNL     1      34.792 -19.276 -23.184  0.00  0.00    +0.057 C 
ATOM     34  C   UNL     1      34.174 -18.769 -24.308  0.00  0.00    +0.106 C 
ENDBRANCH  29  32
ENDBRANCH  28  29
ENDBRANCH  25  28
ENDBRANCH   1  22
TORSDOF 5
ENDMDL
