MODEL 1
REMARK VINA RESULT:     -11.5      0.000      0.000
REMARK  Name = 4261
REMARK  8 active torsions:
REMARK  status: ('A' for Active; 'I' for Inactive)
REMARK    1  A    between atoms: C_1  and  C_20
REMARK    2  A    between atoms: C_2  and  C_9
REMARK    3  A    between atoms: N_8  and  C_11
REMARK    4  A    between atoms: C_12  and  N_17
REMARK    5  A    between atoms: C_20  and  N_22
REMARK    6  A    between atoms: C_23  and  O_25
REMARK    7  A    between atoms: O_25  and  C_26
REMARK    8  A    between atoms: C_26  and  C_28
REMARK                            x       y       z     vdW  Elec       q    Type
REMARK                         _______ _______ _______ _____ _____    ______ ____
ROOT
ATOM      1  C   UNL     1      35.449 -20.177 -20.240  0.00  0.00    -0.002 C 
ATOM      2  C   UNL     1      34.214 -22.059 -18.606  0.00  0.00    +0.054 C 
ATOM      3  C   UNL     1      34.064 -20.299 -20.256  0.00  0.00    -0.002 C 
ATOM      4  C   UNL     1      36.223 -20.986 -19.415  0.00  0.00    -0.002 C 
ATOM      5  C   UNL     1      33.445 -21.243 -19.437  0.00  0.00    +0.004 C 
ATOM      6  C   UNL     1      35.604 -21.929 -18.596  0.00  0.00    +0.004 C 
ENDROOT
BRANCH   2   9
ATOM      7  O   UNL     1      33.629 -24.243 -18.065  0.00  0.00    -0.270 OA
ATOM      8  N   UNL     1      32.937 -22.539 -16.607  0.00  0.00    -0.279 N 
ATOM      9  C   UNL     1      33.569 -23.043 -17.754  0.00  0.00    +0.250 C 
ATOM     10  H   UNL     1      32.973 -21.562 -16.494  0.00  0.00    +0.155 HD
BRANCH   8  11
ATOM     11  C   UNL     1      32.256 -23.252 -15.591  0.00  0.00    +0.064 C 
ATOM     12  C   UNL     1      30.872 -23.316 -15.588  0.00  0.00    +0.055 C 
ATOM     13  C   UNL     1      33.008 -23.878 -14.609  0.00  0.00    +0.016 C 
ATOM     14  C   UNL     1      30.223 -24.024 -14.576  0.00  0.00    +0.015 C 
ATOM     15  C   UNL     1      32.359 -24.586 -13.598  0.00  0.00    +0.001 C 
ATOM     16  C   UNL     1      30.966 -24.659 -13.582  0.00  0.00    +0.001 C 
BRANCH  12  17
ATOM     17  N   UNL     1      30.098 -22.681 -16.586  0.00  0.00    -0.356 N 
ATOM     18  H   UNL     1      29.128 -22.576 -16.462  0.00  0.00    +0.142 HD
ATOM     19  H   UNL     1      30.530 -22.344 -17.403  0.00  0.00    +0.142 HD
ENDBRANCH  12  17
ENDBRANCH   8  11
ENDBRANCH   2   9
BRANCH   1  20
ATOM     20  C   UNL     1      36.115 -19.161 -21.120  0.00  0.00    +0.119 C 
BRANCH  20  22
ATOM     21  O   UNL     1      35.273 -17.172 -23.062  0.00  0.00    -0.226 OA
ATOM     22  N   UNL     1      35.630 -17.823 -20.865  0.00  0.00    -0.267 N 
ATOM     23  C   UNL     1      35.251 -16.945 -21.857  0.00  0.00    +0.402 C 
ATOM     24  H   UNL     1      35.567 -17.523 -19.929  0.00  0.00    +0.153 HD
BRANCH  23  25
ATOM     25  O   UNL     1      34.841 -15.767 -21.297  0.00  0.00    -0.430 OA
BRANCH  25  26
ATOM     26  C   UNL     1      34.675 -14.669 -22.202  0.00  0.00    +0.238 C 
BRANCH  26  28
ATOM     27  N   UNL     1      31.833 -12.195 -22.213  0.00  0.00    -0.243 NA
ATOM     28  C   UNL     1      33.559 -13.795 -21.711  0.00  0.00    +0.040 C 
ATOM     29  C   UNL     1      33.226 -13.766 -20.368  0.00  0.00    +0.002 C 
ATOM     30  C   UNL     1      32.848 -13.005 -22.589  0.00  0.00    +0.098 C 
ATOM     31  C   UNL     1      32.188 -12.946 -19.943  0.00  0.00    +0.020 C 
ATOM     32  C   UNL     1      31.528 -12.186 -20.895  0.00  0.00    +0.099 C 
ENDBRANCH  26  28
ENDBRANCH  25  26
ENDBRANCH  23  25
ENDBRANCH  20  22
ENDBRANCH   1  20
TORSDOF 8
ENDMDL
MODEL 2
REMARK VINA RESULT:     -11.5      0.599      1.556
REMARK  Name = 4261
REMARK  8 active torsions:
REMARK  status: ('A' for Active; 'I' for Inactive)
REMARK    1  A    between atoms: C_1  and  C_20
REMARK    2  A    between atoms: C_2  and  C_9
REMARK    3  A    between atoms: N_8  and  C_11
REMARK    4  A    between atoms: C_12  and  N_17
REMARK    5  A    between atoms: C_20  and  N_22
REMARK    6  A    between atoms: C_23  and  O_25
REMARK    7  A    between atoms: O_25  and  C_26
REMARK    8  A    between atoms: C_26  and  C_28
REMARK                            x       y       z     vdW  Elec       q    Type
REMARK                         _______ _______ _______ _____ _____    ______ ____
ROOT
ATOM      1  C   UNL     1      35.414 -20.174 -20.283  0.00  0.00    -0.002 C 
ATOM      2  C   UNL     1      34.108 -21.993 -18.634  0.00  0.00    +0.054 C 
ATOM      3  C   UNL     1      36.157 -21.020 -19.467  0.00  0.00    -0.002 C 
ATOM      4  C   UNL     1      34.025 -20.228 -20.282  0.00  0.00    -0.002 C 
ATOM      5  C   UNL     1      35.502 -21.932 -18.641  0.00  0.00    +0.004 C 
ATOM      6  C   UNL     1      33.370 -21.140 -19.456  0.00  0.00    +0.004 C 
ENDROOT
BRANCH   2   9
ATOM      7  O   UNL     1      33.604 -24.158 -17.951  0.00  0.00    -0.270 OA
ATOM      8  N   UNL     1      32.620 -22.387 -16.767  0.00  0.00    -0.279 N 
ATOM      9  C   UNL     1      33.426 -22.942 -17.772  0.00  0.00    +0.250 C 
ATOM     10  H   UNL     1      32.576 -21.404 -16.749  0.00  0.00    +0.155 HD
BRANCH   8  11
ATOM     11  C   UNL     1      31.863 -23.055 -15.775  0.00  0.00    +0.064 C 
ATOM     12  C   UNL     1      32.428 -23.357 -14.546  0.00  0.00    +0.055 C 
ATOM     13  C   UNL     1      30.551 -23.395 -16.066  0.00  0.00    +0.016 C 
ATOM     14  C   UNL     1      31.662 -24.016 -13.584  0.00  0.00    +0.015 C 
ATOM     15  C   UNL     1      29.785 -24.054 -15.105  0.00  0.00    +0.001 C 
ATOM     16  C   UNL     1      30.341 -24.365 -13.864  0.00  0.00    +0.001 C 
BRANCH  12  17
ATOM     17  N   UNL     1      33.764 -23.013 -14.241  0.00  0.00    -0.356 N 
ATOM     18  H   UNL     1      34.018 -22.066 -14.144  0.00  0.00    +0.142 HD
ATOM     19  H   UNL     1      34.440 -23.718 -14.126  0.00  0.00    +0.142 HD
ENDBRANCH  12  17
ENDBRANCH   8  11
ENDBRANCH   2   9
BRANCH   1  20
ATOM     20  C   UNL     1      36.119 -19.193 -21.174  0.00  0.00    +0.119 C 
BRANCH  20  22
ATOM     21  O   UNL     1      35.303 -17.244 -23.167  0.00  0.00    -0.226 OA
ATOM     22  N   UNL     1      35.663 -17.839 -20.955  0.00  0.00    -0.267 N 
ATOM     23  C   UNL     1      35.295 -16.983 -21.970  0.00  0.00    +0.402 C 
ATOM     24  H   UNL     1      35.612 -17.511 -20.027  0.00  0.00    +0.153 HD
BRANCH  23  25
ATOM     25  O   UNL     1      34.913 -15.781 -21.442  0.00  0.00    -0.430 OA
BRANCH  25  26
ATOM     26  C   UNL     1      34.592 -14.756 -22.390  0.00  0.00    +0.238 C 
BRANCH  26  28
ATOM     27  N   UNL     1      31.943 -12.089 -22.125  0.00  0.00    -0.243 NA
ATOM     28  C   UNL     1      33.539 -13.860 -21.805  0.00  0.00    +0.040 C 
ATOM     29  C   UNL     1      33.195 -13.958 -20.468  0.00  0.00    +0.002 C 
ATOM     30  C   UNL     1      32.899 -12.925 -22.589  0.00  0.00    +0.098 C 
ATOM     31  C   UNL     1      32.217 -13.115 -19.954  0.00  0.00    +0.020 C 
ATOM     32  C   UNL     1      31.626 -12.206 -20.816  0.00  0.00    +0.099 C 
ENDBRANCH  26  28
ENDBRANCH  25  26
ENDBRANCH  23  25
ENDBRANCH  20  22
ENDBRANCH   1  20
TORSDOF 8
ENDMDL
MODEL 3
REMARK VINA RESULT:     -10.9      3.186     11.782
REMARK  Name = 4261
REMARK  8 active torsions:
REMARK  status: ('A' for Active; 'I' for Inactive)
REMARK    1  A    between atoms: C_1  and  C_20
REMARK    2  A    between atoms: C_2  and  C_9
REMARK    3  A    between atoms: N_8  and  C_11
REMARK    4  A    between atoms: C_12  and  N_17
REMARK    5  A    between atoms: C_20  and  N_22
REMARK    6  A    between atoms: C_23  and  O_25
REMARK    7  A    between atoms: O_25  and  C_26
REMARK    8  A    between atoms: C_26  and  C_28
REMARK                            x       y       z     vdW  Elec       q    Type
REMARK                         _______ _______ _______ _____ _____    ______ ____
ROOT
ATOM      1  C   UNL     1      34.110 -14.222 -22.675  0.00  0.00    -0.002 C 
ATOM      2  C   UNL     1      32.639 -11.956 -22.014  0.00  0.00    +0.054 C 
ATOM      3  C   UNL     1      33.470 -14.152 -21.443  0.00  0.00    -0.002 C 
ATOM      4  C   UNL     1      34.021 -13.170 -23.580  0.00  0.00    -0.002 C 
ATOM      5  C   UNL     1      32.732 -13.016 -21.112  0.00  0.00    +0.004 C 
ATOM      6  C   UNL     1      33.284 -12.034 -23.249  0.00  0.00    +0.004 C 
ENDROOT
BRANCH   2   9
ATOM      7  O   UNL     1      30.800 -10.905 -21.054  0.00  0.00    -0.270 OA
ATOM      8  N   UNL     1      32.435  -9.544 -22.047  0.00  0.00    -0.279 N 
ATOM      9  C   UNL     1      31.871 -10.772 -21.668  0.00  0.00    +0.250 C 
ATOM     10  H   UNL     1      33.291  -9.599 -22.529  0.00  0.00    +0.155 HD
BRANCH   8  11
ATOM     11  C   UNL     1      31.934  -8.239 -21.826  0.00  0.00    +0.064 C 
ATOM     12  C   UNL     1      32.255  -7.553 -20.665  0.00  0.00    +0.055 C 
ATOM     13  C   UNL     1      31.121  -7.673 -22.795  0.00  0.00    +0.016 C 
ATOM     14  C   UNL     1      31.749  -6.267 -20.470  0.00  0.00    +0.015 C 
ATOM     15  C   UNL     1      30.616  -6.388 -22.600  0.00  0.00    +0.001 C 
ATOM     16  C   UNL     1      30.930  -5.685 -21.437  0.00  0.00    +0.001 C 
BRANCH  12  17
ATOM     17  N   UNL     1      33.084  -8.123 -19.673  0.00  0.00    -0.356 N 
ATOM     18  H   UNL     1      33.851  -7.615 -19.323  0.00  0.00    +0.142 HD
ATOM     19  H   UNL     1      32.894  -9.026 -19.333  0.00  0.00    +0.142 HD
ENDBRANCH  12  17
ENDBRANCH   8  11
ENDBRANCH   2   9
BRANCH   1  20
ATOM     20  C   UNL     1      34.902 -15.445 -23.033  0.00  0.00    +0.119 C 
BRANCH  20  22
ATOM     21  O   UNL     1      35.409 -18.304 -22.983  0.00  0.00    -0.226 OA
ATOM     22  N   UNL     1      35.158 -16.279 -21.881  0.00  0.00    -0.267 N 
ATOM     23  C   UNL     1      35.389 -17.636 -21.956  0.00  0.00    +0.402 C 
ATOM     24  H   UNL     1      35.167 -15.854 -20.993  0.00  0.00    +0.153 HD
BRANCH  23  25
ATOM     25  O   UNL     1      35.595 -18.137 -20.701  0.00  0.00    -0.430 OA
BRANCH  25  26
ATOM     26  C   UNL     1      36.274 -19.397 -20.635  0.00  0.00    +0.238 C 
BRANCH  26  28
ATOM     27  N   UNL     1      35.145 -22.372 -18.617  0.00  0.00    -0.243 NA
ATOM     28  C   UNL     1      35.373 -20.406 -19.985  0.00  0.00    +0.040 C 
ATOM     29  C   UNL     1      34.000 -20.323 -20.135  0.00  0.00    +0.002 C 
ATOM     30  C   UNL     1      35.899 -21.431 -19.228  0.00  0.00    +0.098 C 
ATOM     31  C   UNL     1      33.191 -21.272 -19.522  0.00  0.00    +0.020 C 
ATOM     32  C   UNL     1      33.806 -22.267 -18.780  0.00  0.00    +0.099 C 
ENDBRANCH  26  28
ENDBRANCH  25  26
ENDBRANCH  23  25
ENDBRANCH  20  22
ENDBRANCH   1  20
TORSDOF 8
ENDMDL
MODEL 4
REMARK VINA RESULT:     -10.8      1.775      2.092
REMARK  Name = 4261
REMARK  8 active torsions:
REMARK  status: ('A' for Active; 'I' for Inactive)
REMARK    1  A    between atoms: C_1  and  C_20
REMARK    2  A    between atoms: C_2  and  C_9
REMARK    3  A    between atoms: N_8  and  C_11
REMARK    4  A    between atoms: C_12  and  N_17
REMARK    5  A    between atoms: C_20  and  N_22
REMARK    6  A    between atoms: C_23  and  O_25
REMARK    7  A    between atoms: O_25  and  C_26
REMARK    8  A    between atoms: C_26  and  C_28
REMARK                            x       y       z     vdW  Elec       q    Type
REMARK                         _______ _______ _______ _____ _____    ______ ____
ROOT
ATOM      1  C   UNL     1      35.887 -20.584 -19.572  0.00  0.00    -0.002 C 
ATOM      2  C   UNL     1      34.344 -22.390 -18.127  0.00  0.00    +0.054 C 
ATOM      3  C   UNL     1      34.544 -20.751 -19.891  0.00  0.00    -0.002 C 
ATOM      4  C   UNL     1      36.466 -21.311 -18.538  0.00  0.00    -0.002 C 
ATOM      5  C   UNL     1      33.771 -21.656 -19.166  0.00  0.00    +0.004 C 
ATOM      6  C   UNL     1      35.693 -22.216 -17.813  0.00  0.00    +0.004 C 
ENDROOT
BRANCH   2   9
ATOM      7  O   UNL     1      33.462 -24.511 -17.764  0.00  0.00    -0.270 OA
ATOM      8  N   UNL     1      32.917 -22.827 -16.221  0.00  0.00    -0.279 N 
ATOM      9  C   UNL     1      33.538 -23.335 -17.373  0.00  0.00    +0.250 C 
ATOM     10  H   UNL     1      33.070 -21.872 -16.040  0.00  0.00    +0.155 HD
BRANCH   8  11
ATOM     11  C   UNL     1      32.101 -23.509 -15.287  0.00  0.00    +0.064 C 
ATOM     12  C   UNL     1      30.720 -23.450 -15.389  0.00  0.00    +0.055 C 
ATOM     13  C   UNL     1      32.719 -24.232 -14.278  0.00  0.00    +0.016 C 
ATOM     14  C   UNL     1      29.937 -24.131 -14.455  0.00  0.00    +0.015 C 
ATOM     15  C   UNL     1      31.935 -24.912 -13.346  0.00  0.00    +0.001 C 
ATOM     16  C   UNL     1      30.544 -24.861 -13.435  0.00  0.00    +0.001 C 
BRANCH  12  17
ATOM     17  N   UNL     1      30.083 -22.717 -16.415  0.00  0.00    -0.356 N 
ATOM     18  H   UNL     1      29.367 -22.080 -16.192  0.00  0.00    +0.142 HD
ATOM     19  H   UNL     1      30.356 -22.843 -17.352  0.00  0.00    +0.142 HD
ENDBRANCH  12  17
ENDBRANCH   8  11
ENDBRANCH   2   9
BRANCH   1  20
ATOM     20  C   UNL     1      36.720 -19.608 -20.351  0.00  0.00    +0.119 C 
BRANCH  20  22
ATOM     21  O   UNL     1      35.397 -18.785 -22.803  0.00  0.00    -0.226 OA
ATOM     22  N   UNL     1      36.011 -18.374 -20.605  0.00  0.00    -0.267 N 
ATOM     23  C   UNL     1      35.411 -18.070 -21.808  0.00  0.00    +0.402 C 
ATOM     24  H   UNL     1      35.954 -17.714 -19.876  0.00  0.00    +0.153 HD
BRANCH  23  25
ATOM     25  O   UNL     1      34.826 -16.837 -21.731  0.00  0.00    -0.430 OA
BRANCH  25  26
ATOM     26  C   UNL     1      35.471 -15.792 -22.468  0.00  0.00    +0.238 C 
BRANCH  26  28
ATOM     27  N   UNL     1      33.404 -15.691 -25.617  0.00  0.00    -0.243 NA
ATOM     28  C   UNL     1      34.537 -15.294 -23.532  0.00  0.00    +0.040 C 
ATOM     29  C   UNL     1      33.963 -14.039 -23.434  0.00  0.00    +0.002 C 
ATOM     30  C   UNL     1      34.235 -16.079 -24.624  0.00  0.00    +0.098 C 
ATOM     31  C   UNL     1      33.103 -13.605 -24.434  0.00  0.00    +0.020 C 
ATOM     32  C   UNL     1      32.857 -14.461 -25.496  0.00  0.00    +0.099 C 
ENDBRANCH  26  28
ENDBRANCH  25  26
ENDBRANCH  23  25
ENDBRANCH  20  22
ENDBRANCH   1  20
TORSDOF 8
ENDMDL
MODEL 5
REMARK VINA RESULT:     -10.8      2.957      3.745
REMARK  Name = 4261
REMARK  8 active torsions:
REMARK  status: ('A' for Active; 'I' for Inactive)
REMARK    1  A    between atoms: C_1  and  C_20
REMARK    2  A    between atoms: C_2  and  C_9
REMARK    3  A    between atoms: N_8  and  C_11
REMARK    4  A    between atoms: C_12  and  N_17
REMARK    5  A    between atoms: C_20  and  N_22
REMARK    6  A    between atoms: C_23  and  O_25
REMARK    7  A    between atoms: O_25  and  C_26
REMARK    8  A    between atoms: C_26  and  C_28
REMARK                            x       y       z     vdW  Elec       q    Type
REMARK                         _______ _______ _______ _____ _____    ______ ____
ROOT
ATOM      1  C   UNL     1      35.322 -20.993 -19.511  0.00  0.00    -0.002 C 
ATOM      2  C   UNL     1      35.502 -22.448 -17.148  0.00  0.00    +0.054 C 
ATOM      3  C   UNL     1      34.214 -21.694 -19.048  0.00  0.00    -0.002 C 
ATOM      4  C   UNL     1      36.519 -21.012 -18.804  0.00  0.00    -0.002 C 
ATOM      5  C   UNL     1      34.304 -22.423 -17.864  0.00  0.00    +0.004 C 
ATOM      6  C   UNL     1      36.609 -21.742 -17.619  0.00  0.00    +0.004 C 
ENDROOT
BRANCH   2   9
ATOM      7  O   UNL     1      34.695 -24.016 -15.632  0.00  0.00    -0.270 OA
ATOM      8  N   UNL     1      36.742 -22.980 -15.139  0.00  0.00    -0.279 N 
ATOM      9  C   UNL     1      35.596 -23.210 -15.914  0.00  0.00    +0.250 C 
ATOM     10  H   UNL     1      37.370 -22.309 -15.493  0.00  0.00    +0.155 HD
BRANCH   8  11
ATOM     11  C   UNL     1      37.115 -23.586 -13.915  0.00  0.00    +0.064 C 
ATOM     12  C   UNL     1      38.174 -24.478 -13.869  0.00  0.00    +0.055 C 
ATOM     13  C   UNL     1      36.395 -23.263 -12.775  0.00  0.00    +0.016 C 
ATOM     14  C   UNL     1      38.521 -25.063 -12.650  0.00  0.00    +0.015 C 
ATOM     15  C   UNL     1      36.743 -23.847 -11.557  0.00  0.00    +0.001 C 
ATOM     16  C   UNL     1      37.806 -24.748 -11.495  0.00  0.00    +0.001 C 
BRANCH  12  17
ATOM     17  N   UNL     1      38.912 -24.812 -15.026  0.00  0.00    -0.356 N 
ATOM     18  H   UNL     1      38.970 -24.173 -15.773  0.00  0.00    +0.142 HD
ATOM     19  H   UNL     1      39.368 -25.682 -15.085  0.00  0.00    +0.142 HD
ENDBRANCH  12  17
ENDBRANCH   8  11
ENDBRANCH   2   9
BRANCH   1  20
ATOM     20  C   UNL     1      35.225 -20.206 -20.785  0.00  0.00    +0.119 C 
BRANCH  20  22
ATOM     21  O   UNL     1      36.116 -17.955 -22.390  0.00  0.00    -0.226 OA
ATOM     22  N   UNL     1      35.006 -18.799 -20.537  0.00  0.00    -0.267 N 
ATOM     23  C   UNL     1      35.470 -17.796 -21.360  0.00  0.00    +0.402 C 
ATOM     24  H   UNL     1      34.496 -18.544 -19.734  0.00  0.00    +0.153 HD
BRANCH  23  25
ATOM     25  O   UNL     1      35.102 -16.580 -20.856  0.00  0.00    -0.430 OA
BRANCH  25  26
ATOM     26  C   UNL     1      35.026 -15.508 -21.803  0.00  0.00    +0.238 C 
BRANCH  26  28
ATOM     27  N   UNL     1      32.404 -12.811 -22.020  0.00  0.00    -0.243 NA
ATOM     28  C   UNL     1      33.909 -14.586 -21.410  0.00  0.00    +0.040 C 
ATOM     29  C   UNL     1      33.365 -14.641 -20.139  0.00  0.00    +0.002 C 
ATOM     30  C   UNL     1      33.407 -13.669 -22.309  0.00  0.00    +0.098 C 
ATOM     31  C   UNL     1      32.332 -13.775 -19.804  0.00  0.00    +0.020 C 
ATOM     32  C   UNL     1      31.890 -12.886 -20.771  0.00  0.00    +0.099 C 
ENDBRANCH  26  28
ENDBRANCH  25  26
ENDBRANCH  23  25
ENDBRANCH  20  22
ENDBRANCH   1  20
TORSDOF 8
ENDMDL
MODEL 6
REMARK VINA RESULT:     -10.7      1.890      2.816
REMARK  Name = 4261
REMARK  8 active torsions:
REMARK  status: ('A' for Active; 'I' for Inactive)
REMARK    1  A    between atoms: C_1  and  C_20
REMARK    2  A    between atoms: C_2  and  C_9
REMARK    3  A    between atoms: N_8  and  C_11
REMARK    4  A    between atoms: C_12  and  N_17
REMARK    5  A    between atoms: C_20  and  N_22
REMARK    6  A    between atoms: C_23  and  O_25
REMARK    7  A    between atoms: O_25  and  C_26
REMARK    8  A    between atoms: C_26  and  C_28
REMARK                            x       y       z     vdW  Elec       q    Type
REMARK                         _______ _______ _______ _____ _____    ______ ____
ROOT
ATOM      1  C   UNL     1      35.684 -19.445 -21.018  0.00  0.00    -0.002 C 
ATOM      2  C   UNL     1      35.159 -21.357 -19.069  0.00  0.00    +0.054 C 
ATOM      3  C   UNL     1      36.727 -19.944 -20.245  0.00  0.00    -0.002 C 
ATOM      4  C   UNL     1      34.382 -19.892 -20.826  0.00  0.00    -0.002 C 
ATOM      5  C   UNL     1      36.463 -20.903 -19.268  0.00  0.00    +0.004 C 
ATOM      6  C   UNL     1      34.118 -20.851 -19.849  0.00  0.00    +0.004 C 
ENDROOT
BRANCH   2   9
ATOM      7  O   UNL     1      34.149 -23.317 -18.328  0.00  0.00    -0.270 OA
ATOM      8  N   UNL     1      35.510 -22.153 -16.810  0.00  0.00    -0.279 N 
ATOM      9  C   UNL     1      34.884 -22.355 -18.049  0.00  0.00    +0.250 C 
ATOM     10  H   UNL     1      36.064 -21.343 -16.739  0.00  0.00    +0.155 HD
BRANCH   8  11
ATOM     11  C   UNL     1      35.449 -22.962 -15.650  0.00  0.00    +0.064 C 
ATOM     12  C   UNL     1      36.612 -23.445 -15.071  0.00  0.00    +0.055 C 
ATOM     13  C   UNL     1      34.204 -23.253 -15.115  0.00  0.00    +0.016 C 
ATOM     14  C   UNL     1      36.527 -24.241 -13.928  0.00  0.00    +0.015 C 
ATOM     15  C   UNL     1      34.119 -24.048 -13.972  0.00  0.00    +0.001 C 
ATOM     16  C   UNL     1      35.281 -24.542 -13.379  0.00  0.00    +0.001 C 
BRANCH  12  17
ATOM     17  N   UNL     1      37.885 -23.152 -15.610  0.00  0.00    -0.356 N 
ATOM     18  H   UNL     1      37.962 -22.566 -16.397  0.00  0.00    +0.142 HD
ATOM     19  H   UNL     1      38.693 -23.532 -15.198  0.00  0.00    +0.142 HD
ENDBRANCH  12  17
ENDBRANCH   8  11
ENDBRANCH   2   9
BRANCH   1  20
ATOM     20  C   UNL     1      35.968 -18.413 -22.071  0.00  0.00    +0.119 C 
BRANCH  20  22
ATOM     21  O   UNL     1      35.113 -16.272 -23.837  0.00  0.00    -0.226 OA
ATOM     22  N   UNL     1      35.460 -17.111 -21.703  0.00  0.00    -0.267 N 
ATOM     23  C   UNL     1      35.077 -16.154 -22.617  0.00  0.00    +0.402 C 
ATOM     24  H   UNL     1      35.384 -16.897 -20.745  0.00  0.00    +0.153 HD
BRANCH  23  25
ATOM     25  O   UNL     1      34.644 -15.037 -21.959  0.00  0.00    -0.430 OA
BRANCH  25  26
ATOM     26  C   UNL     1      34.140 -13.981 -22.786  0.00  0.00    +0.238 C 
BRANCH  26  28
ATOM     27  N   UNL     1      31.721 -11.239 -21.875  0.00  0.00    -0.243 NA
ATOM     28  C   UNL     1      33.210 -13.126 -21.975  0.00  0.00    +0.040 C 
ATOM     29  C   UNL     1      32.983 -13.405 -20.639  0.00  0.00    +0.002 C 
ATOM     30  C   UNL     1      32.569 -12.049 -22.548  0.00  0.00    +0.098 C 
ATOM     31  C   UNL     1      32.118 -12.595 -19.913  0.00  0.00    +0.020 C 
ATOM     32  C   UNL     1      31.517 -11.534 -20.571  0.00  0.00    +0.099 C 
ENDBRANCH  26  28
ENDBRANCH  25  26
ENDBRANCH  23  25
ENDBRANCH  20  22
ENDBRANCH   1  20
TORSDOF 8
ENDMDL
MODEL 7
REMARK VINA RESULT:     -10.7      3.123     11.212
REMARK  Name = 4261
REMARK  8 active torsions:
REMARK  status: ('A' for Active; 'I' for Inactive)
REMARK    1  A    between atoms: C_1  and  C_20
REMARK    2  A    between atoms: C_2  and  C_9
REMARK    3  A    between atoms: N_8  and  C_11
REMARK    4  A    between atoms: C_12  and  N_17
REMARK    5  A    between atoms: C_20  and  N_22
REMARK    6  A    between atoms: C_23  and  O_25
REMARK    7  A    between atoms: O_25  and  C_26
REMARK    8  A    between atoms: C_26  and  C_28
REMARK                            x       y       z     vdW  Elec       q    Type
REMARK                         _______ _______ _______ _____ _____    ______ ____
ROOT
ATOM      1  C   UNL     1      34.290 -15.218 -23.690  0.00  0.00    -0.002 C 
ATOM      2  C   UNL     1      33.017 -13.025 -22.549  0.00  0.00    +0.054 C 
ATOM      3  C   UNL     1      34.592 -14.850 -22.384  0.00  0.00    -0.002 C 
ATOM      4  C   UNL     1      33.358 -14.501 -24.431  0.00  0.00    -0.002 C 
ATOM      5  C   UNL     1      33.954 -13.751 -21.812  0.00  0.00    +0.004 C 
ATOM      6  C   UNL     1      32.719 -13.401 -23.859  0.00  0.00    +0.004 C 
ENDROOT
BRANCH   2   9
ATOM      7  O   UNL     1      31.485 -12.067 -21.085  0.00  0.00    -0.270 OA
ATOM      8  N   UNL     1      32.780 -10.621 -22.404  0.00  0.00    -0.279 N 
ATOM      9  C   UNL     1      32.353 -11.878 -21.953  0.00  0.00    +0.250 C 
ATOM     10  H   UNL     1      33.479 -10.630 -23.098  0.00  0.00    +0.155 HD
BRANCH   8  11
ATOM     11  C   UNL     1      32.339  -9.340 -21.993  0.00  0.00    +0.064 C 
ATOM     12  C   UNL     1      31.899  -8.417 -22.928  0.00  0.00    +0.055 C 
ATOM     13  C   UNL     1      32.360  -9.040 -20.639  0.00  0.00    +0.016 C 
ATOM     14  C   UNL     1      31.469  -7.161 -22.498  0.00  0.00    +0.015 C 
ATOM     15  C   UNL     1      31.930  -7.785 -20.210  0.00  0.00    +0.001 C 
ATOM     16  C   UNL     1      31.485  -6.845 -21.139  0.00  0.00    +0.001 C 
BRANCH  12  17
ATOM     17  N   UNL     1      31.873  -8.715 -24.309  0.00  0.00    -0.356 N 
ATOM     18  H   UNL     1      32.700  -8.989 -24.767  0.00  0.00    +0.142 HD
ATOM     19  H   UNL     1      31.030  -8.649 -24.811  0.00  0.00    +0.142 HD
ENDBRANCH  12  17
ENDBRANCH   8  11
ENDBRANCH   2   9
BRANCH   1  20
ATOM     20  C   UNL     1      34.976 -16.403 -24.306  0.00  0.00    +0.119 C 
BRANCH  20  22
ATOM     21  O   UNL     1      33.942 -19.117 -24.289  0.00  0.00    -0.226 OA
ATOM     22  N   UNL     1      35.233 -17.443 -23.336  0.00  0.00    -0.267 N 
ATOM     23  C   UNL     1      34.694 -18.709 -23.411  0.00  0.00    +0.402 C 
ATOM     24  H   UNL     1      35.827 -17.234 -22.578  0.00  0.00    +0.153 HD
BRANCH  23  25
ATOM     25  O   UNL     1      35.125 -19.457 -22.351  0.00  0.00    -0.430 OA
BRANCH  25  26
ATOM     26  C   UNL     1      34.693 -19.016 -21.058  0.00  0.00    +0.238 C 
BRANCH  26  28
ATOM     27  N   UNL     1      32.773 -21.674 -19.201  0.00  0.00    -0.243 NA
ATOM     28  C   UNL     1      34.403 -20.215 -20.204  0.00  0.00    +0.040 C 
ATOM     29  C   UNL     1      35.435 -20.948 -19.646  0.00  0.00    +0.002 C 
ATOM     30  C   UNL     1      33.103 -20.606 -19.960  0.00  0.00    +0.098 C 
ATOM     31  C   UNL     1      35.136 -22.054 -18.859  0.00  0.00    +0.020 C 
ATOM     32  C   UNL     1      33.801 -22.373 -18.668  0.00  0.00    +0.099 C 
ENDBRANCH  26  28
ENDBRANCH  25  26
ENDBRANCH  23  25
ENDBRANCH  20  22
ENDBRANCH   1  20
TORSDOF 8
ENDMDL
MODEL 8
REMARK VINA RESULT:     -10.6      2.583     10.438
REMARK  Name = 4261
REMARK  8 active torsions:
REMARK  status: ('A' for Active; 'I' for Inactive)
REMARK    1  A    between atoms: C_1  and  C_20
REMARK    2  A    between atoms: C_2  and  C_9
REMARK    3  A    between atoms: N_8  and  C_11
REMARK    4  A    between atoms: C_12  and  N_17
REMARK    5  A    between atoms: C_20  and  N_22
REMARK    6  A    between atoms: C_23  and  O_25
REMARK    7  A    between atoms: O_25  and  C_26
REMARK    8  A    between atoms: C_26  and  C_28
REMARK                            x       y       z     vdW  Elec       q    Type
REMARK                         _______ _______ _______ _____ _____    ______ ____
ROOT
ATOM      1  C   UNL     1      35.236 -17.600 -23.152  0.00  0.00    -0.002 C 
ATOM      2  C   UNL     1      34.038 -15.134 -23.614  0.00  0.00    +0.054 C 
ATOM      3  C   UNL     1      34.569 -17.373 -24.351  0.00  0.00    -0.002 C 
ATOM      4  C   UNL     1      35.310 -16.607 -22.182  0.00  0.00    -0.002 C 
ATOM      5  C   UNL     1      33.969 -16.136 -24.582  0.00  0.00    +0.004 C 
ATOM      6  C   UNL     1      34.710 -15.370 -22.413  0.00  0.00    +0.004 C 
ENDROOT
BRANCH   2   9
ATOM      7  O   UNL     1      32.853 -13.640 -24.944  0.00  0.00    -0.270 OA
ATOM      8  N   UNL     1      33.472 -12.927 -22.795  0.00  0.00    -0.279 N 
ATOM      9  C   UNL     1      33.411 -13.845 -23.855  0.00  0.00    +0.250 C 
ATOM     10  H   UNL     1      33.950 -13.234 -21.991  0.00  0.00    +0.155 HD
BRANCH   8  11
ATOM     11  C   UNL     1      32.935 -11.619 -22.731  0.00  0.00    +0.064 C 
ATOM     12  C   UNL     1      31.856 -11.344 -21.905  0.00  0.00    +0.055 C 
ATOM     13  C   UNL     1      33.514 -10.631 -23.511  0.00  0.00    +0.016 C 
ATOM     14  C   UNL     1      31.344 -10.047 -21.859  0.00  0.00    +0.015 C 
ATOM     15  C   UNL     1      33.003  -9.334 -23.465  0.00  0.00    +0.001 C 
ATOM     16  C   UNL     1      31.917  -9.043 -22.639  0.00  0.00    +0.001 C 
BRANCH  12  17
ATOM     17  N   UNL     1      31.261 -12.346 -21.106  0.00  0.00    -0.356 N 
ATOM     18  H   UNL     1      31.254 -12.253 -20.126  0.00  0.00    +0.142 HD
ATOM     19  H   UNL     1      30.853 -13.135 -21.530  0.00  0.00    +0.142 HD
ENDBRANCH  12  17
ENDBRANCH   8  11
ENDBRANCH   2   9
BRANCH   1  20
ATOM     20  C   UNL     1      35.884 -18.931 -22.904  0.00  0.00    +0.119 C 
BRANCH  20  22
ATOM     21  O   UNL     1      37.842 -18.972 -20.758  0.00  0.00    -0.226 OA
ATOM     22  N   UNL     1      35.697 -19.377 -21.542  0.00  0.00    -0.267 N 
ATOM     23  C   UNL     1      36.691 -19.359 -20.588  0.00  0.00    +0.402 C 
ATOM     24  H   UNL     1      34.808 -19.713 -21.282  0.00  0.00    +0.153 HD
BRANCH  23  25
ATOM     25  O   UNL     1      36.203 -19.842 -19.406  0.00  0.00    -0.430 OA
BRANCH  25  26
ATOM     26  C   UNL     1      36.428 -21.235 -19.159  0.00  0.00    +0.238 C 
BRANCH  26  28
ATOM     27  N   UNL     1      32.848 -22.243 -18.559  0.00  0.00    -0.243 NA
ATOM     28  C   UNL     1      35.215 -21.817 -18.495  0.00  0.00    +0.040 C 
ATOM     29  C   UNL     1      35.316 -22.439 -17.263  0.00  0.00    +0.002 C 
ATOM     30  C   UNL     1      33.979 -21.741 -19.102  0.00  0.00    +0.098 C 
ATOM     31  C   UNL     1      34.175 -22.968 -16.673  0.00  0.00    +0.020 C 
ATOM     32  C   UNL     1      32.975 -22.846 -17.355  0.00  0.00    +0.099 C 
ENDBRANCH  26  28
ENDBRANCH  25  26
ENDBRANCH  23  25
ENDBRANCH  20  22
ENDBRANCH   1  20
TORSDOF 8
ENDMDL
MODEL 9
REMARK VINA RESULT:     -10.6      3.303      5.649
REMARK  Name = 4261
REMARK  8 active torsions:
REMARK  status: ('A' for Active; 'I' for Inactive)
REMARK    1  A    between atoms: C_1  and  C_20
REMARK    2  A    between atoms: C_2  and  C_9
REMARK    3  A    between atoms: N_8  and  C_11
REMARK    4  A    between atoms: C_12  and  N_17
REMARK    5  A    between atoms: C_20  and  N_22
REMARK    6  A    between atoms: C_23  and  O_25
REMARK    7  A    between atoms: O_25  and  C_26
REMARK    8  A    between atoms: C_26  and  C_28
REMARK                            x       y       z     vdW  Elec       q    Type
REMARK                         _______ _______ _______ _____ _____    ______ ____
ROOT
ATOM      1  C   UNL     1      34.264 -15.277 -23.879  0.00  0.00    -0.002 C 
ATOM      2  C   UNL     1      35.219 -17.348 -22.288  0.00  0.00    +0.054 C 
ATOM      3  C   UNL     1      34.547 -15.040 -22.539  0.00  0.00    -0.002 C 
ATOM      4  C   UNL     1      34.453 -16.539 -24.432  0.00  0.00    -0.002 C 
ATOM      5  C   UNL     1      35.027 -16.079 -21.741  0.00  0.00    +0.004 C 
ATOM      6  C   UNL     1      34.932 -17.577 -23.634  0.00  0.00    +0.004 C 
ENDROOT
BRANCH   2   9
ATOM      7  O   UNL     1      36.943 -18.602 -21.358  0.00  0.00    -0.270 OA
ATOM      8  N   UNL     1      34.742 -19.194 -20.797  0.00  0.00    -0.279 N 
ATOM      9  C   UNL     1      35.717 -18.430 -21.456  0.00  0.00    +0.250 C 
ATOM     10  H   UNL     1      33.808 -18.938 -20.973  0.00  0.00    +0.155 HD
BRANCH   8  11
ATOM     11  C   UNL     1      34.926 -20.284 -19.912  0.00  0.00    +0.064 C 
ATOM     12  C   UNL     1      33.845 -21.052 -19.512  0.00  0.00    +0.055 C 
ATOM     13  C   UNL     1      36.209 -20.556 -19.462  0.00  0.00    +0.016 C 
ATOM     14  C   UNL     1      34.051 -22.120 -18.639  0.00  0.00    +0.015 C 
ATOM     15  C   UNL     1      36.415 -21.625 -18.589  0.00  0.00    +0.001 C 
ATOM     16  C   UNL     1      35.336 -22.406 -18.178  0.00  0.00    +0.001 C 
BRANCH  12  17
ATOM     17  N   UNL     1      32.535 -20.781 -19.967  0.00  0.00    -0.356 N 
ATOM     18  H   UNL     1      32.371 -20.621 -20.925  0.00  0.00    +0.142 HD
ATOM     19  H   UNL     1      31.788 -20.751 -19.328  0.00  0.00    +0.142 HD
ENDBRANCH  12  17
ENDBRANCH   8  11
ENDBRANCH   2   9
BRANCH   1  20
ATOM     20  C   UNL     1      33.749 -14.159 -24.738  0.00  0.00    +0.119 C 
BRANCH  20  22
ATOM     21  O   UNL     1      34.436 -11.414 -24.082  0.00  0.00    -0.226 OA
ATOM     22  N   UNL     1      32.970 -13.208 -23.979  0.00  0.00    -0.267 N 
ATOM     23  C   UNL     1      33.381 -11.919 -23.716  0.00  0.00    +0.402 C 
ATOM     24  H   UNL     1      32.096 -13.498 -23.629  0.00  0.00    +0.153 HD
BRANCH  23  25
ATOM     25  O   UNL     1      32.428 -11.274 -22.979  0.00  0.00    -0.430 OA
BRANCH  25  26
ATOM     26  C   UNL     1      32.044 -11.913 -21.756  0.00  0.00    +0.238 C 
BRANCH  26  28
ATOM     27  N   UNL     1      31.793  -8.547 -20.081  0.00  0.00    -0.243 NA
ATOM     28  C   UNL     1      31.910 -10.874 -20.681  0.00  0.00    +0.040 C 
ATOM     29  C   UNL     1      31.786 -11.246 -19.354  0.00  0.00    +0.002 C 
ATOM     30  C   UNL     1      31.909  -9.533 -20.999  0.00  0.00    +0.098 C 
ATOM     31  C   UNL     1      31.664 -10.262 -18.381  0.00  0.00    +0.020 C 
ATOM     32  C   UNL     1      31.673  -8.938 -18.792  0.00  0.00    +0.099 C 
ENDBRANCH  26  28
ENDBRANCH  25  26
ENDBRANCH  23  25
ENDBRANCH  20  22
ENDBRANCH   1  20
TORSDOF 8
ENDMDL
