MODEL 1
REMARK VINA RESULT:     -11.4      0.000      0.000
REMARK  Name = 42647297
REMARK  5 active torsions:
REMARK  status: ('A' for Active; 'I' for Inactive)
REMARK    1  A    between atoms: N_3  and  C_14
REMARK    2  A    between atoms: C_7  and  N_20
REMARK    3  A    between atoms: N_20  and  C_24
REMARK    4  A    between atoms: C_22  and  C_31
REMARK    5  A    between atoms: N_30  and  C_33
REMARK                            x       y       z     vdW  Elec       q    Type
REMARK                         _______ _______ _______ _____ _____    ______ ____
ROOT
ATOM      1  O   UNL     1      31.541 -13.438 -19.792  0.00  0.00    -0.269 OA
ATOM      2  N   UNL     1      32.061 -11.684 -21.250  0.00  0.00    -0.240 N 
ATOM      3  N   UNL     1      32.942 -10.175 -22.982  0.00  0.00    -0.174 N 
ATOM      4  N   UNL     1      33.847 -10.178 -23.983  0.00  0.00    -0.171 NA
ATOM      5  C   UNL     1      32.880 -11.362 -22.316  0.00  0.00    +0.133 C 
ATOM      6  C   UNL     1      33.795 -12.184 -22.915  0.00  0.00    +0.064 C 
ATOM      7  C   UNL     1      33.965 -13.512 -22.436  0.00  0.00    +0.057 C 
ATOM      8  C   UNL     1      33.199 -13.898 -21.394  0.00  0.00    +0.073 C 
ATOM      9  C   UNL     1      32.189 -12.985 -20.736  0.00  0.00    +0.255 C 
ATOM     10  C   UNL     1      34.367 -11.412 -23.936  0.00  0.00    +0.122 C 
ATOM     11  C   UNL     1      31.119 -10.726 -20.687  0.00  0.00    +0.122 C 
ENDROOT
BRANCH   3  14
ATOM     12  F   UNL     1      33.582  -8.442 -20.906  0.00  0.00    -0.203 F 
ATOM     13  F   UNL     1      30.064  -5.535 -22.147  0.00  0.00    -0.204 F 
ATOM     14  C   UNL     1      32.216  -9.003 -22.769  0.00  0.00    +0.103 C 
ATOM     15  C   UNL     1      32.558  -8.150 -21.720  0.00  0.00    +0.158 C 
ATOM     16  C   UNL     1      31.148  -8.686 -23.608  0.00  0.00    +0.021 C 
ATOM     17  C   UNL     1      31.830  -6.977 -21.511  0.00  0.00    +0.061 C 
ATOM     18  C   UNL     1      30.421  -7.514 -23.398  0.00  0.00    +0.031 C 
ATOM     19  C   UNL     1      30.762  -6.660 -22.349  0.00  0.00    +0.142 C 
ENDBRANCH   3  14
BRANCH   7  20
ATOM     20  N   UNL     1      34.879 -14.339 -23.029  0.00  0.00    -0.313 N 
ATOM     21  H   UNL     1      35.664 -13.898 -23.426  0.00  0.00    +0.152 HD
BRANCH  20  24
ATOM     22  C   UNL     1      35.386 -17.905 -22.240  0.00  0.00    +0.055 C 
ATOM     23  C   UNL     1      35.416 -16.514 -22.143  0.00  0.00    +0.019 C 
ATOM     24  C   UNL     1      34.840 -15.731 -23.142  0.00  0.00    +0.044 C 
ATOM     25  C   UNL     1      34.777 -18.514 -23.338  0.00  0.00    +0.004 C 
ATOM     26  C   UNL     1      34.230 -16.340 -24.240  0.00  0.00    -0.008 C 
ATOM     27  C   UNL     1      34.199 -17.731 -24.337  0.00  0.00    -0.003 C 
ATOM     28  C   UNL     1      33.603 -15.528 -25.326  0.00  0.00    +0.032 C 
BRANCH  22  31
ATOM     29  O   UNL     1      37.196 -18.607 -20.923  0.00  0.00    -0.270 OA
ATOM     30  N   UNL     1      35.155 -19.639 -20.545  0.00  0.00    -0.302 N 
ATOM     31  C   UNL     1      35.988 -18.721 -21.198  0.00  0.00    +0.246 C 
ATOM     32  H   UNL     1      34.208 -19.679 -20.809  0.00  0.00    +0.150 HD
BRANCH  30  33
ATOM     33  C   UNL     1      35.615 -20.524 -19.512  0.00  0.00    +0.072 C 
ATOM     34  C   UNL     1      36.018 -21.936 -19.821  0.00  0.00    +0.021 C 
ATOM     35  C   UNL     1      34.768 -21.667 -19.035  0.00  0.00    +0.021 C 
ENDBRANCH  30  33
ENDBRANCH  22  31
ENDBRANCH  20  24
ENDBRANCH   7  20
TORSDOF 5
ENDMDL
MODEL 2
REMARK VINA RESULT:     -11.2      2.609      4.319
REMARK  Name = 42647297
REMARK  5 active torsions:
REMARK  status: ('A' for Active; 'I' for Inactive)
REMARK    1  A    between atoms: N_3  and  C_14
REMARK    2  A    between atoms: C_7  and  N_20
REMARK    3  A    between atoms: N_20  and  C_24
REMARK    4  A    between atoms: C_22  and  C_31
REMARK    5  A    between atoms: N_30  and  C_33
REMARK                            x       y       z     vdW  Elec       q    Type
REMARK                         _______ _______ _______ _____ _____    ______ ____
ROOT
ATOM      1  O   UNL     1      36.071  -8.986 -23.813  0.00  0.00    -0.269 OA
ATOM      2  N   UNL     1      34.000  -7.916 -23.614  0.00  0.00    -0.240 N 
ATOM      3  N   UNL     1      31.645  -7.265 -23.322  0.00  0.00    -0.174 N 
ATOM      4  N   UNL     1      30.447  -7.831 -23.067  0.00  0.00    -0.171 NA
ATOM      5  C   UNL     1      32.662  -8.169 -23.375  0.00  0.00    +0.133 C 
ATOM      6  C   UNL     1      32.097  -9.393 -23.143  0.00  0.00    +0.064 C 
ATOM      7  C   UNL     1      32.916 -10.555 -23.134  0.00  0.00    +0.057 C 
ATOM      8  C   UNL     1      34.237 -10.385 -23.361  0.00  0.00    +0.073 C 
ATOM      9  C   UNL     1      34.855  -9.030 -23.618  0.00  0.00    +0.255 C 
ATOM     10  C   UNL     1      30.731  -9.136 -22.959  0.00  0.00    +0.122 C 
ATOM     11  C   UNL     1      34.495  -6.567 -23.852  0.00  0.00    +0.122 C 
ENDROOT
BRANCH   3  14
ATOM     12  F   UNL     1      32.099  -5.563 -21.173  0.00  0.00    -0.203 F 
ATOM     13  F   UNL     1      31.802  -1.786 -24.003  0.00  0.00    -0.204 F 
ATOM     14  C   UNL     1      31.684  -5.881 -23.491  0.00  0.00    +0.103 C 
ATOM     15  C   UNL     1      31.915  -5.048 -22.397  0.00  0.00    +0.158 C 
ATOM     16  C   UNL     1      31.494  -5.331 -24.759  0.00  0.00    +0.021 C 
ATOM     17  C   UNL     1      31.955  -3.664 -22.570  0.00  0.00    +0.061 C 
ATOM     18  C   UNL     1      31.533  -3.948 -24.932  0.00  0.00    +0.031 C 
ATOM     19  C   UNL     1      31.764  -3.114 -23.837  0.00  0.00    +0.142 C 
ENDBRANCH   3  14
BRANCH   7  20
ATOM     20  N   UNL     1      32.358 -11.783 -22.903  0.00  0.00    -0.313 N 
ATOM     21  H   UNL     1      31.581 -12.013 -23.462  0.00  0.00    +0.152 HD
BRANCH  20  24
ATOM     22  C   UNL     1      34.034 -14.731 -21.457  0.00  0.00    +0.055 C 
ATOM     23  C   UNL     1      33.631 -13.757 -22.370  0.00  0.00    +0.019 C 
ATOM     24  C   UNL     1      32.751 -12.751 -21.975  0.00  0.00    +0.044 C 
ATOM     25  C   UNL     1      33.555 -14.698 -20.146  0.00  0.00    +0.004 C 
ATOM     26  C   UNL     1      32.273 -12.717 -20.665  0.00  0.00    -0.008 C 
ATOM     27  C   UNL     1      32.675 -13.691 -19.751  0.00  0.00    -0.003 C 
ATOM     28  C   UNL     1      31.329 -11.651 -20.213  0.00  0.00    +0.032 C 
BRANCH  22  31
ATOM     29  O   UNL     1      35.578 -15.690 -22.939  0.00  0.00    -0.270 OA
ATOM     30  N   UNL     1      35.075 -16.889 -21.021  0.00  0.00    -0.302 N 
ATOM     31  C   UNL     1      34.951 -15.781 -21.869  0.00  0.00    +0.246 C 
ATOM     32  H   UNL     1      34.552 -16.899 -20.187  0.00  0.00    +0.150 HD
BRANCH  30  33
ATOM     33  C   UNL     1      35.926 -18.010 -21.307  0.00  0.00    +0.072 C 
ATOM     34  C   UNL     1      35.520 -19.060 -22.300  0.00  0.00    +0.021 C 
ATOM     35  C   UNL     1      35.575 -19.391 -20.837  0.00  0.00    +0.021 C 
ENDBRANCH  30  33
ENDBRANCH  22  31
ENDBRANCH  20  24
ENDBRANCH   7  20
TORSDOF 5
ENDMDL
MODEL 3
REMARK VINA RESULT:     -10.4      6.475     10.131
REMARK  Name = 42647297
REMARK  5 active torsions:
REMARK  status: ('A' for Active; 'I' for Inactive)
REMARK    1  A    between atoms: N_3  and  C_14
REMARK    2  A    between atoms: C_7  and  N_20
REMARK    3  A    between atoms: N_20  and  C_24
REMARK    4  A    between atoms: C_22  and  C_31
REMARK    5  A    between atoms: N_30  and  C_33
REMARK                            x       y       z     vdW  Elec       q    Type
REMARK                         _______ _______ _______ _____ _____    ______ ____
ROOT
ATOM      1  O   UNL     1      32.259 -22.100 -18.966  0.00  0.00    -0.269 OA
ATOM      2  N   UNL     1      33.889 -20.732 -19.939  0.00  0.00    -0.240 N 
ATOM      3  N   UNL     1      35.909 -19.492 -20.600  0.00  0.00    -0.174 N 
ATOM      4  N   UNL     1      37.201 -19.363 -20.233  0.00  0.00    -0.171 NA
ATOM      5  C   UNL     1      35.220 -20.375 -19.825  0.00  0.00    +0.133 C 
ATOM      6  C   UNL     1      36.111 -20.849 -18.901  0.00  0.00    +0.064 C 
ATOM      7  C   UNL     1      35.684 -21.803 -17.938  0.00  0.00    +0.057 C 
ATOM      8  C   UNL     1      34.394 -22.198 -17.986  0.00  0.00    +0.073 C 
ATOM      9  C   UNL     1      33.414 -21.672 -19.010  0.00  0.00    +0.255 C 
ATOM     10  C   UNL     1      37.318 -20.197 -19.191  0.00  0.00    +0.122 C 
ATOM     11  C   UNL     1      33.026 -20.162 -20.964  0.00  0.00    +0.122 C 
ENDROOT
BRANCH   3  14
ATOM     12  F   UNL     1      35.583 -16.741 -20.395  0.00  0.00    -0.203 F 
ATOM     13  F   UNL     1      34.153 -16.497 -24.897  0.00  0.00    -0.204 F 
ATOM     14  C   UNL     1      35.465 -18.734 -21.683  0.00  0.00    +0.103 C 
ATOM     15  C   UNL     1      35.310 -17.354 -21.555  0.00  0.00    +0.158 C 
ATOM     16  C   UNL     1      35.177 -19.359 -22.896  0.00  0.00    +0.021 C 
ATOM     17  C   UNL     1      34.867 -16.598 -22.642  0.00  0.00    +0.061 C 
ATOM     18  C   UNL     1      34.733 -18.604 -23.982  0.00  0.00    +0.031 C 
ATOM     19  C   UNL     1      34.579 -17.223 -23.854  0.00  0.00    +0.142 C 
ENDBRANCH   3  14
BRANCH   7  20
ATOM     20  N   UNL     1      36.569 -22.280 -17.009  0.00  0.00    -0.313 N 
ATOM     21  H   UNL     1      37.522 -22.169 -17.229  0.00  0.00    +0.152 HD
BRANCH  20  24
ATOM     22  C   UNL     1      34.677 -23.594 -14.131  0.00  0.00    +0.055 C 
ATOM     23  C   UNL     1      34.972 -22.975 -15.346  0.00  0.00    +0.019 C 
ATOM     24  C   UNL     1      36.292 -22.904 -15.791  0.00  0.00    +0.044 C 
ATOM     25  C   UNL     1      35.703 -24.144 -13.362  0.00  0.00    +0.004 C 
ATOM     26  C   UNL     1      37.317 -23.454 -15.022  0.00  0.00    -0.008 C 
ATOM     27  C   UNL     1      37.023 -24.074 -13.808  0.00  0.00    -0.003 C 
ATOM     28  C   UNL     1      38.740 -23.394 -15.474  0.00  0.00    +0.032 C 
BRANCH  22  31
ATOM     29  O   UNL     1      33.017 -24.282 -12.623  0.00  0.00    -0.270 OA
ATOM     30  N   UNL     1      32.328 -23.037 -14.452  0.00  0.00    -0.302 N 
ATOM     31  C   UNL     1      33.301 -23.667 -13.667  0.00  0.00    +0.246 C 
ATOM     32  H   UNL     1      32.619 -22.566 -15.266  0.00  0.00    +0.150 HD
BRANCH  30  33
ATOM     33  C   UNL     1      30.929 -23.043 -14.129  0.00  0.00    +0.072 C 
ATOM     34  C   UNL     1      30.056 -24.212 -14.481  0.00  0.00    +0.021 C 
ATOM     35  C   UNL     1      29.885 -22.906 -15.199  0.00  0.00    +0.021 C 
ENDBRANCH  30  33
ENDBRANCH  22  31
ENDBRANCH  20  24
ENDBRANCH   7  20
TORSDOF 5
ENDMDL
MODEL 4
REMARK VINA RESULT:     -10.0      2.890      4.823
REMARK  Name = 42647297
REMARK  5 active torsions:
REMARK  status: ('A' for Active; 'I' for Inactive)
REMARK    1  A    between atoms: N_3  and  C_14
REMARK    2  A    between atoms: C_7  and  N_20
REMARK    3  A    between atoms: N_20  and  C_24
REMARK    4  A    between atoms: C_22  and  C_31
REMARK    5  A    between atoms: N_30  and  C_33
REMARK                            x       y       z     vdW  Elec       q    Type
REMARK                         _______ _______ _______ _____ _____    ______ ____
ROOT
ATOM      1  O   UNL     1      33.292 -15.773 -25.992  0.00  0.00    -0.269 OA
ATOM      2  N   UNL     1      33.475 -14.953 -23.808  0.00  0.00    -0.240 N 
ATOM      3  N   UNL     1      33.951 -14.512 -21.435  0.00  0.00    -0.174 N 
ATOM      4  N   UNL     1      34.619 -15.066 -20.401  0.00  0.00    -0.171 NA
ATOM      5  C   UNL     1      34.040 -15.243 -22.581  0.00  0.00    +0.133 C 
ATOM      6  C   UNL     1      34.807 -16.335 -22.278  0.00  0.00    +0.064 C 
ATOM      7  C   UNL     1      35.085 -17.299 -23.285  0.00  0.00    +0.057 C 
ATOM      8  C   UNL     1      34.565 -17.082 -24.512  0.00  0.00    +0.073 C 
ATOM      9  C   UNL     1      33.717 -15.874 -24.840  0.00  0.00    +0.255 C 
ATOM     10  C   UNL     1      35.141 -16.183 -20.925  0.00  0.00    +0.122 C 
ATOM     11  C   UNL     1      32.670 -13.757 -24.020  0.00  0.00    +0.122 C 
ENDROOT
BRANCH   3  14
ATOM     12  F   UNL     1      32.088 -14.269 -19.388  0.00  0.00    -0.203 F 
ATOM     13  F   UNL     1      31.313  -9.744 -20.527  0.00  0.00    -0.204 F 
ATOM     14  C   UNL     1      33.283 -13.309 -21.204  0.00  0.00    +0.103 C 
ATOM     15  C   UNL     1      32.353 -13.213 -20.170  0.00  0.00    +0.158 C 
ATOM     16  C   UNL     1      33.548 -12.203 -22.010  0.00  0.00    +0.021 C 
ATOM     17  C   UNL     1      31.688 -12.007 -19.941  0.00  0.00    +0.061 C 
ATOM     18  C   UNL     1      32.883 -10.998 -21.782  0.00  0.00    +0.031 C 
ATOM     19  C   UNL     1      31.952 -10.901 -20.747  0.00  0.00    +0.142 C 
ENDBRANCH   3  14
BRANCH   7  20
ATOM     20  N   UNL     1      35.851 -18.394 -22.990  0.00  0.00    -0.313 N 
ATOM     21  H   UNL     1      36.402 -18.743 -23.727  0.00  0.00    +0.152 HD
BRANCH  20  24
ATOM     22  C   UNL     1      34.916 -20.455 -20.079  0.00  0.00    +0.055 C 
ATOM     23  C   UNL     1      34.837 -19.765 -21.289  0.00  0.00    +0.019 C 
ATOM     24  C   UNL     1      35.948 -19.079 -21.776  0.00  0.00    +0.044 C 
ATOM     25  C   UNL     1      36.110 -20.459 -19.356  0.00  0.00    +0.004 C 
ATOM     26  C   UNL     1      37.142 -19.084 -21.054  0.00  0.00    -0.008 C 
ATOM     27  C   UNL     1      37.223 -19.774 -19.845  0.00  0.00    -0.003 C 
ATOM     28  C   UNL     1      38.350 -18.360 -21.552  0.00  0.00    +0.032 C 
BRANCH  22  31
ATOM     29  O   UNL     1      32.615 -20.901 -19.986  0.00  0.00    -0.270 OA
ATOM     30  N   UNL     1      33.986 -22.143 -18.591  0.00  0.00    -0.302 N 
ATOM     31  C   UNL     1      33.756 -21.169 -19.570  0.00  0.00    +0.246 C 
ATOM     32  H   UNL     1      34.913 -22.308 -18.305  0.00  0.00    +0.150 HD
BRANCH  30  33
ATOM     33  C   UNL     1      32.937 -22.912 -17.982  0.00  0.00    +0.072 C 
ATOM     34  C   UNL     1      32.157 -22.377 -16.817  0.00  0.00    +0.021 C 
ATOM     35  C   UNL     1      33.109 -23.521 -16.621  0.00  0.00    +0.021 C 
ENDBRANCH  30  33
ENDBRANCH  22  31
ENDBRANCH  20  24
ENDBRANCH   7  20
TORSDOF 5
ENDMDL
MODEL 5
REMARK VINA RESULT:     -10.0      4.050     10.011
REMARK  Name = 42647297
REMARK  5 active torsions:
REMARK  status: ('A' for Active; 'I' for Inactive)
REMARK    1  A    between atoms: N_3  and  C_14
REMARK    2  A    between atoms: C_7  and  N_20
REMARK    3  A    between atoms: N_20  and  C_24
REMARK    4  A    between atoms: C_22  and  C_31
REMARK    5  A    between atoms: N_30  and  C_33
REMARK                            x       y       z     vdW  Elec       q    Type
REMARK                         _______ _______ _______ _____ _____    ______ ____
ROOT
ATOM      1  O   UNL     1      30.281 -10.900 -20.314  0.00  0.00    -0.269 OA
ATOM      2  N   UNL     1      31.958 -11.529 -21.818  0.00  0.00    -0.240 N 
ATOM      3  N   UNL     1      33.819 -11.686 -23.420  0.00  0.00    -0.174 N 
ATOM      4  N   UNL     1      34.693 -10.882 -24.061  0.00  0.00    -0.171 NA
ATOM      5  C   UNL     1      32.964 -11.004 -22.608  0.00  0.00    +0.133 C 
ATOM      6  C   UNL     1      33.298  -9.683 -22.726  0.00  0.00    +0.064 C 
ATOM      7  C   UNL     1      32.574  -8.707 -21.988  0.00  0.00    +0.057 C 
ATOM      8  C   UNL     1      31.574  -9.146 -21.194  0.00  0.00    +0.073 C 
ATOM      9  C   UNL     1      31.210 -10.607 -21.067  0.00  0.00    +0.255 C 
ATOM     10  C   UNL     1      34.368  -9.655 -23.632  0.00  0.00    +0.122 C 
ATOM     11  C   UNL     1      31.687 -12.959 -21.769  0.00  0.00    +0.122 C 
ENDROOT
BRANCH   3  14
ATOM     12  F   UNL     1      35.038 -13.399 -21.604  0.00  0.00    -0.203 F 
ATOM     13  F   UNL     1      34.140 -17.115 -24.388  0.00  0.00    -0.204 F 
ATOM     14  C   UNL     1      33.902 -13.057 -23.663  0.00  0.00    +0.103 C 
ATOM     15  C   UNL     1      34.518 -13.896 -22.735  0.00  0.00    +0.158 C 
ATOM     16  C   UNL     1      33.366 -13.588 -24.836  0.00  0.00    +0.021 C 
ATOM     17  C   UNL     1      34.598 -15.268 -22.981  0.00  0.00    +0.061 C 
ATOM     18  C   UNL     1      33.447 -14.959 -25.081  0.00  0.00    +0.031 C 
ATOM     19  C   UNL     1      34.063 -15.798 -24.153  0.00  0.00    +0.142 C 
ENDBRANCH   3  14
BRANCH   7  20
ATOM     20  N   UNL     1      32.901  -7.383 -22.102  0.00  0.00    -0.313 N 
ATOM     21  H   UNL     1      33.454  -7.014 -21.375  0.00  0.00    +0.152 HD
BRANCH  20  24
ATOM     22  C   UNL     1      33.061  -5.449 -25.237  0.00  0.00    +0.055 C 
ATOM     23  C   UNL     1      33.396  -6.337 -24.214  0.00  0.00    +0.019 C 
ATOM     24  C   UNL     1      32.550  -6.490 -23.117  0.00  0.00    +0.044 C 
ATOM     25  C   UNL     1      31.878  -4.714 -25.161  0.00  0.00    +0.004 C 
ATOM     26  C   UNL     1      31.366  -5.755 -23.042  0.00  0.00    -0.008 C 
ATOM     27  C   UNL     1      31.031  -4.867 -24.064  0.00  0.00    -0.003 C 
ATOM     28  C   UNL     1      30.440  -5.898 -21.878  0.00  0.00    +0.032 C 
BRANCH  22  31
ATOM     29  O   UNL     1      35.060  -4.755 -26.250  0.00  0.00    -0.270 OA
ATOM     30  N   UNL     1      33.473  -5.744 -27.619  0.00  0.00    -0.302 N 
ATOM     31  C   UNL     1      33.945  -5.290 -26.381  0.00  0.00    +0.246 C 
ATOM     32  H   UNL     1      32.582  -6.160 -27.654  0.00  0.00    +0.150 HD
BRANCH  30  33
ATOM     33  C   UNL     1      34.225  -5.634 -28.837  0.00  0.00    +0.072 C 
ATOM     34  C   UNL     1      33.957  -6.544 -30.000  0.00  0.00    +0.021 C 
ATOM     35  C   UNL     1      35.234  -6.677 -29.223  0.00  0.00    +0.021 C 
ENDBRANCH  30  33
ENDBRANCH  22  31
ENDBRANCH  20  24
ENDBRANCH   7  20
TORSDOF 5
ENDMDL
MODEL 6
REMARK VINA RESULT:     -10.0      6.645     10.594
REMARK  Name = 42647297
REMARK  5 active torsions:
REMARK  status: ('A' for Active; 'I' for Inactive)
REMARK    1  A    between atoms: N_3  and  C_14
REMARK    2  A    between atoms: C_7  and  N_20
REMARK    3  A    between atoms: N_20  and  C_24
REMARK    4  A    between atoms: C_22  and  C_31
REMARK    5  A    between atoms: N_30  and  C_33
REMARK                            x       y       z     vdW  Elec       q    Type
REMARK                         _______ _______ _______ _____ _____    ______ ____
ROOT
ATOM      1  O   UNL     1      37.684 -21.672 -17.849  0.00  0.00    -0.269 OA
ATOM      2  N   UNL     1      36.044 -20.691 -19.199  0.00  0.00    -0.240 N 
ATOM      3  N   UNL     1      34.002 -19.983 -20.375  0.00  0.00    -0.174 N 
ATOM      4  N   UNL     1      32.683 -20.266 -20.404  0.00  0.00    -0.171 NA
ATOM      5  C   UNL     1      34.690 -20.736 -19.472  0.00  0.00    +0.133 C 
ATOM      6  C   UNL     1      33.769 -21.558 -18.881  0.00  0.00    +0.064 C 
ATOM      7  C   UNL     1      34.188 -22.476 -17.879  0.00  0.00    +0.057 C 
ATOM      8  C   UNL     1      35.499 -22.489 -17.559  0.00  0.00    +0.073 C 
ATOM      9  C   UNL     1      36.512 -21.579 -18.216  0.00  0.00    +0.255 C 
ATOM     10  C   UNL     1      32.547 -21.233 -19.487  0.00  0.00    +0.122 C 
ATOM     11  C   UNL     1      36.938 -19.774 -19.893  0.00  0.00    +0.122 C 
ENDROOT
BRANCH   3  14
ATOM     12  F   UNL     1      34.657 -20.563 -23.012  0.00  0.00    -0.203 F 
ATOM     13  F   UNL     1      35.855 -16.054 -23.788  0.00  0.00    -0.204 F 
ATOM     14  C   UNL     1      34.472 -18.992 -21.238  0.00  0.00    +0.103 C 
ATOM     15  C   UNL     1      34.792 -19.309 -22.558  0.00  0.00    +0.158 C 
ATOM     16  C   UNL     1      34.617 -17.684 -20.779  0.00  0.00    +0.021 C 
ATOM     17  C   UNL     1      35.260 -18.315 -23.419  0.00  0.00    +0.061 C 
ATOM     18  C   UNL     1      35.085 -16.691 -21.640  0.00  0.00    +0.031 C 
ATOM     19  C   UNL     1      35.406 -17.007 -22.960  0.00  0.00    +0.142 C 
ENDBRANCH   3  14
BRANCH   7  20
ATOM     20  N   UNL     1      33.273 -23.301 -17.284  0.00  0.00    -0.313 N 
ATOM     21  H   UNL     1      32.780 -23.901 -17.889  0.00  0.00    +0.152 HD
BRANCH  20  24
ATOM     22  C   UNL     1      33.631 -23.886 -13.662  0.00  0.00    +0.055 C 
ATOM     23  C   UNL     1      33.935 -23.783 -15.019  0.00  0.00    +0.019 C 
ATOM     24  C   UNL     1      32.950 -23.400 -15.929  0.00  0.00    +0.044 C 
ATOM     25  C   UNL     1      32.339 -23.606 -13.214  0.00  0.00    +0.004 C 
ATOM     26  C   UNL     1      31.659 -23.118 -15.481  0.00  0.00    -0.008 C 
ATOM     27  C   UNL     1      31.354 -23.221 -14.124  0.00  0.00    -0.003 C 
ATOM     28  C   UNL     1      30.584 -22.705 -16.432  0.00  0.00    +0.032 C 
BRANCH  22  31
ATOM     29  O   UNL     1      34.624 -23.886 -11.536  0.00  0.00    -0.270 OA
ATOM     30  N   UNL     1      35.680 -25.116 -13.193  0.00  0.00    -0.302 N 
ATOM     31  C   UNL     1      34.658 -24.286 -12.714  0.00  0.00    +0.246 C 
ATOM     32  H   UNL     1      35.648 -25.399 -14.135  0.00  0.00    +0.150 HD
BRANCH  30  33
ATOM     33  C   UNL     1      36.770 -25.574 -12.378  0.00  0.00    +0.072 C 
ATOM     34  C   UNL     1      37.981 -24.718 -12.149  0.00  0.00    +0.021 C 
ATOM     35  C   UNL     1      38.086 -25.959 -12.987  0.00  0.00    +0.021 C 
ENDBRANCH  30  33
ENDBRANCH  22  31
ENDBRANCH  20  24
ENDBRANCH   7  20
TORSDOF 5
ENDMDL
MODEL 7
REMARK VINA RESULT:      -9.9      3.916     10.082
REMARK  Name = 42647297
REMARK  5 active torsions:
REMARK  status: ('A' for Active; 'I' for Inactive)
REMARK    1  A    between atoms: N_3  and  C_14
REMARK    2  A    between atoms: C_7  and  N_20
REMARK    3  A    between atoms: N_20  and  C_24
REMARK    4  A    between atoms: C_22  and  C_31
REMARK    5  A    between atoms: N_30  and  C_33
REMARK                            x       y       z     vdW  Elec       q    Type
REMARK                         _______ _______ _______ _____ _____    ______ ____
ROOT
ATOM      1  O   UNL     1      33.722 -16.061 -25.699  0.00  0.00    -0.269 OA
ATOM      2  N   UNL     1      34.341 -16.636 -23.518  0.00  0.00    -0.240 N 
ATOM      3  N   UNL     1      34.968 -16.734 -21.140  0.00  0.00    -0.174 N 
ATOM      4  N   UNL     1      35.163 -15.904 -20.094  0.00  0.00    -0.171 NA
ATOM      5  C   UNL     1      34.612 -16.080 -22.281  0.00  0.00    +0.133 C 
ATOM      6  C   UNL     1      34.574 -14.750 -21.963  0.00  0.00    +0.064 C 
ATOM      7  C   UNL     1      34.227 -13.799 -22.960  0.00  0.00    +0.057 C 
ATOM      8  C   UNL     1      33.949 -14.269 -24.196  0.00  0.00    +0.073 C 
ATOM      9  C   UNL     1      33.994 -15.740 -24.541  0.00  0.00    +0.255 C 
ATOM     10  C   UNL     1      34.921 -14.689 -20.606  0.00  0.00    +0.122 C 
ATOM     11  C   UNL     1      34.414 -18.073 -23.747  0.00  0.00    +0.122 C 
ENDROOT
BRANCH   3  14
ATOM     12  F   UNL     1      37.466 -17.919 -21.422  0.00  0.00    -0.203 F 
ATOM     13  F   UNL     1      35.675 -22.145 -20.281  0.00  0.00    -0.204 F 
ATOM     14  C   UNL     1      35.149 -18.100 -20.925  0.00  0.00    +0.103 C 
ATOM     15  C   UNL     1      36.413 -18.671 -21.072  0.00  0.00    +0.158 C 
ATOM     16  C   UNL     1      34.063 -18.895 -20.560  0.00  0.00    +0.021 C 
ATOM     17  C   UNL     1      36.590 -20.038 -20.854  0.00  0.00    +0.061 C 
ATOM     18  C   UNL     1      34.240 -20.261 -20.343  0.00  0.00    +0.031 C 
ATOM     19  C   UNL     1      35.504 -20.833 -20.490  0.00  0.00    +0.142 C 
ENDBRANCH   3  14
BRANCH   7  20
ATOM     20  N   UNL     1      34.187 -12.467 -22.650  0.00  0.00    -0.313 N 
ATOM     21  H   UNL     1      35.053 -12.050 -22.437  0.00  0.00    +0.152 HD
BRANCH  20  24
ATOM     22  C   UNL     1      31.975  -9.589 -23.294  0.00  0.00    +0.055 C 
ATOM     23  C   UNL     1      33.078 -10.442 -23.336  0.00  0.00    +0.019 C 
ATOM     24  C   UNL     1      33.075 -11.624 -22.596  0.00  0.00    +0.044 C 
ATOM     25  C   UNL     1      30.868  -9.919 -22.512  0.00  0.00    +0.004 C 
ATOM     26  C   UNL     1      31.967 -11.955 -21.815  0.00  0.00    -0.008 C 
ATOM     27  C   UNL     1      30.864 -11.102 -21.773  0.00  0.00    -0.003 C 
ATOM     28  C   UNL     1      31.935 -13.215 -21.013  0.00  0.00    +0.032 C 
BRANCH  22  31
ATOM     29  O   UNL     1      30.922  -7.903 -24.541  0.00  0.00    -0.270 OA
ATOM     30  N   UNL     1      33.215  -7.726 -24.254  0.00  0.00    -0.302 N 
ATOM     31  C   UNL     1      31.979  -8.356 -24.065  0.00  0.00    +0.246 C 
ATOM     32  H   UNL     1      34.014  -8.135 -23.850  0.00  0.00    +0.150 HD
BRANCH  30  33
ATOM     33  C   UNL     1      33.375  -6.515 -25.009  0.00  0.00    +0.072 C 
ATOM     34  C   UNL     1      34.603  -5.664 -24.861  0.00  0.00    +0.021 C 
ATOM     35  C   UNL     1      33.281  -5.170 -24.348  0.00  0.00    +0.021 C 
ENDBRANCH  30  33
ENDBRANCH  22  31
ENDBRANCH  20  24
ENDBRANCH   7  20
TORSDOF 5
ENDMDL
MODEL 8
REMARK VINA RESULT:      -9.7      2.240      3.428
REMARK  Name = 42647297
REMARK  5 active torsions:
REMARK  status: ('A' for Active; 'I' for Inactive)
REMARK    1  A    between atoms: N_3  and  C_14
REMARK    2  A    between atoms: C_7  and  N_20
REMARK    3  A    between atoms: N_20  and  C_24
REMARK    4  A    between atoms: C_22  and  C_31
REMARK    5  A    between atoms: N_30  and  C_33
REMARK                            x       y       z     vdW  Elec       q    Type
REMARK                         _______ _______ _______ _____ _____    ______ ____
ROOT
ATOM      1  O   UNL     1      32.320  -9.711 -17.976  0.00  0.00    -0.269 OA
ATOM      2  N   UNL     1      31.866  -8.512 -19.933  0.00  0.00    -0.240 N 
ATOM      3  N   UNL     1      31.367  -7.717 -22.208  0.00  0.00    -0.174 N 
ATOM      4  N   UNL     1      31.141  -8.213 -23.442  0.00  0.00    -0.171 NA
ATOM      5  C   UNL     1      31.602  -8.686 -21.279  0.00  0.00    +0.133 C 
ATOM      6  C   UNL     1      31.526  -9.879 -21.944  0.00  0.00    +0.064 C 
ATOM      7  C   UNL     1      31.728 -11.093 -21.234  0.00  0.00    +0.057 C 
ATOM      8  C   UNL     1      31.992 -11.002 -19.912  0.00  0.00    +0.073 C 
ATOM      9  C   UNL     1      32.075  -9.681 -19.183  0.00  0.00    +0.255 C 
ATOM     10  C   UNL     1      31.240  -9.538 -23.274  0.00  0.00    +0.122 C 
ATOM     11  C   UNL     1      31.925  -7.189 -19.326  0.00  0.00    +0.122 C 
ENDROOT
BRANCH   3  14
ATOM     12  F   UNL     1      33.624  -6.158 -22.651  0.00  0.00    -0.203 F 
ATOM     13  F   UNL     1      31.216  -2.231 -21.582  0.00  0.00    -0.204 F 
ATOM     14  C   UNL     1      31.332  -6.331 -22.049  0.00  0.00    +0.103 C 
ATOM     15  C   UNL     1      32.478  -5.571 -22.279  0.00  0.00    +0.158 C 
ATOM     16  C   UNL     1      30.146  -5.708 -21.663  0.00  0.00    +0.021 C 
ATOM     17  C   UNL     1      32.438  -4.185 -22.121  0.00  0.00    +0.061 C 
ATOM     18  C   UNL     1      30.107  -4.322 -21.504  0.00  0.00    +0.031 C 
ATOM     19  C   UNL     1      31.253  -3.561 -21.734  0.00  0.00    +0.142 C 
ENDBRANCH   3  14
BRANCH   7  20
ATOM     20  N   UNL     1      31.655 -12.290 -21.892  0.00  0.00    -0.313 N 
ATOM     21  H   UNL     1      30.748 -12.609 -22.102  0.00  0.00    +0.152 HD
BRANCH  20  24
ATOM     22  C   UNL     1      34.262 -14.895 -21.809  0.00  0.00    +0.055 C 
ATOM     23  C   UNL     1      33.216 -14.062 -21.415  0.00  0.00    +0.019 C 
ATOM     24  C   UNL     1      32.703 -13.117 -22.303  0.00  0.00    +0.044 C 
ATOM     25  C   UNL     1      34.797 -14.784 -23.093  0.00  0.00    +0.004 C 
ATOM     26  C   UNL     1      33.237 -13.006 -23.588  0.00  0.00    -0.008 C 
ATOM     27  C   UNL     1      34.284 -13.839 -23.982  0.00  0.00    -0.003 C 
ATOM     28  C   UNL     1      32.708 -12.004 -24.562  0.00  0.00    +0.032 C 
BRANCH  22  31
ATOM     29  O   UNL     1      34.808 -15.657 -19.658  0.00  0.00    -0.270 OA
ATOM     30  N   UNL     1      35.309 -17.062 -21.432  0.00  0.00    -0.302 N 
ATOM     31  C   UNL     1      34.798 -15.880 -20.882  0.00  0.00    +0.246 C 
ATOM     32  H   UNL     1      35.270 -17.177 -22.409  0.00  0.00    +0.150 HD
BRANCH  30  33
ATOM     33  C   UNL     1      35.887 -18.113 -20.643  0.00  0.00    +0.072 C 
ATOM     34  C   UNL     1      37.080 -18.883 -21.129  0.00  0.00    +0.021 C 
ATOM     35  C   UNL     1      35.740 -19.553 -21.040  0.00  0.00    +0.021 C 
ENDBRANCH  30  33
ENDBRANCH  22  31
ENDBRANCH  20  24
ENDBRANCH   7  20
TORSDOF 5
ENDMDL
MODEL 9
REMARK VINA RESULT:      -9.5      6.506     10.486
REMARK  Name = 42647297
REMARK  5 active torsions:
REMARK  status: ('A' for Active; 'I' for Inactive)
REMARK    1  A    between atoms: N_3  and  C_14
REMARK    2  A    between atoms: C_7  and  N_20
REMARK    3  A    between atoms: N_20  and  C_24
REMARK    4  A    between atoms: C_22  and  C_31
REMARK    5  A    between atoms: N_30  and  C_33
REMARK                            x       y       z     vdW  Elec       q    Type
REMARK                         _______ _______ _______ _____ _____    ______ ____
ROOT
ATOM      1  O   UNL     1      37.626 -21.541 -17.968  0.00  0.00    -0.269 OA
ATOM      2  N   UNL     1      36.008 -20.557 -19.343  0.00  0.00    -0.240 N 
ATOM      3  N   UNL     1      33.992 -19.863 -20.570  0.00  0.00    -0.174 N 
ATOM      4  N   UNL     1      32.684 -20.184 -20.662  0.00  0.00    -0.171 NA
ATOM      5  C   UNL     1      34.667 -20.632 -19.671  0.00  0.00    +0.133 C 
ATOM      6  C   UNL     1      33.751 -21.502 -19.148  0.00  0.00    +0.064 C 
ATOM      7  C   UNL     1      34.159 -22.446 -18.166  0.00  0.00    +0.057 C 
ATOM      8  C   UNL     1      35.458 -22.433 -17.795  0.00  0.00    +0.073 C 
ATOM      9  C   UNL     1      36.466 -21.469 -18.377  0.00  0.00    +0.255 C 
ATOM     10  C   UNL     1      32.544 -21.190 -19.788  0.00  0.00    +0.122 C 
ATOM     11  C   UNL     1      36.899 -19.587 -19.966  0.00  0.00    +0.122 C 
ENDROOT
BRANCH   3  14
ATOM     12  F   UNL     1      34.616 -20.288 -23.244  0.00  0.00    -0.203 F 
ATOM     13  F   UNL     1      35.851 -15.751 -23.755  0.00  0.00    -0.204 F 
ATOM     14  C   UNL     1      34.463 -18.827 -21.376  0.00  0.00    +0.103 C 
ATOM     15  C   UNL     1      34.768 -19.065 -22.715  0.00  0.00    +0.158 C 
ATOM     16  C   UNL     1      34.626 -17.550 -20.840  0.00  0.00    +0.021 C 
ATOM     17  C   UNL     1      35.237 -18.025 -23.519  0.00  0.00    +0.061 C 
ATOM     18  C   UNL     1      35.095 -16.511 -21.643  0.00  0.00    +0.031 C 
ATOM     19  C   UNL     1      35.401 -16.749 -22.983  0.00  0.00    +0.142 C 
ENDBRANCH   3  14
BRANCH   7  20
ATOM     20  N   UNL     1      33.248 -23.321 -17.639  0.00  0.00    -0.313 N 
ATOM     21  H   UNL     1      33.111 -24.153 -18.145  0.00  0.00    +0.152 HD
BRANCH  20  24
ATOM     22  C   UNL     1      30.349 -22.784 -15.426  0.00  0.00    +0.055 C 
ATOM     23  C   UNL     1      31.122 -22.926 -16.578  0.00  0.00    +0.019 C 
ATOM     24  C   UNL     1      32.489 -23.181 -16.475  0.00  0.00    +0.044 C 
ATOM     25  C   UNL     1      30.943 -22.898 -14.169  0.00  0.00    +0.004 C 
ATOM     26  C   UNL     1      33.083 -23.296 -15.218  0.00  0.00    -0.008 C 
ATOM     27  C   UNL     1      32.311 -23.155 -14.066  0.00  0.00    -0.003 C 
ATOM     28  C   UNL     1      34.546 -23.570 -15.076  0.00  0.00    +0.032 C 
BRANCH  22  31
ATOM     29  O   UNL     1      28.299 -22.017 -14.582  0.00  0.00    -0.270 OA
ATOM     30  N   UNL     1      28.299 -22.865 -16.739  0.00  0.00    -0.302 N 
ATOM     31  C   UNL     1      28.923 -22.517 -15.534  0.00  0.00    +0.246 C 
ATOM     32  H   UNL     1      28.850 -23.257 -17.454  0.00  0.00    +0.150 HD
BRANCH  30  33
ATOM     33  C   UNL     1      26.896 -22.679 -16.981  0.00  0.00    +0.072 C 
ATOM     34  C   UNL     1      26.402 -22.086 -18.269  0.00  0.00    +0.021 C 
ATOM     35  C   UNL     1      26.285 -21.308 -16.990  0.00  0.00    +0.021 C 
ENDBRANCH  30  33
ENDBRANCH  22  31
ENDBRANCH  20  24
ENDBRANCH   7  20
TORSDOF 5
ENDMDL
