MODEL 1
REMARK VINA RESULT:     -13.3      0.000      0.000
REMARK  Name = 5073
REMARK  4 active torsions:
REMARK  status: ('A' for Active; 'I' for Inactive)
REMARK    1  A    between atoms: N_1  and  C_18
REMARK    2  A    between atoms: C_2  and  C_11
REMARK    3  A    between atoms: C_18  and  C_19
REMARK    4  A    between atoms: C_19  and  C_23
REMARK                            x       y       z     vdW  Elec       q    Type
REMARK                         _______ _______ _______ _____ _____    ______ ____
ROOT
ATOM      1  N   UNL     1      35.846 -19.716 -20.022  0.00  0.00    +0.387 N 
ATOM      2  C   UNL     1      35.338 -18.499 -22.644  0.00  0.00    +0.039 C 
ATOM      3  C   UNL     1      34.283 -19.337 -21.904  0.00  0.00    -0.017 C 
ATOM      4  C   UNL     1      36.330 -17.899 -21.633  0.00  0.00    -0.017 C 
ATOM      5  C   UNL     1      34.938 -20.365 -20.979  0.00  0.00    -0.077 C 
ATOM      6  C   UNL     1      36.911 -18.980 -20.718  0.00  0.00    -0.077 C 
ATOM      7  H   UNL     1      35.303 -19.045 -19.479  0.00  0.00    -0.080 HD
ENDROOT
BRANCH   2  11
ATOM      8  F   UNL     1      33.542 -12.111 -23.734  0.00  0.00    -0.204 F 
ATOM      9  O   UNL     1      33.783 -16.647 -25.314  0.00  0.00    -0.354 OA
ATOM     10  N   UNL     1      34.273 -17.817 -24.749  0.00  0.00    -0.081 NA
ATOM     11  C   UNL     1      34.724 -17.455 -23.549  0.00  0.00    +0.100 A 
ATOM     12  C   UNL     1      34.556 -16.088 -23.288  0.00  0.00    +0.054 A 
ATOM     13  C   UNL     1      33.953 -15.616 -24.442  0.00  0.00    +0.179 A 
ATOM     14  C   UNL     1      34.829 -15.189 -22.246  0.00  0.00    +0.007 C 
ATOM     15  C   UNL     1      33.588 -14.289 -24.650  0.00  0.00    +0.070 C 
ATOM     16  C   UNL     1      34.474 -13.844 -22.422  0.00  0.00    +0.030 C 
ATOM     17  C   UNL     1      33.866 -13.405 -23.602  0.00  0.00    +0.143 C 
ENDBRANCH   2  11
BRANCH   1  18
ATOM     18  C   UNL     1      36.420 -20.705 -19.110  0.00  0.00    -0.076 C 
BRANCH  18  19
ATOM     19  C   UNL     1      35.626 -22.001 -19.187  0.00  0.00    -0.007 C 
BRANCH  19  23
ATOM     20  O   UNL     1      32.889 -22.407 -18.886  0.00  0.00    -0.274 OA
ATOM     21  N   UNL     1      32.983 -22.836 -16.599  0.00  0.00    -0.237 N 
ATOM     22  N   UNL     1      35.066 -22.720 -15.482  0.00  0.00    -0.399 NA
ATOM     23  C   UNL     1      35.018 -22.336 -17.856  0.00  0.00    +0.123 C 
ATOM     24  C   UNL     1      31.522 -22.948 -16.530  0.00  0.00    +0.100 C 
ATOM     25  C   UNL     1      30.996 -23.627 -15.279  0.00  0.00    +0.022 C 
ATOM     26  C   UNL     1      33.783 -22.897 -15.472  0.00  0.00    +0.165 C 
ATOM     27  C   UNL     1      31.659 -23.012 -14.065  0.00  0.00    +0.011 C 
ATOM     28  C   UNL     1      33.152 -23.260 -14.140  0.00  0.00    +0.075 C 
ATOM     29  C   UNL     1      33.534 -22.531 -17.845  0.00  0.00    +0.237 C 
ATOM     30  C   UNL     1      35.673 -22.444 -16.683  0.00  0.00    +0.096 C 
ATOM     31  C   UNL     1      37.168 -22.300 -16.565  0.00  0.00    +0.062 C 
ENDBRANCH  19  23
ENDBRANCH  18  19
ENDBRANCH   1  18
TORSDOF 4
ENDMDL
MODEL 2
REMARK VINA RESULT:     -12.9      4.459     10.077
REMARK  Name = 5073
REMARK  4 active torsions:
REMARK  status: ('A' for Active; 'I' for Inactive)
REMARK    1  A    between atoms: N_1  and  C_18
REMARK    2  A    between atoms: C_2  and  C_11
REMARK    3  A    between atoms: C_18  and  C_19
REMARK    4  A    between atoms: C_19  and  C_23
REMARK                            x       y       z     vdW  Elec       q    Type
REMARK                         _______ _______ _______ _____ _____    ______ ____
ROOT
ATOM      1  N   UNL     1      34.145 -15.125 -22.692  0.00  0.00    +0.387 N 
ATOM      2  C   UNL     1      35.862 -17.234 -21.590  0.00  0.00    +0.039 C 
ATOM      3  C   UNL     1      35.102 -16.237 -20.699  0.00  0.00    -0.017 C 
ATOM      4  C   UNL     1      35.145 -17.376 -22.942  0.00  0.00    -0.017 C 
ATOM      5  C   UNL     1      34.862 -14.913 -21.426  0.00  0.00    -0.077 C 
ATOM      6  C   UNL     1      34.902 -16.010 -23.588  0.00  0.00    -0.077 C 
ATOM      7  H   UNL     1      33.257 -15.579 -22.478  0.00  0.00    -0.080 HD
ENDROOT
BRANCH   2  11
ATOM      8  F   UNL     1      33.386 -22.869 -18.883  0.00  0.00    -0.204 F 
ATOM      9  O   UNL     1      37.211 -20.192 -20.038  0.00  0.00    -0.354 OA
ATOM     10  N   UNL     1      37.343 -18.954 -20.654  0.00  0.00    -0.081 NA
ATOM     11  C   UNL     1      36.096 -18.564 -20.910  0.00  0.00    +0.100 A 
ATOM     12  C   UNL     1      35.132 -19.492 -20.491  0.00  0.00    +0.054 A 
ATOM     13  C   UNL     1      35.891 -20.511 -19.942  0.00  0.00    +0.179 A 
ATOM     14  C   UNL     1      33.735 -19.612 -20.500  0.00  0.00    +0.007 C 
ATOM     15  C   UNL     1      35.361 -21.672 -19.386  0.00  0.00    +0.070 C 
ATOM     16  C   UNL     1      33.166 -20.769 -19.947  0.00  0.00    +0.030 C 
ATOM     17  C   UNL     1      33.966 -21.778 -19.402  0.00  0.00    +0.143 C 
ENDBRANCH   2  11
BRANCH   1  18
ATOM     18  C   UNL     1      33.872 -13.845 -23.346  0.00  0.00    -0.076 C 
BRANCH  18  19
ATOM     19  C   UNL     1      32.407 -13.475 -23.168  0.00  0.00    -0.007 C 
BRANCH  19  23
ATOM     20  O   UNL     1      32.533 -10.776 -23.836  0.00  0.00    -0.274 OA
ATOM     21  N   UNL     1      32.195  -9.999 -21.666  0.00  0.00    -0.237 N 
ATOM     22  N   UNL     1      31.970 -11.556 -19.898  0.00  0.00    -0.399 NA
ATOM     23  C   UNL     1      32.251 -12.397 -22.134  0.00  0.00    +0.123 C 
ATOM     24  C   UNL     1      32.360  -8.610 -22.106  0.00  0.00    +0.100 C 
ATOM     25  C   UNL     1      31.848  -7.569 -21.129  0.00  0.00    +0.022 C 
ATOM     26  C   UNL     1      32.036 -10.338 -20.334  0.00  0.00    +0.165 C 
ATOM     27  C   UNL     1      32.381  -7.881 -19.747  0.00  0.00    +0.011 C 
ATOM     28  C   UNL     1      31.856  -9.233 -19.310  0.00  0.00    +0.075 C 
ATOM     29  C   UNL     1      32.337 -10.991 -22.640  0.00  0.00    +0.237 C 
ATOM     30  C   UNL     1      32.075 -12.578 -20.811  0.00  0.00    +0.096 C 
ATOM     31  C   UNL     1      31.943 -13.941 -20.182  0.00  0.00    +0.062 C 
ENDBRANCH  19  23
ENDBRANCH  18  19
ENDBRANCH   1  18
TORSDOF 4
ENDMDL
MODEL 3
REMARK VINA RESULT:     -12.6      4.394      9.881
REMARK  Name = 5073
REMARK  4 active torsions:
REMARK  status: ('A' for Active; 'I' for Inactive)
REMARK    1  A    between atoms: N_1  and  C_18
REMARK    2  A    between atoms: C_2  and  C_11
REMARK    3  A    between atoms: C_18  and  C_19
REMARK    4  A    between atoms: C_19  and  C_23
REMARK                            x       y       z     vdW  Elec       q    Type
REMARK                         _______ _______ _______ _____ _____    ______ ____
ROOT
ATOM      1  N   UNL     1      34.126 -15.194 -22.847  0.00  0.00    +0.387 N 
ATOM      2  C   UNL     1      35.846 -17.244 -21.641  0.00  0.00    +0.039 C 
ATOM      3  C   UNL     1      35.074 -16.214 -20.800  0.00  0.00    -0.017 C 
ATOM      4  C   UNL     1      35.139 -17.448 -22.991  0.00  0.00    -0.017 C 
ATOM      5  C   UNL     1      34.832 -14.923 -21.586  0.00  0.00    -0.077 C 
ATOM      6  C   UNL     1      34.895 -16.113 -23.698  0.00  0.00    -0.077 C 
ATOM      7  H   UNL     1      33.239 -15.643 -22.619  0.00  0.00    -0.080 HD
ENDROOT
BRANCH   2  11
ATOM      8  F   UNL     1      33.391 -22.843 -18.844  0.00  0.00    -0.204 F 
ATOM      9  O   UNL     1      37.196 -20.106 -19.920  0.00  0.00    -0.354 OA
ATOM     10  N   UNL     1      37.325 -18.888 -20.575  0.00  0.00    -0.081 NA
ATOM     11  C   UNL     1      36.082 -18.541 -20.902  0.00  0.00    +0.100 A 
ATOM     12  C   UNL     1      35.124 -19.480 -20.494  0.00  0.00    +0.054 A 
ATOM     13  C   UNL     1      35.882 -20.458 -19.873  0.00  0.00    +0.179 A 
ATOM     14  C   UNL     1      33.732 -19.638 -20.562  0.00  0.00    +0.007 C 
ATOM     15  C   UNL     1      35.356 -21.612 -19.300  0.00  0.00    +0.070 C 
ATOM     16  C   UNL     1      33.167 -20.789 -19.993  0.00  0.00    +0.030 C 
ATOM     17  C   UNL     1      33.967 -21.756 -19.375  0.00  0.00    +0.143 C 
ENDBRANCH   2  11
BRANCH   1  18
ATOM     18  C   UNL     1      33.852 -13.946 -23.558  0.00  0.00    -0.076 C 
BRANCH  18  19
ATOM     19  C   UNL     1      32.417 -13.509 -23.301  0.00  0.00    -0.007 C 
BRANCH  19  23
ATOM     20  O   UNL     1      31.850 -13.478 -20.577  0.00  0.00    -0.274 OA
ATOM     21  N   UNL     1      32.028 -11.167 -20.345  0.00  0.00    -0.237 N 
ATOM     22  N   UNL     1      32.489  -9.842 -22.250  0.00  0.00    -0.399 NA
ATOM     23  C   UNL     1      32.379 -12.230 -22.517  0.00  0.00    +0.123 C 
ATOM     24  C   UNL     1      31.637 -11.250 -18.933  0.00  0.00    +0.100 C 
ATOM     25  C   UNL     1      31.957 -10.015 -18.113  0.00  0.00    +0.022 C 
ATOM     26  C   UNL     1      32.225  -9.958 -20.987  0.00  0.00    +0.165 C 
ATOM     27  C   UNL     1      31.468  -8.787 -18.852  0.00  0.00    +0.011 C 
ATOM     28  C   UNL     1      32.206  -8.679 -20.170  0.00  0.00    +0.075 C 
ATOM     29  C   UNL     1      32.064 -12.366 -21.060  0.00  0.00    +0.237 C 
ATOM     30  C   UNL     1      32.567 -10.988 -23.004  0.00  0.00    +0.096 C 
ATOM     31  C   UNL     1      32.918 -10.718 -24.444  0.00  0.00    +0.062 C 
ENDBRANCH  19  23
ENDBRANCH  18  19
ENDBRANCH   1  18
TORSDOF 4
ENDMDL
MODEL 4
REMARK VINA RESULT:     -12.6      3.481     10.148
REMARK  Name = 5073
REMARK  4 active torsions:
REMARK  status: ('A' for Active; 'I' for Inactive)
REMARK    1  A    between atoms: N_1  and  C_18
REMARK    2  A    between atoms: C_2  and  C_11
REMARK    3  A    between atoms: C_18  and  C_19
REMARK    4  A    between atoms: C_19  and  C_23
REMARK                            x       y       z     vdW  Elec       q    Type
REMARK                         _______ _______ _______ _____ _____    ______ ____
ROOT
ATOM      1  N   UNL     1      34.489 -20.458 -20.015  0.00  0.00    +0.387 N 
ATOM      2  C   UNL     1      34.204 -22.592 -18.022  0.00  0.00    +0.039 C 
ATOM      3  C   UNL     1      35.555 -21.924 -18.330  0.00  0.00    -0.017 C 
ATOM      4  C   UNL     1      33.056 -21.632 -18.374  0.00  0.00    -0.017 C 
ATOM      5  C   UNL     1      35.597 -21.391 -19.764  0.00  0.00    -0.077 C 
ATOM      6  C   UNL     1      33.189 -21.109 -19.806  0.00  0.00    -0.077 C 
ATOM      7  H   UNL     1      34.568 -19.690 -19.348  0.00  0.00    -0.080 HD
ENDROOT
BRANCH   2  11
ATOM      8  F   UNL     1      30.489 -24.135 -12.633  0.00  0.00    -0.204 F 
ATOM      9  O   UNL     1      34.815 -23.899 -14.721  0.00  0.00    -0.354 OA
ATOM     10  N   UNL     1      35.233 -23.484 -15.978  0.00  0.00    -0.081 NA
ATOM     11  C   UNL     1      34.119 -23.109 -16.604  0.00  0.00    +0.100 A 
ATOM     12  C   UNL     1      32.969 -23.258 -15.815  0.00  0.00    +0.054 A 
ATOM     13  C   UNL     1      33.464 -23.765 -14.625  0.00  0.00    +0.179 A 
ATOM     14  C   UNL     1      31.589 -23.039 -15.939  0.00  0.00    +0.007 C 
ATOM     15  C   UNL     1      32.680 -24.080 -13.519  0.00  0.00    +0.070 C 
ATOM     16  C   UNL     1      30.769 -23.344 -14.844  0.00  0.00    +0.030 C 
ATOM     17  C   UNL     1      31.306 -23.855 -13.658  0.00  0.00    +0.143 C 
ENDBRANCH   2  11
BRANCH   1  18
ATOM     18  C   UNL     1      34.577 -19.914 -21.370  0.00  0.00    -0.076 C 
BRANCH  18  19
ATOM     19  C   UNL     1      35.536 -18.732 -21.392  0.00  0.00    -0.007 C 
BRANCH  19  23
ATOM     20  O   UNL     1      35.215 -16.080 -20.613  0.00  0.00    -0.274 OA
ATOM     21  N   UNL     1      34.497 -15.327 -22.697  0.00  0.00    -0.237 N 
ATOM     22  N   UNL     1      34.256 -16.875 -24.470  0.00  0.00    -0.399 NA
ATOM     23  C   UNL     1      35.064 -17.679 -22.352  0.00  0.00    +0.123 C 
ATOM     24  C   UNL     1      34.280 -13.976 -22.167  0.00  0.00    +0.100 C 
ATOM     25  C   UNL     1      34.157 -12.893 -23.222  0.00  0.00    +0.022 C 
ATOM     26  C   UNL     1      34.157 -15.675 -23.992  0.00  0.00    +0.165 C 
ATOM     27  C   UNL     1      33.172 -13.341 -24.281  0.00  0.00    +0.011 C 
ATOM     28  C   UNL     1      33.705 -14.590 -24.952  0.00  0.00    +0.075 C 
ATOM     29  C   UNL     1      34.942 -16.295 -21.794  0.00  0.00    +0.237 C 
ATOM     30  C   UNL     1      34.715 -17.869 -23.639  0.00  0.00    +0.096 C 
ATOM     31  C   UNL     1      34.820 -19.205 -24.326  0.00  0.00    +0.062 C 
ENDBRANCH  19  23
ENDBRANCH  18  19
ENDBRANCH   1  18
TORSDOF 4
ENDMDL
MODEL 5
REMARK VINA RESULT:     -12.5      3.652      9.682
REMARK  Name = 5073
REMARK  4 active torsions:
REMARK  status: ('A' for Active; 'I' for Inactive)
REMARK    1  A    between atoms: N_1  and  C_18
REMARK    2  A    between atoms: C_2  and  C_11
REMARK    3  A    between atoms: C_18  and  C_19
REMARK    4  A    between atoms: C_19  and  C_23
REMARK                            x       y       z     vdW  Elec       q    Type
REMARK                         _______ _______ _______ _____ _____    ______ ____
ROOT
ATOM      1  N   UNL     1      34.998 -19.302 -20.669  0.00  0.00    +0.387 N 
ATOM      2  C   UNL     1      35.001 -21.685 -18.956  0.00  0.00    +0.039 C 
ATOM      3  C   UNL     1      36.234 -20.779 -19.114  0.00  0.00    -0.017 C 
ATOM      4  C   UNL     1      33.723 -20.882 -19.252  0.00  0.00    -0.017 C 
ATOM      5  C   UNL     1      36.234 -20.073 -20.472  0.00  0.00    -0.077 C 
ATOM      6  C   UNL     1      33.815 -20.172 -20.605  0.00  0.00    -0.077 C 
ATOM      7  H   UNL     1      34.929 -18.620 -19.914  0.00  0.00    -0.080 HD
ENDROOT
BRANCH   2  11
ATOM      8  F   UNL     1      31.414 -24.356 -13.935  0.00  0.00    -0.204 F 
ATOM      9  O   UNL     1      35.712 -23.300 -15.816  0.00  0.00    -0.354 OA
ATOM     10  N   UNL     1      36.097 -22.681 -16.997  0.00  0.00    -0.081 NA
ATOM     11  C   UNL     1      34.956 -22.381 -17.615  0.00  0.00    +0.100 A 
ATOM     12  C   UNL     1      33.821 -22.775 -16.893  0.00  0.00    +0.054 A 
ATOM     13  C   UNL     1      34.354 -23.356 -15.755  0.00  0.00    +0.179 A 
ATOM     14  C   UNL     1      32.427 -22.724 -17.042  0.00  0.00    +0.007 C 
ATOM     15  C   UNL     1      33.595 -23.905 -14.725  0.00  0.00    +0.070 C 
ATOM     16  C   UNL     1      31.631 -23.267 -16.023  0.00  0.00    +0.030 C 
ATOM     17  C   UNL     1      32.207 -23.847 -14.887  0.00  0.00    +0.143 C 
ENDBRANCH   2  11
BRANCH   1  18
ATOM     18  C   UNL     1      35.039 -18.588 -21.945  0.00  0.00    -0.076 C 
BRANCH  18  19
ATOM     19  C   UNL     1      35.808 -17.284 -21.783  0.00  0.00    -0.007 C 
BRANCH  19  23
ATOM     20  O   UNL     1      34.779 -15.712 -19.731  0.00  0.00    -0.274 OA
ATOM     21  N   UNL     1      33.621 -14.256 -21.133  0.00  0.00    -0.237 N 
ATOM     22  N   UNL     1      33.662 -14.619 -23.471  0.00  0.00    -0.399 NA
ATOM     23  C   UNL     1      34.924 -16.104 -22.061  0.00  0.00    +0.123 C 
ATOM     24  C   UNL     1      33.063 -13.542 -19.980  0.00  0.00    +0.100 C 
ATOM     25  C   UNL     1      32.487 -12.175 -20.297  0.00  0.00    +0.022 C 
ATOM     26  C   UNL     1      33.255 -13.959 -22.434  0.00  0.00    +0.165 C 
ATOM     27  C   UNL     1      31.570 -12.290 -21.497  0.00  0.00    +0.011 C 
ATOM     28  C   UNL     1      32.379 -12.747 -22.693  0.00  0.00    +0.075 C 
ATOM     29  C   UNL     1      34.448 -15.348 -20.859  0.00  0.00    +0.237 C 
ATOM     30  C   UNL     1      34.501 -15.689 -23.271  0.00  0.00    +0.096 C 
ATOM     31  C   UNL     1      34.931 -16.345 -24.557  0.00  0.00    +0.062 C 
ENDBRANCH  19  23
ENDBRANCH  18  19
ENDBRANCH   1  18
TORSDOF 4
ENDMDL
MODEL 6
REMARK VINA RESULT:     -12.4      3.672      9.633
REMARK  Name = 5073
REMARK  4 active torsions:
REMARK  status: ('A' for Active; 'I' for Inactive)
REMARK    1  A    between atoms: N_1  and  C_18
REMARK    2  A    between atoms: C_2  and  C_11
REMARK    3  A    between atoms: C_18  and  C_19
REMARK    4  A    between atoms: C_19  and  C_23
REMARK                            x       y       z     vdW  Elec       q    Type
REMARK                         _______ _______ _______ _____ _____    ______ ____
ROOT
ATOM      1  N   UNL     1      34.948 -19.252 -20.800  0.00  0.00    +0.387 N 
ATOM      2  C   UNL     1      34.736 -21.663 -19.142  0.00  0.00    +0.039 C 
ATOM      3  C   UNL     1      36.019 -20.818 -19.209  0.00  0.00    -0.017 C 
ATOM      4  C   UNL     1      33.519 -20.792 -19.492  0.00  0.00    -0.017 C 
ATOM      5  C   UNL     1      36.132 -20.087 -20.549  0.00  0.00    -0.077 C 
ATOM      6  C   UNL     1      33.723 -20.062 -20.822  0.00  0.00    -0.077 C 
ATOM      7  H   UNL     1      34.869 -18.582 -20.035  0.00  0.00    -0.080 HD
ENDROOT
BRANCH   2  11
ATOM      8  F   UNL     1      37.327 -23.530 -13.224  0.00  0.00    -0.204 F 
ATOM      9  O   UNL     1      33.612 -23.539 -16.279  0.00  0.00    -0.354 OA
ATOM     10  N   UNL     1      33.429 -22.989 -17.541  0.00  0.00    -0.081 NA
ATOM     11  C   UNL     1      34.580 -22.381 -17.820  0.00  0.00    +0.100 A 
ATOM     12  C   UNL     1      35.529 -22.502 -16.795  0.00  0.00    +0.054 A 
ATOM     13  C   UNL     1      34.865 -23.247 -15.835  0.00  0.00    +0.179 A 
ATOM     14  C   UNL     1      36.845 -22.087 -16.545  0.00  0.00    +0.007 C 
ATOM     15  C   UNL     1      35.418 -23.624 -14.614  0.00  0.00    +0.070 C 
ATOM     16  C   UNL     1      37.434 -22.450 -15.325  0.00  0.00    +0.030 C 
ATOM     17  C   UNL     1      36.731 -23.204 -14.379  0.00  0.00    +0.143 C 
ENDBRANCH   2  11
BRANCH   1  18
ATOM     18  C   UNL     1      35.098 -18.517 -22.056  0.00  0.00    -0.076 C 
BRANCH  18  19
ATOM     19  C   UNL     1      35.821 -17.201 -21.802  0.00  0.00    -0.007 C 
BRANCH  19  23
ATOM     20  O   UNL     1      34.760 -15.694 -19.717  0.00  0.00    -0.274 OA
ATOM     21  N   UNL     1      33.570 -14.234 -21.088  0.00  0.00    -0.237 N 
ATOM     22  N   UNL     1      33.616 -14.548 -23.433  0.00  0.00    -0.399 NA
ATOM     23  C   UNL     1      34.911 -16.034 -22.054  0.00  0.00    +0.123 C 
ATOM     24  C   UNL     1      32.997 -13.557 -19.920  0.00  0.00    +0.100 C 
ATOM     25  C   UNL     1      32.392 -12.196 -20.209  0.00  0.00    +0.022 C 
ATOM     26  C   UNL     1      33.196 -13.918 -22.382  0.00  0.00    +0.165 C 
ATOM     27  C   UNL     1      31.477 -12.305 -21.411  0.00  0.00    +0.011 C 
ATOM     28  C   UNL     1      32.294 -12.720 -22.616  0.00  0.00    +0.075 C 
ATOM     29  C   UNL     1      34.419 -15.314 -20.838  0.00  0.00    +0.237 C 
ATOM     30  C   UNL     1      34.478 -15.604 -23.256  0.00  0.00    +0.096 C 
ATOM     31  C   UNL     1      34.921 -16.223 -24.555  0.00  0.00    +0.062 C 
ENDBRANCH  19  23
ENDBRANCH  18  19
ENDBRANCH   1  18
TORSDOF 4
ENDMDL
MODEL 7
REMARK VINA RESULT:     -12.3      3.598      9.487
REMARK  Name = 5073
REMARK  4 active torsions:
REMARK  status: ('A' for Active; 'I' for Inactive)
REMARK    1  A    between atoms: N_1  and  C_18
REMARK    2  A    between atoms: C_2  and  C_11
REMARK    3  A    between atoms: C_18  and  C_19
REMARK    4  A    between atoms: C_19  and  C_23
REMARK                            x       y       z     vdW  Elec       q    Type
REMARK                         _______ _______ _______ _____ _____    ______ ____
ROOT
ATOM      1  N   UNL     1      34.965 -18.283 -22.092  0.00  0.00    +0.387 N 
ATOM      2  C   UNL     1      35.780 -20.407 -20.239  0.00  0.00    +0.039 C 
ATOM      3  C   UNL     1      36.664 -19.183 -20.532  0.00  0.00    -0.017 C 
ATOM      4  C   UNL     1      34.305 -20.060 -20.500  0.00  0.00    -0.017 C 
ATOM      5  C   UNL     1      36.387 -18.619 -21.927  0.00  0.00    -0.077 C 
ATOM      6  C   UNL     1      34.115 -19.465 -21.897  0.00  0.00    -0.077 C 
ATOM      7  H   UNL     1      34.720 -17.597 -21.377  0.00  0.00    -0.080 HD
ENDROOT
BRANCH   2  11
ATOM      8  F   UNL     1      33.722 -24.310 -15.165  0.00  0.00    -0.204 F 
ATOM      9  O   UNL     1      37.019 -21.315 -16.980  0.00  0.00    -0.354 OA
ATOM     10  N   UNL     1      37.111 -20.636 -18.187  0.00  0.00    -0.081 NA
ATOM     11  C   UNL     1      36.011 -20.975 -18.857  0.00  0.00    +0.100 A 
ATOM     12  C   UNL     1      35.185 -21.857 -18.146  0.00  0.00    +0.054 A 
ATOM     13  C   UNL     1      35.869 -22.044 -16.957  0.00  0.00    +0.179 A 
ATOM     14  C   UNL     1      33.963 -22.519 -18.339  0.00  0.00    +0.007 C 
ATOM     15  C   UNL     1      35.428 -22.857 -15.917  0.00  0.00    +0.070 C 
ATOM     16  C   UNL     1      33.488 -23.346 -17.311  0.00  0.00    +0.030 C 
ATOM     17  C   UNL     1      34.208 -23.511 -16.124  0.00  0.00    +0.143 C 
ENDBRANCH   2  11
BRANCH   1  18
ATOM     18  C   UNL     1      34.729 -17.693 -23.409  0.00  0.00    -0.076 C 
BRANCH  18  19
ATOM     19  C   UNL     1      35.390 -16.324 -23.489  0.00  0.00    -0.007 C 
BRANCH  19  23
ATOM     20  O   UNL     1      34.966 -15.439 -20.885  0.00  0.00    -0.274 OA
ATOM     21  N   UNL     1      33.361 -13.849 -21.455  0.00  0.00    -0.237 N 
ATOM     22  N   UNL     1      32.698 -13.630 -23.716  0.00  0.00    -0.399 NA
ATOM     23  C   UNL     1      34.405 -15.236 -23.176  0.00  0.00    +0.123 C 
ATOM     24  C   UNL     1      33.151 -13.513 -20.043  0.00  0.00    +0.100 C 
ATOM     25  C   UNL     1      32.437 -12.196 -19.804  0.00  0.00    +0.022 C 
ATOM     26  C   UNL     1      32.598 -13.297 -22.468  0.00  0.00    +0.165 C 
ATOM     27  C   UNL     1      31.202 -12.134 -20.678  0.00  0.00    +0.011 C 
ATOM     28  C   UNL     1      31.626 -12.181 -22.132  0.00  0.00    +0.075 C 
ATOM     29  C   UNL     1      34.285 -14.860 -21.732  0.00  0.00    +0.237 C 
ATOM     30  C   UNL     1      33.610 -14.599 -24.058  0.00  0.00    +0.096 C 
ATOM     31  C   UNL     1      33.656 -14.864 -25.540  0.00  0.00    +0.062 C 
ENDBRANCH  19  23
ENDBRANCH  18  19
ENDBRANCH   1  18
TORSDOF 4
ENDMDL
MODEL 8
REMARK VINA RESULT:     -12.2      2.493      3.459
REMARK  Name = 5073
REMARK  4 active torsions:
REMARK  status: ('A' for Active; 'I' for Inactive)
REMARK    1  A    between atoms: N_1  and  C_18
REMARK    2  A    between atoms: C_2  and  C_11
REMARK    3  A    between atoms: C_18  and  C_19
REMARK    4  A    between atoms: C_19  and  C_23
REMARK                            x       y       z     vdW  Elec       q    Type
REMARK                         _______ _______ _______ _____ _____    ______ ____
ROOT
ATOM      1  N   UNL     1      36.134 -20.455 -19.149  0.00  0.00    +0.387 N 
ATOM      2  C   UNL     1      35.622 -18.999 -21.644  0.00  0.00    +0.039 C 
ATOM      3  C   UNL     1      34.489 -19.523 -20.746  0.00  0.00    -0.017 C 
ATOM      4  C   UNL     1      36.893 -18.780 -20.806  0.00  0.00    -0.017 C 
ATOM      5  C   UNL     1      34.936 -20.749 -19.947  0.00  0.00    -0.077 C 
ATOM      6  C   UNL     1      37.252 -20.034 -20.005  0.00  0.00    -0.077 C 
ATOM      7  H   UNL     1      35.911 -19.684 -18.520  0.00  0.00    -0.080 HD
ENDROOT
BRANCH   2  11
ATOM      8  F   UNL     1      33.850 -12.514 -21.753  0.00  0.00    -0.204 F 
ATOM      9  O   UNL     1      34.754 -16.575 -24.164  0.00  0.00    -0.354 OA
ATOM     10  N   UNL     1      35.134 -17.848 -23.758  0.00  0.00    -0.081 NA
ATOM     11  C   UNL     1      35.222 -17.771 -22.431  0.00  0.00    +0.100 A 
ATOM     12  C   UNL     1      34.917 -16.497 -21.932  0.00  0.00    +0.054 A 
ATOM     13  C   UNL     1      34.625 -15.771 -23.074  0.00  0.00    +0.179 A 
ATOM     14  C   UNL     1      34.847 -15.861 -20.684  0.00  0.00    +0.007 C 
ATOM     15  C   UNL     1      34.260 -14.428 -23.077  0.00  0.00    +0.070 C 
ATOM     16  C   UNL     1      34.481 -14.507 -20.650  0.00  0.00    +0.030 C 
ATOM     17  C   UNL     1      34.195 -13.806 -21.826  0.00  0.00    +0.143 C 
ENDBRANCH   2  11
BRANCH   1  18
ATOM     18  C   UNL     1      36.514 -21.619 -18.348  0.00  0.00    -0.076 C 
BRANCH  18  19
ATOM     19  C   UNL     1      36.325 -21.313 -16.869  0.00  0.00    -0.007 C 
BRANCH  19  23
ATOM     20  O   UNL     1      38.553 -22.392 -15.598  0.00  0.00    -0.274 OA
ATOM     21  N   UNL     1      37.426 -24.222 -14.700  0.00  0.00    -0.237 N 
ATOM     22  N   UNL     1      35.127 -24.517 -15.177  0.00  0.00    -0.399 NA
ATOM     23  C   UNL     1      36.241 -22.580 -16.068  0.00  0.00    +0.123 C 
ATOM     24  C   UNL     1      38.673 -24.752 -14.139  0.00  0.00    +0.100 C 
ATOM     25  C   UNL     1      38.488 -25.805 -13.063  0.00  0.00    +0.022 C 
ATOM     26  C   UNL     1      36.229 -24.912 -14.624  0.00  0.00    +0.165 C 
ATOM     27  C   UNL     1      37.500 -26.845 -13.550  0.00  0.00    +0.011 C 
ATOM     28  C   UNL     1      36.161 -26.178 -13.789  0.00  0.00    +0.075 C 
ATOM     29  C   UNL     1      37.519 -23.039 -15.437  0.00  0.00    +0.237 C 
ATOM     30  C   UNL     1      35.146 -23.344 -15.894  0.00  0.00    +0.096 C 
ATOM     31  C   UNL     1      33.795 -22.977 -16.452  0.00  0.00    +0.062 C 
ENDBRANCH  19  23
ENDBRANCH  18  19
ENDBRANCH   1  18
TORSDOF 4
ENDMDL
MODEL 9
REMARK VINA RESULT:     -11.9      3.887     10.260
REMARK  Name = 5073
REMARK  4 active torsions:
REMARK  status: ('A' for Active; 'I' for Inactive)
REMARK    1  A    between atoms: N_1  and  C_18
REMARK    2  A    between atoms: C_2  and  C_11
REMARK    3  A    between atoms: C_18  and  C_19
REMARK    4  A    between atoms: C_19  and  C_23
REMARK                            x       y       z     vdW  Elec       q    Type
REMARK                         _______ _______ _______ _____ _____    ______ ____
ROOT
ATOM      1  N   UNL     1      34.856 -20.460 -19.558  0.00  0.00    +0.387 N 
ATOM      2  C   UNL     1      36.083 -22.227 -17.562  0.00  0.00    +0.039 C 
ATOM      3  C   UNL     1      36.753 -20.928 -18.038  0.00  0.00    -0.017 C 
ATOM      4  C   UNL     1      34.560 -22.129 -17.753  0.00  0.00    -0.017 C 
ATOM      5  C   UNL     1      36.319 -20.567 -19.460  0.00  0.00    -0.077 C 
ATOM      6  C   UNL     1      34.206 -21.725 -19.187  0.00  0.00    -0.077 C 
ATOM      7  H   UNL     1      34.549 -19.743 -18.900  0.00  0.00    -0.080 HD
ENDROOT
BRANCH   2  11
ATOM      8  F   UNL     1      34.442 -24.931 -11.628  0.00  0.00    -0.204 F 
ATOM      9  O   UNL     1      37.731 -22.792 -14.409  0.00  0.00    -0.354 OA
ATOM     10  N   UNL     1      37.702 -22.332 -15.719  0.00  0.00    -0.081 NA
ATOM     11  C   UNL     1      36.471 -22.601 -16.149  0.00  0.00    +0.100 A 
ATOM     12  C   UNL     1      35.674 -23.225 -15.180  0.00  0.00    +0.054 A 
ATOM     13  C   UNL     1      36.521 -23.325 -14.089  0.00  0.00    +0.179 A 
ATOM     14  C   UNL     1      34.364 -23.716 -15.072  0.00  0.00    +0.007 C 
ATOM     15  C   UNL     1      36.164 -23.889 -12.868  0.00  0.00    +0.070 C 
ATOM     16  C   UNL     1      33.970 -24.290 -13.854  0.00  0.00    +0.030 C 
ATOM     17  C   UNL     1      34.855 -24.375 -12.775  0.00  0.00    +0.143 C 
ENDBRANCH   2  11
BRANCH   1  18
ATOM     18  C   UNL     1      34.462 -20.059 -20.908  0.00  0.00    -0.076 C 
BRANCH  18  19
ATOM     19  C   UNL     1      35.617 -19.343 -21.593  0.00  0.00    -0.007 C 
BRANCH  19  23
ATOM     20  O   UNL     1      35.407 -16.691 -20.776  0.00  0.00    -0.274 OA
ATOM     21  N   UNL     1      34.579 -15.904 -22.806  0.00  0.00    -0.237 N 
ATOM     22  N   UNL     1      34.193 -17.431 -24.572  0.00  0.00    -0.399 NA
ATOM     23  C   UNL     1      35.112 -18.271 -22.514  0.00  0.00    +0.123 C 
ATOM     24  C   UNL     1      34.427 -14.554 -22.254  0.00  0.00    +0.100 C 
ATOM     25  C   UNL     1      34.263 -13.459 -23.291  0.00  0.00    +0.022 C 
ATOM     26  C   UNL     1      34.152 -16.234 -24.080  0.00  0.00    +0.165 C 
ATOM     27  C   UNL     1      33.205 -13.876 -24.291  0.00  0.00    +0.011 C 
ATOM     28  C   UNL     1      33.666 -15.131 -25.003  0.00  0.00    +0.075 C 
ATOM     29  C   UNL     1      35.056 -16.890 -21.940  0.00  0.00    +0.237 C 
ATOM     30  C   UNL     1      34.680 -18.442 -23.779  0.00  0.00    +0.096 C 
ATOM     31  C   UNL     1      34.711 -19.774 -24.481  0.00  0.00    +0.062 C 
ENDBRANCH  19  23
ENDBRANCH  18  19
ENDBRANCH   1  18
TORSDOF 4
ENDMDL
