MODEL 1
REMARK VINA RESULT:     -11.7      0.000      0.000
REMARK  Name = 25065981
REMARK  7 active torsions:
REMARK  status: ('A' for Active; 'I' for Inactive)
REMARK    1  A    between atoms: C_1  and  C_3
REMARK    2  A    between atoms: C_1  and  C_16
REMARK    3  A    between atoms: C_11  and  O_13
REMARK    4  A    between atoms: C_16  and  O_17
REMARK    5  A    between atoms: O_17  and  C_18
REMARK    6  A    between atoms: C_21  and  C_25
REMARK    7  A    between atoms: C_25  and  N_26
REMARK                            x       y       z     vdW  Elec       q    Type
REMARK                         _______ _______ _______ _____ _____    ______ ____
ROOT
ATOM      1  C   UNL     1      35.560 -17.413 -22.577  0.00  0.00    +0.122 C 
ATOM      2  C   UNL     1      34.601 -17.714 -23.747  0.00  0.00    +0.016 C 
ENDROOT
BRANCH   1   3
ATOM      3  C   UNL     1      35.625 -18.510 -21.570  0.00  0.00    -0.012 C 
ATOM      4  C   UNL     1      34.502 -20.202 -20.230  0.00  0.00    -0.000 C 
ATOM      5  C   UNL     1      34.458 -19.167 -21.179  0.00  0.00    -0.004 C 
ATOM      6  C   UNL     1      35.747 -20.577 -19.671  0.00  0.00    +0.003 C 
ATOM      7  C   UNL     1      36.850 -18.878 -21.020  0.00  0.00    -0.004 C 
ATOM      8  C   UNL     1      36.912 -19.904 -20.077  0.00  0.00    -0.000 C 
ATOM      9  C   UNL     1      33.338 -20.874 -19.825  0.00  0.00    +0.003 C 
ATOM     10  C   UNL     1      35.791 -21.611 -18.723  0.00  0.00    +0.037 C 
ATOM     11  C   UNL     1      34.624 -22.269 -18.332  0.00  0.00    +0.139 C 
ATOM     12  C   UNL     1      33.400 -21.901 -18.882  0.00  0.00    +0.037 C 
BRANCH  11  13
ATOM     13  O   UNL     1      34.683 -23.271 -17.413  0.00  0.00    -0.471 OA
ATOM     14  C   UNL     1      33.520 -23.492 -16.618  0.00  0.00    +0.252 C 
ENDBRANCH  11  13
ENDBRANCH   1   3
BRANCH   1  16
ATOM     15  O   UNL     1      34.990 -15.880 -20.761  0.00  0.00    -0.249 OA
ATOM     16  C   UNL     1      35.195 -16.059 -21.955  0.00  0.00    +0.325 C 
BRANCH  16  17
ATOM     17  O   UNL     1      35.161 -15.080 -22.948  0.00  0.00    -0.424 OA
BRANCH  17  18
ATOM     18  C   UNL     1      34.218 -14.081 -22.699  0.00  0.00    +0.148 C 
ATOM     19  C   UNL     1      34.161 -12.955 -23.522  0.00  0.00    +0.038 C 
ATOM     20  C   UNL     1      33.334 -14.207 -21.628  0.00  0.00    +0.038 C 
ATOM     21  C   UNL     1      32.336 -12.082 -22.201  0.00  0.00    +0.020 C 
ATOM     22  C   UNL     1      33.220 -11.956 -23.272  0.00  0.00    +0.005 C 
ATOM     23  C   UNL     1      32.392 -13.208 -21.379  0.00  0.00    +0.005 C 
BRANCH  21  25
ATOM     24  S   UNL     1      31.397  -9.482 -22.600  0.00  0.00    -0.035 S 
ATOM     25  C   UNL     1      31.356 -11.041 -21.941  0.00  0.00    +0.078 C 
BRANCH  25  26
ATOM     26  N   UNL     1      30.311 -11.378 -21.090  0.00  0.00    -0.352 N 
ATOM     27  H   UNL     1      30.211 -10.916 -20.226  0.00  0.00    +0.143 HD
ATOM     28  H   UNL     1      29.671 -12.080 -21.350  0.00  0.00    +0.143 HD
ENDBRANCH  25  26
ENDBRANCH  21  25
ENDBRANCH  17  18
ENDBRANCH  16  17
ENDBRANCH   1  16
TORSDOF 7
ENDMDL
MODEL 2
REMARK VINA RESULT:     -11.4      1.144      2.124
REMARK  Name = 25065981
REMARK  7 active torsions:
REMARK  status: ('A' for Active; 'I' for Inactive)
REMARK    1  A    between atoms: C_1  and  C_3
REMARK    2  A    between atoms: C_1  and  C_16
REMARK    3  A    between atoms: C_11  and  O_13
REMARK    4  A    between atoms: C_16  and  O_17
REMARK    5  A    between atoms: O_17  and  C_18
REMARK    6  A    between atoms: C_21  and  C_25
REMARK    7  A    between atoms: C_25  and  N_26
REMARK                            x       y       z     vdW  Elec       q    Type
REMARK                         _______ _______ _______ _____ _____    ______ ____
ROOT
ATOM      1  C   UNL     1      35.365 -18.773 -22.124  0.00  0.00    +0.122 C 
ATOM      2  C   UNL     1      34.551 -18.942 -23.422  0.00  0.00    +0.016 C 
ENDROOT
BRANCH   1   3
ATOM      3  C   UNL     1      34.943 -19.701 -21.036  0.00  0.00    -0.012 C 
ATOM      4  C   UNL     1      35.511 -21.083 -19.115  0.00  0.00    -0.000 C 
ATOM      5  C   UNL     1      35.891 -20.207 -20.145  0.00  0.00    -0.004 C 
ATOM      6  C   UNL     1      34.151 -21.451 -18.987  0.00  0.00    +0.003 C 
ATOM      7  C   UNL     1      33.605 -20.064 -20.910  0.00  0.00    -0.004 C 
ATOM      8  C   UNL     1      33.210 -20.932 -19.892  0.00  0.00    -0.000 C 
ATOM      9  C   UNL     1      36.451 -21.601 -18.210  0.00  0.00    +0.003 C 
ATOM     10  C   UNL     1      33.770 -22.327 -17.957  0.00  0.00    +0.037 C 
ATOM     11  C   UNL     1      34.717 -22.832 -17.066  0.00  0.00    +0.139 C 
ATOM     12  C   UNL     1      36.055 -22.469 -17.193  0.00  0.00    +0.037 C 
BRANCH  11  13
ATOM     13  O   UNL     1      34.333 -23.679 -16.073  0.00  0.00    -0.471 OA
ATOM     14  C   UNL     1      33.317 -23.221 -15.184  0.00  0.00    +0.252 C 
ENDBRANCH  11  13
ENDBRANCH   1   3
BRANCH   1  16
ATOM     15  O   UNL     1      35.247 -16.924 -20.528  0.00  0.00    -0.249 OA
ATOM     16  C   UNL     1      35.332 -17.301 -21.691  0.00  0.00    +0.325 C 
BRANCH  16  17
ATOM     17  O   UNL     1      35.441 -16.479 -22.812  0.00  0.00    -0.424 OA
BRANCH  17  18
ATOM     18  C   UNL     1      34.640 -15.337 -22.734  0.00  0.00    +0.148 C 
ATOM     19  C   UNL     1      34.537 -14.639 -21.530  0.00  0.00    +0.038 C 
ATOM     20  C   UNL     1      33.943 -14.896 -23.858  0.00  0.00    +0.038 C 
ATOM     21  C   UNL     1      33.039 -13.059 -22.577  0.00  0.00    +0.020 C 
ATOM     22  C   UNL     1      33.737 -13.500 -21.452  0.00  0.00    +0.005 C 
ATOM     23  C   UNL     1      33.142 -13.756 -23.779  0.00  0.00    +0.005 C 
BRANCH  21  25
ATOM     24  S   UNL     1      32.588 -10.365 -23.164  0.00  0.00    -0.035 S 
ATOM     25  C   UNL     1      32.204 -11.871 -22.494  0.00  0.00    +0.078 C 
BRANCH  25  26
ATOM     26  N   UNL     1      31.002 -12.012 -21.812  0.00  0.00    -0.352 N 
ATOM     27  H   UNL     1      30.986 -12.438 -20.925  0.00  0.00    +0.143 HD
ATOM     28  H   UNL     1      30.165 -11.687 -22.217  0.00  0.00    +0.143 HD
ENDBRANCH  25  26
ENDBRANCH  21  25
ENDBRANCH  17  18
ENDBRANCH  16  17
ENDBRANCH   1  16
TORSDOF 7
ENDMDL
MODEL 3
REMARK VINA RESULT:     -11.0      5.374      8.443
REMARK  Name = 25065981
REMARK  7 active torsions:
REMARK  status: ('A' for Active; 'I' for Inactive)
REMARK    1  A    between atoms: C_1  and  C_3
REMARK    2  A    between atoms: C_1  and  C_16
REMARK    3  A    between atoms: C_11  and  O_13
REMARK    4  A    between atoms: C_16  and  O_17
REMARK    5  A    between atoms: O_17  and  C_18
REMARK    6  A    between atoms: C_21  and  C_25
REMARK    7  A    between atoms: C_25  and  N_26
REMARK                            x       y       z     vdW  Elec       q    Type
REMARK                         _______ _______ _______ _____ _____    ______ ____
ROOT
ATOM      1  C   UNL     1      32.751 -23.546 -15.541  0.00  0.00    +0.122 C 
ATOM      2  C   UNL     1      31.981 -22.765 -14.457  0.00  0.00    +0.016 C 
ENDROOT
BRANCH   1   3
ATOM      3  C   UNL     1      34.217 -23.628 -15.281  0.00  0.00    -0.012 C 
ATOM      4  C   UNL     1      36.184 -24.954 -14.742  0.00  0.00    -0.000 C 
ATOM      5  C   UNL     1      34.805 -24.859 -14.989  0.00  0.00    -0.004 C 
ATOM      6  C   UNL     1      36.978 -23.783 -14.792  0.00  0.00    +0.003 C 
ATOM      7  C   UNL     1      34.998 -22.477 -15.330  0.00  0.00    -0.004 C 
ATOM      8  C   UNL     1      36.369 -22.552 -15.088  0.00  0.00    -0.000 C 
ATOM      9  C   UNL     1      36.793 -26.184 -14.446  0.00  0.00    +0.003 C 
ATOM     10  C   UNL     1      38.358 -23.877 -14.544  0.00  0.00    +0.037 C 
ATOM     11  C   UNL     1      38.945 -25.108 -14.253  0.00  0.00    +0.139 C 
ATOM     12  C   UNL     1      38.164 -26.259 -14.204  0.00  0.00    +0.037 C 
BRANCH  11  13
ATOM     13  O   UNL     1      40.284 -25.184 -14.016  0.00  0.00    -0.471 OA
ATOM     14  C   UNL     1      40.849 -26.487 -13.894  0.00  0.00    +0.252 C 
ENDBRANCH  11  13
ENDBRANCH   1   3
BRANCH   1  16
ATOM     15  O   UNL     1      31.492 -22.198 -17.145  0.00  0.00    -0.249 OA
ATOM     16  C   UNL     1      32.426 -22.957 -16.920  0.00  0.00    +0.325 C 
BRANCH  16  17
ATOM     17  O   UNL     1      33.365 -23.399 -17.852  0.00  0.00    -0.424 OA
BRANCH  17  18
ATOM     18  C   UNL     1      33.857 -22.373 -18.662  0.00  0.00    +0.148 C 
ATOM     19  C   UNL     1      35.233 -22.199 -18.810  0.00  0.00    +0.038 C 
ATOM     20  C   UNL     1      32.971 -21.521 -19.322  0.00  0.00    +0.038 C 
ATOM     21  C   UNL     1      34.837 -20.321 -20.278  0.00  0.00    +0.020 C 
ATOM     22  C   UNL     1      35.723 -21.174 -19.618  0.00  0.00    +0.005 C 
ATOM     23  C   UNL     1      33.462 -20.495 -20.130  0.00  0.00    +0.005 C 
BRANCH  21  25
ATOM     24  S   UNL     1      34.940 -19.014 -22.744  0.00  0.00    -0.035 S 
ATOM     25  C   UNL     1      35.349 -19.252 -21.119  0.00  0.00    +0.078 C 
BRANCH  25  26
ATOM     26  N   UNL     1      36.235 -18.367 -20.517  0.00  0.00    -0.352 N 
ATOM     27  H   UNL     1      35.894 -17.645 -19.941  0.00  0.00    +0.143 HD
ATOM     28  H   UNL     1      37.204 -18.462 -20.666  0.00  0.00    +0.143 HD
ENDBRANCH  25  26
ENDBRANCH  21  25
ENDBRANCH  17  18
ENDBRANCH  16  17
ENDBRANCH   1  16
TORSDOF 7
ENDMDL
MODEL 4
REMARK VINA RESULT:     -11.0      4.664      9.334
REMARK  Name = 25065981
REMARK  7 active torsions:
REMARK  status: ('A' for Active; 'I' for Inactive)
REMARK    1  A    between atoms: C_1  and  C_3
REMARK    2  A    between atoms: C_1  and  C_16
REMARK    3  A    between atoms: C_11  and  O_13
REMARK    4  A    between atoms: C_16  and  O_17
REMARK    5  A    between atoms: O_17  and  C_18
REMARK    6  A    between atoms: C_21  and  C_25
REMARK    7  A    between atoms: C_25  and  N_26
REMARK                            x       y       z     vdW  Elec       q    Type
REMARK                         _______ _______ _______ _____ _____    ______ ____
ROOT
ATOM      1  C   UNL     1      35.994 -19.374 -21.420  0.00  0.00    +0.122 C 
ATOM      2  C   UNL     1      37.191 -19.053 -20.503  0.00  0.00    +0.016 C 
ENDROOT
BRANCH   1   3
ATOM      3  C   UNL     1      35.457 -18.178 -22.131  0.00  0.00    -0.012 C 
ATOM      4  C   UNL     1      34.846 -15.823 -22.116  0.00  0.00    -0.000 C 
ATOM      5  C   UNL     1      35.349 -16.959 -21.461  0.00  0.00    -0.004 C 
ATOM      6  C   UNL     1      34.447 -15.925 -23.469  0.00  0.00    +0.003 C 
ATOM      7  C   UNL     1      35.065 -18.279 -23.462  0.00  0.00    -0.004 C 
ATOM      8  C   UNL     1      34.563 -17.161 -24.129  0.00  0.00    -0.000 C 
ATOM      9  C   UNL     1      34.730 -14.589 -21.457  0.00  0.00    +0.003 C 
ATOM     10  C   UNL     1      33.943 -14.790 -24.125  0.00  0.00    +0.037 C 
ATOM     11  C   UNL     1      33.835 -13.571 -23.455  0.00  0.00    +0.139 C 
ATOM     12  C   UNL     1      34.228 -13.471 -22.124  0.00  0.00    +0.037 C 
BRANCH  11  13
ATOM     13  O   UNL     1      33.346 -12.479 -24.104  0.00  0.00    -0.471 OA
ATOM     14  C   UNL     1      33.876 -11.209 -23.729  0.00  0.00    +0.252 C 
ENDBRANCH  11  13
ENDBRANCH   1   3
BRANCH   1  16
ATOM     15  O   UNL     1      33.875 -19.606 -20.223  0.00  0.00    -0.249 OA
ATOM     16  C   UNL     1      34.919 -20.115 -20.613  0.00  0.00    +0.325 C 
BRANCH  16  17
ATOM     17  O   UNL     1      35.304 -21.442 -20.425  0.00  0.00    -0.424 OA
BRANCH  17  18
ATOM     18  C   UNL     1      35.290 -21.830 -19.084  0.00  0.00    +0.148 C 
ATOM     19  C   UNL     1      34.148 -22.420 -18.541  0.00  0.00    +0.038 C 
ATOM     20  C   UNL     1      36.417 -21.629 -18.287  0.00  0.00    +0.038 C 
ATOM     21  C   UNL     1      35.260 -22.604 -16.404  0.00  0.00    +0.020 C 
ATOM     22  C   UNL     1      34.133 -22.806 -17.201  0.00  0.00    +0.005 C 
ATOM     23  C   UNL     1      36.402 -22.016 -16.947  0.00  0.00    +0.005 C 
BRANCH  21  25
ATOM     24  S   UNL     1      36.557 -23.672 -14.172  0.00  0.00    -0.035 S 
ATOM     25  C   UNL     1      35.244 -23.007 -15.007  0.00  0.00    +0.078 C 
BRANCH  25  26
ATOM     26  N   UNL     1      34.048 -22.814 -14.326  0.00  0.00    -0.352 N 
ATOM     27  H   UNL     1      33.277 -23.398 -14.512  0.00  0.00    +0.143 HD
ATOM     28  H   UNL     1      33.971 -22.095 -13.659  0.00  0.00    +0.143 HD
ENDBRANCH  25  26
ENDBRANCH  21  25
ENDBRANCH  17  18
ENDBRANCH  16  17
ENDBRANCH   1  16
TORSDOF 7
ENDMDL
MODEL 5
REMARK VINA RESULT:     -10.9      1.820      2.836
REMARK  Name = 25065981
REMARK  7 active torsions:
REMARK  status: ('A' for Active; 'I' for Inactive)
REMARK    1  A    between atoms: C_1  and  C_3
REMARK    2  A    between atoms: C_1  and  C_16
REMARK    3  A    between atoms: C_11  and  O_13
REMARK    4  A    between atoms: C_16  and  O_17
REMARK    5  A    between atoms: O_17  and  C_18
REMARK    6  A    between atoms: C_21  and  C_25
REMARK    7  A    between atoms: C_25  and  N_26
REMARK                            x       y       z     vdW  Elec       q    Type
REMARK                         _______ _______ _______ _____ _____    ______ ____
ROOT
ATOM      1  C   UNL     1      35.531 -19.676 -21.547  0.00  0.00    +0.122 C 
ATOM      2  C   UNL     1      34.154 -19.489 -22.214  0.00  0.00    +0.016 C 
ENDROOT
BRANCH   1   3
ATOM      3  C   UNL     1      35.473 -20.465 -20.283  0.00  0.00    -0.012 C 
ATOM      4  C   UNL     1      34.183 -21.725 -18.650  0.00  0.00    -0.000 C 
ATOM      5  C   UNL     1      34.255 -20.980 -19.839  0.00  0.00    -0.004 C 
ATOM      6  C   UNL     1      35.362 -21.951 -17.902  0.00  0.00    +0.003 C 
ATOM      7  C   UNL     1      36.633 -20.686 -19.547  0.00  0.00    -0.004 C 
ATOM      8  C   UNL     1      36.580 -21.424 -18.364  0.00  0.00    -0.000 C 
ATOM      9  C   UNL     1      32.966 -22.252 -18.189  0.00  0.00    +0.003 C 
ATOM     10  C   UNL     1      35.291 -22.695 -16.713  0.00  0.00    +0.037 C 
ATOM     11  C   UNL     1      34.073 -23.211 -16.270  0.00  0.00    +0.139 C 
ATOM     12  C   UNL     1      32.913 -22.990 -17.006  0.00  0.00    +0.037 C 
BRANCH  11  13
ATOM     13  O   UNL     1      34.019 -23.932 -15.116  0.00  0.00    -0.471 OA
ATOM     14  C   UNL     1      35.242 -24.116 -14.407  0.00  0.00    +0.252 C 
ENDBRANCH  11  13
ENDBRANCH   1   3
BRANCH   1  16
ATOM     15  O   UNL     1      37.226 -17.954 -21.922  0.00  0.00    -0.249 OA
ATOM     16  C   UNL     1      36.196 -18.305 -21.359  0.00  0.00    +0.325 C 
BRANCH  16  17
ATOM     17  O   UNL     1      35.437 -17.532 -20.482  0.00  0.00    -0.424 OA
BRANCH  17  18
ATOM     18  C   UNL     1      35.007 -16.328 -21.045  0.00  0.00    +0.148 C 
ATOM     19  C   UNL     1      34.565 -15.291 -20.223  0.00  0.00    +0.038 C 
ATOM     20  C   UNL     1      35.019 -16.164 -22.430  0.00  0.00    +0.038 C 
ATOM     21  C   UNL     1      34.145 -13.926 -22.172  0.00  0.00    +0.020 C 
ATOM     22  C   UNL     1      34.134 -14.091 -20.786  0.00  0.00    +0.005 C 
ATOM     23  C   UNL     1      34.588 -14.962 -22.993  0.00  0.00    +0.005 C 
BRANCH  21  25
ATOM     24  S   UNL     1      32.270 -11.862 -22.339  0.00  0.00    -0.035 S 
ATOM     25  C   UNL     1      33.696 -12.674 -22.758  0.00  0.00    +0.078 C 
BRANCH  25  26
ATOM     26  N   UNL     1      34.520 -12.119 -23.728  0.00  0.00    -0.352 N 
ATOM     27  H   UNL     1      34.369 -11.194 -24.032  0.00  0.00    +0.143 HD
ATOM     28  H   UNL     1      35.256 -12.649 -24.112  0.00  0.00    +0.143 HD
ENDBRANCH  25  26
ENDBRANCH  21  25
ENDBRANCH  17  18
ENDBRANCH  16  17
ENDBRANCH   1  16
TORSDOF 7
ENDMDL
MODEL 6
REMARK VINA RESULT:     -10.7      5.907     10.419
REMARK  Name = 25065981
REMARK  7 active torsions:
REMARK  status: ('A' for Active; 'I' for Inactive)
REMARK    1  A    between atoms: C_1  and  C_3
REMARK    2  A    between atoms: C_1  and  C_16
REMARK    3  A    between atoms: C_11  and  O_13
REMARK    4  A    between atoms: C_16  and  O_17
REMARK    5  A    between atoms: O_17  and  C_18
REMARK    6  A    between atoms: C_21  and  C_25
REMARK    7  A    between atoms: C_25  and  N_26
REMARK                            x       y       z     vdW  Elec       q    Type
REMARK                         _______ _______ _______ _____ _____    ______ ____
ROOT
ATOM      1  C   UNL     1      34.886 -24.551 -14.571  0.00  0.00    +0.122 C 
ATOM      2  C   UNL     1      35.831 -25.764 -14.464  0.00  0.00    +0.016 C 
ENDROOT
BRANCH   1   3
ATOM      3  C   UNL     1      35.249 -23.613 -15.672  0.00  0.00    -0.012 C 
ATOM      4  C   UNL     1      34.631 -22.405 -17.692  0.00  0.00    -0.000 C 
ATOM      5  C   UNL     1      34.306 -23.287 -16.648  0.00  0.00    -0.004 C 
ATOM      6  C   UNL     1      35.931 -21.847 -17.746  0.00  0.00    +0.003 C 
ATOM      7  C   UNL     1      36.526 -23.064 -15.726  0.00  0.00    -0.004 C 
ATOM      8  C   UNL     1      36.867 -22.187 -16.755  0.00  0.00    -0.000 C 
ATOM      9  C   UNL     1      33.696 -22.065 -18.682  0.00  0.00    +0.003 C 
ATOM     10  C   UNL     1      36.257 -20.966 -18.791  0.00  0.00    +0.037 C 
ATOM     11  C   UNL     1      35.314 -20.639 -19.765  0.00  0.00    +0.139 C 
ATOM     12  C   UNL     1      34.037 -21.188 -19.711  0.00  0.00    +0.037 C 
BRANCH  11  13
ATOM     13  O   UNL     1      35.645 -19.783 -20.771  0.00  0.00    -0.471 OA
ATOM     14  C   UNL     1      34.669 -19.568 -21.788  0.00  0.00    +0.252 C 
ENDBRANCH  11  13
ENDBRANCH   1   3
BRANCH   1  16
ATOM     15  O   UNL     1      35.578 -22.999 -12.813  0.00  0.00    -0.249 OA
ATOM     16  C   UNL     1      34.794 -23.854 -13.206  0.00  0.00    +0.325 C 
BRANCH  16  17
ATOM     17  O   UNL     1      33.680 -24.326 -12.513  0.00  0.00    -0.424 OA
BRANCH  17  18
ATOM     18  C   UNL     1      32.488 -24.176 -13.225  0.00  0.00    +0.148 C 
ATOM     19  C   UNL     1      31.650 -25.274 -13.420  0.00  0.00    +0.038 C 
ATOM     20  C   UNL     1      32.137 -22.930 -13.743  0.00  0.00    +0.038 C 
ATOM     21  C   UNL     1      30.109 -23.879 -14.652  0.00  0.00    +0.020 C 
ATOM     22  C   UNL     1      30.460 -25.125 -14.133  0.00  0.00    +0.005 C 
ATOM     23  C   UNL     1      30.947 -22.781 -14.457  0.00  0.00    +0.005 C 
BRANCH  21  25
ATOM     24  S   UNL     1      27.789 -22.433 -15.225  0.00  0.00    -0.035 S 
ATOM     25  C   UNL     1      28.870 -23.724 -15.395  0.00  0.00    +0.078 C 
BRANCH  25  26
ATOM     26  N   UNL     1      28.577 -24.723 -16.315  0.00  0.00    -0.352 N 
ATOM     27  H   UNL     1      27.648 -25.028 -16.432  0.00  0.00    +0.143 HD
ATOM     28  H   UNL     1      29.298 -25.128 -16.850  0.00  0.00    +0.143 HD
ENDBRANCH  25  26
ENDBRANCH  21  25
ENDBRANCH  17  18
ENDBRANCH  16  17
ENDBRANCH   1  16
TORSDOF 7
ENDMDL
MODEL 7
REMARK VINA RESULT:     -10.5      4.170      9.279
REMARK  Name = 25065981
REMARK  7 active torsions:
REMARK  status: ('A' for Active; 'I' for Inactive)
REMARK    1  A    between atoms: C_1  and  C_3
REMARK    2  A    between atoms: C_1  and  C_16
REMARK    3  A    between atoms: C_11  and  O_13
REMARK    4  A    between atoms: C_16  and  O_17
REMARK    5  A    between atoms: O_17  and  C_18
REMARK    6  A    between atoms: C_21  and  C_25
REMARK    7  A    between atoms: C_25  and  N_26
REMARK                            x       y       z     vdW  Elec       q    Type
REMARK                         _______ _______ _______ _____ _____    ______ ____
ROOT
ATOM      1  C   UNL     1      34.058 -15.663 -23.136  0.00  0.00    +0.122 C 
ATOM      2  C   UNL     1      34.643 -16.020 -24.517  0.00  0.00    +0.016 C 
ENDROOT
BRANCH   1   3
ATOM      3  C   UNL     1      33.678 -14.227 -23.008  0.00  0.00    -0.012 C 
ATOM      4  C   UNL     1      32.517 -12.461 -21.803  0.00  0.00    -0.000 C 
ATOM      5  C   UNL     1      32.884 -13.809 -21.939  0.00  0.00    -0.004 C 
ATOM      6  C   UNL     1      32.961 -11.522 -22.765  0.00  0.00    +0.003 C 
ATOM      7  C   UNL     1      34.115 -13.304 -23.954  0.00  0.00    -0.004 C 
ATOM      8  C   UNL     1      33.760 -11.960 -23.834  0.00  0.00    -0.000 C 
ATOM      9  C   UNL     1      31.719 -12.022 -20.735  0.00  0.00    +0.003 C 
ATOM     10  C   UNL     1      32.594 -10.173 -22.630  0.00  0.00    +0.037 C 
ATOM     11  C   UNL     1      31.801  -9.756 -21.561  0.00  0.00    +0.139 C 
ATOM     12  C   UNL     1      31.364 -10.679 -20.616  0.00  0.00    +0.037 C 
BRANCH  11  13
ATOM     13  O   UNL     1      31.454  -8.445 -21.443  0.00  0.00    -0.471 OA
ATOM     14  C   UNL     1      31.976  -7.733 -20.323  0.00  0.00    +0.252 C 
ENDBRANCH  11  13
ENDBRANCH   1   3
BRANCH   1  16
ATOM     15  O   UNL     1      35.124 -15.591 -20.937  0.00  0.00    -0.249 OA
ATOM     16  C   UNL     1      35.030 -16.118 -22.038  0.00  0.00    +0.325 C 
BRANCH  16  17
ATOM     17  O   UNL     1      35.753 -17.225 -22.482  0.00  0.00    -0.424 OA
BRANCH  17  18
ATOM     18  C   UNL     1      35.686 -18.310 -21.605  0.00  0.00    +0.148 C 
ATOM     19  C   UNL     1      34.475 -18.976 -21.410  0.00  0.00    +0.038 C 
ATOM     20  C   UNL     1      36.829 -18.727 -20.923  0.00  0.00    +0.038 C 
ATOM     21  C   UNL     1      35.551 -20.474 -19.850  0.00  0.00    +0.020 C 
ATOM     22  C   UNL     1      34.408 -20.058 -20.533  0.00  0.00    +0.005 C 
ATOM     23  C   UNL     1      36.761 -19.809 -20.045  0.00  0.00    +0.005 C 
BRANCH  21  25
ATOM     24  S   UNL     1      34.172 -22.670 -18.809  0.00  0.00    -0.035 S 
ATOM     25  C   UNL     1      35.480 -21.602 -18.935  0.00  0.00    +0.078 C 
BRANCH  25  26
ATOM     26  N   UNL     1      36.586 -21.801 -18.119  0.00  0.00    -0.352 N 
ATOM     27  H   UNL     1      37.381 -22.262 -18.471  0.00  0.00    +0.143 HD
ATOM     28  H   UNL     1      36.575 -21.482 -17.187  0.00  0.00    +0.143 HD
ENDBRANCH  25  26
ENDBRANCH  21  25
ENDBRANCH  17  18
ENDBRANCH  16  17
ENDBRANCH   1  16
TORSDOF 7
ENDMDL
MODEL 8
REMARK VINA RESULT:     -10.3      2.956      5.038
REMARK  Name = 25065981
REMARK  7 active torsions:
REMARK  status: ('A' for Active; 'I' for Inactive)
REMARK    1  A    between atoms: C_1  and  C_3
REMARK    2  A    between atoms: C_1  and  C_16
REMARK    3  A    between atoms: C_11  and  O_13
REMARK    4  A    between atoms: C_16  and  O_17
REMARK    5  A    between atoms: O_17  and  C_18
REMARK    6  A    between atoms: C_21  and  C_25
REMARK    7  A    between atoms: C_25  and  N_26
REMARK                            x       y       z     vdW  Elec       q    Type
REMARK                         _______ _______ _______ _____ _____    ______ ____
ROOT
ATOM      1  C   UNL     1      34.436 -21.095 -19.946  0.00  0.00    +0.122 C 
ATOM      2  C   UNL     1      33.141 -20.261 -20.019  0.00  0.00    +0.016 C 
ENDROOT
BRANCH   1   3
ATOM      3  C   UNL     1      34.625 -21.779 -18.635  0.00  0.00    -0.012 C 
ATOM      4  C   UNL     1      36.064 -22.382 -16.768  0.00  0.00    -0.000 C 
ATOM      5  C   UNL     1      35.869 -21.743 -18.003  0.00  0.00    -0.004 C 
ATOM      6  C   UNL     1      34.983 -23.067 -16.165  0.00  0.00    +0.003 C 
ATOM      7  C   UNL     1      33.562 -22.453 -18.042  0.00  0.00    -0.004 C 
ATOM      8  C   UNL     1      33.738 -23.094 -16.815  0.00  0.00    -0.000 C 
ATOM      9  C   UNL     1      37.308 -22.355 -16.118  0.00  0.00    +0.003 C 
ATOM     10  C   UNL     1      35.178 -23.707 -14.930  0.00  0.00    +0.037 C 
ATOM     11  C   UNL     1      36.421 -23.670 -14.298  0.00  0.00    +0.139 C 
ATOM     12  C   UNL     1      37.484 -22.996 -14.891  0.00  0.00    +0.037 C 
BRANCH  11  13
ATOM     13  O   UNL     1      36.595 -24.294 -13.101  0.00  0.00    -0.471 OA
ATOM     14  C   UNL     1      37.147 -25.609 -13.127  0.00  0.00    +0.252 C 
ENDBRANCH  11  13
ENDBRANCH   1   3
BRANCH   1  16
ATOM     15  O   UNL     1      36.390 -19.686 -19.527  0.00  0.00    -0.249 OA
ATOM     16  C   UNL     1      35.632 -20.214 -20.332  0.00  0.00    +0.325 C 
BRANCH  16  17
ATOM     17  O   UNL     1      35.729 -20.136 -21.721  0.00  0.00    -0.424 OA
BRANCH  17  18
ATOM     18  C   UNL     1      35.359 -18.889 -22.227  0.00  0.00    +0.148 C 
ATOM     19  C   UNL     1      34.751 -18.796 -23.480  0.00  0.00    +0.038 C 
ATOM     20  C   UNL     1      35.597 -17.735 -21.480  0.00  0.00    +0.038 C 
ATOM     21  C   UNL     1      34.622 -16.395 -23.239  0.00  0.00    +0.020 C 
ATOM     22  C   UNL     1      34.383 -17.549 -23.985  0.00  0.00    +0.005 C 
ATOM     23  C   UNL     1      35.229 -16.488 -21.987  0.00  0.00    +0.005 C 
BRANCH  21  25
ATOM     24  S   UNL     1      33.431 -14.844 -25.233  0.00  0.00    -0.035 S 
ATOM     25  C   UNL     1      34.239 -15.096 -23.767  0.00  0.00    +0.078 C 
BRANCH  25  26
ATOM     26  N   UNL     1      34.565 -13.995 -22.986  0.00  0.00    -0.352 N 
ATOM     27  H   UNL     1      33.890 -13.596 -22.390  0.00  0.00    +0.143 HD
ATOM     28  H   UNL     1      35.472 -13.612 -23.028  0.00  0.00    +0.143 HD
ENDBRANCH  25  26
ENDBRANCH  21  25
ENDBRANCH  17  18
ENDBRANCH  16  17
ENDBRANCH   1  16
TORSDOF 7
ENDMDL
MODEL 9
REMARK VINA RESULT:     -10.3      5.352      8.697
REMARK  Name = 25065981
REMARK  7 active torsions:
REMARK  status: ('A' for Active; 'I' for Inactive)
REMARK    1  A    between atoms: C_1  and  C_3
REMARK    2  A    between atoms: C_1  and  C_16
REMARK    3  A    between atoms: C_11  and  O_13
REMARK    4  A    between atoms: C_16  and  O_17
REMARK    5  A    between atoms: O_17  and  C_18
REMARK    6  A    between atoms: C_21  and  C_25
REMARK    7  A    between atoms: C_25  and  N_26
REMARK                            x       y       z     vdW  Elec       q    Type
REMARK                         _______ _______ _______ _____ _____    ______ ____
ROOT
ATOM      1  C   UNL     1      35.079 -23.667 -14.690  0.00  0.00    +0.122 C 
ATOM      2  C   UNL     1      35.748 -25.043 -14.882  0.00  0.00    +0.016 C 
ENDROOT
BRANCH   1   3
ATOM      3  C   UNL     1      33.593 -23.742 -14.591  0.00  0.00    -0.012 C 
ATOM      4  C   UNL     1      31.397 -23.149 -15.455  0.00  0.00    -0.000 C 
ATOM      5  C   UNL     1      32.798 -23.090 -15.534  0.00  0.00    -0.004 C 
ATOM      6  C   UNL     1      30.794 -23.881 -14.405  0.00  0.00    +0.003 C 
ATOM      7  C   UNL     1      33.000 -24.461 -13.558  0.00  0.00    -0.004 C 
ATOM      8  C   UNL     1      31.610 -24.531 -13.464  0.00  0.00    -0.000 C 
ATOM      9  C   UNL     1      30.582 -22.500 -16.396  0.00  0.00    +0.003 C 
ATOM     10  C   UNL     1      29.393 -23.940 -14.325  0.00  0.00    +0.037 C 
ATOM     11  C   UNL     1      28.599 -23.289 -15.269  0.00  0.00    +0.139 C 
ATOM     12  C   UNL     1      29.192 -22.570 -16.302  0.00  0.00    +0.037 C 
BRANCH  11  13
ATOM     13  O   UNL     1      27.242 -23.357 -15.179  0.00  0.00    -0.471 OA
ATOM     14  C   UNL     1      26.502 -22.238 -15.663  0.00  0.00    +0.252 C 
ENDBRANCH  11  13
ENDBRANCH   1   3
BRANCH   1  16
ATOM     15  O   UNL     1      36.196 -21.690 -15.595  0.00  0.00    -0.249 OA
ATOM     16  C   UNL     1      35.551 -22.712 -15.794  0.00  0.00    +0.325 C 
BRANCH  16  17
ATOM     17  O   UNL     1      35.157 -23.202 -17.039  0.00  0.00    -0.424 OA
BRANCH  17  18
ATOM     18  C   UNL     1      35.180 -22.231 -18.042  0.00  0.00    +0.148 C 
ATOM     19  C   UNL     1      33.992 -21.840 -18.662  0.00  0.00    +0.038 C 
ATOM     20  C   UNL     1      36.389 -21.654 -18.426  0.00  0.00    +0.038 C 
ATOM     21  C   UNL     1      35.226 -20.294 -20.049  0.00  0.00    +0.020 C 
ATOM     22  C   UNL     1      34.015 -20.872 -19.665  0.00  0.00    +0.005 C 
ATOM     23  C   UNL     1      36.412 -20.685 -19.430  0.00  0.00    +0.005 C 
BRANCH  21  25
ATOM     24  S   UNL     1      34.748 -19.530 -22.693  0.00  0.00    -0.035 S 
ATOM     25  C   UNL     1      35.249 -19.285 -21.095  0.00  0.00    +0.078 C 
BRANCH  25  26
ATOM     26  N   UNL     1      35.715 -18.029 -20.727  0.00  0.00    -0.352 N 
ATOM     27  H   UNL     1      36.321 -17.534 -21.325  0.00  0.00    +0.143 HD
ATOM     28  H   UNL     1      35.441 -17.634 -19.868  0.00  0.00    +0.143 HD
ENDBRANCH  25  26
ENDBRANCH  21  25
ENDBRANCH  17  18
ENDBRANCH  16  17
ENDBRANCH   1  16
TORSDOF 7
ENDMDL
