MODEL 1
REMARK VINA RESULT:     -11.5      0.000      0.000
REMARK  Name = 68488178
REMARK  9 active torsions:
REMARK  status: ('A' for Active; 'I' for Inactive)
REMARK    1  A    between atoms: N_1  and  C_10
REMARK    2  A    between atoms: N_2  and  C_29
REMARK    3  A    between atoms: C_10  and  C_11
REMARK    4  A    between atoms: C_16  and  O_17
REMARK    5  A    between atoms: O_17  and  C_18
REMARK    6  A    between atoms: C_23  and  C_26
REMARK    7  A    between atoms: C_29  and  C_30
REMARK    8  A    between atoms: C_35  and  C_37
REMARK    9  A    between atoms: C_37  and  O_38
REMARK                            x       y       z     vdW  Elec       q    Type
REMARK                         _______ _______ _______ _____ _____    ______ ____
ROOT
ATOM      1  N   UNL     1      33.073 -11.240 -22.718  0.00  0.00    +0.388 N 
ATOM      2  N   UNL     1      34.007  -8.600 -22.808  0.00  0.00    +0.388 N 
ATOM      3  C   UNL     1      33.598 -10.622 -23.960  0.00  0.00    -0.081 C 
ATOM      4  C   UNL     1      32.577  -8.947 -22.992  0.00  0.00    -0.081 C 
ATOM      5  C   UNL     1      32.531  -9.616 -24.354  0.00  0.00    -0.046 C 
ATOM      6  C   UNL     1      32.301 -10.149 -22.070  0.00  0.00    -0.098 C 
ATOM      7  C   UNL     1      34.734  -9.678 -23.525  0.00  0.00    -0.098 C 
ATOM      8  H   UNL     1      33.821 -11.595 -22.123  0.00  0.00    -0.079 HD
ATOM      9  H   UNL     1      34.264  -8.546 -21.822  0.00  0.00    -0.079 HD
ENDROOT
BRANCH   1  10
ATOM     10  C   UNL     1      32.248 -12.413 -22.981  0.00  0.00    -0.050 C 
BRANCH  10  11
ATOM     11  C   UNL     1      33.082 -13.651 -23.180  0.00  0.00    -0.043 C 
ATOM     12  C   UNL     1      33.826 -14.169 -22.120  0.00  0.00    -0.003 C 
ATOM     13  C   UNL     1      33.111 -14.280 -24.426  0.00  0.00    -0.003 C 
ATOM     14  C   UNL     1      34.598 -15.316 -22.304  0.00  0.00    +0.037 C 
ATOM     15  C   UNL     1      33.883 -15.426 -24.610  0.00  0.00    +0.037 C 
ATOM     16  C   UNL     1      34.627 -15.944 -23.549  0.00  0.00    +0.145 C 
BRANCH  16  17
ATOM     17  O   UNL     1      35.382 -17.063 -23.729  0.00  0.00    -0.453 OA
BRANCH  17  18
ATOM     18  C   UNL     1      35.428 -17.982 -22.694  0.00  0.00    +0.145 C 
ATOM     19  C   UNL     1      34.427 -18.945 -22.571  0.00  0.00    +0.038 C 
ATOM     20  C   UNL     1      36.476 -17.943 -21.774  0.00  0.00    +0.038 C 
ATOM     21  C   UNL     1      34.472 -19.868 -21.527  0.00  0.00    +0.008 C 
ATOM     22  C   UNL     1      36.521 -18.866 -20.729  0.00  0.00    +0.008 C 
ATOM     23  C   UNL     1      35.519 -19.830 -20.606  0.00  0.00    +0.054 C 
BRANCH  23  26
ATOM     24  O   UNL     1      34.489 -21.611 -19.436  0.00  0.00    -0.431 OA
ATOM     25  N   UNL     1      36.497 -20.970 -18.617  0.00  0.00    -0.206 NA
ATOM     26  C   UNL     1      35.566 -20.784 -19.525  0.00  0.00    +0.230 C 
ATOM     27  C   UNL     1      34.776 -22.394 -18.360  0.00  0.00    +0.202 C 
ATOM     28  C   UNL     1      35.995 -22.002 -17.866  0.00  0.00    +0.143 C 
ENDBRANCH  23  26
ENDBRANCH  17  18
ENDBRANCH  16  17
ENDBRANCH  10  11
ENDBRANCH   1  10
BRANCH   2  29
ATOM     29  C   UNL     1      34.336  -7.277 -23.328  0.00  0.00    -0.050 C 
BRANCH  29  30
ATOM     30  C   UNL     1      33.346  -6.236 -22.878  0.00  0.00    -0.043 C 
ATOM     31  C   UNL     1      32.942  -6.190 -21.543  0.00  0.00    -0.006 C 
ATOM     32  C   UNL     1      32.832  -5.319 -23.794  0.00  0.00    -0.006 C 
ATOM     33  C   UNL     1      32.025  -5.226 -21.126  0.00  0.00    +0.006 C 
ATOM     34  C   UNL     1      31.915  -4.356 -23.377  0.00  0.00    +0.006 C 
ATOM     35  C   UNL     1      31.511  -4.308 -22.042  0.00  0.00    +0.075 C 
BRANCH  35  37
ATOM     36  O   UNL     1      29.379  -3.519 -21.297  0.00  0.00    -0.245 OA
ATOM     37  C   UNL     1      30.555  -3.303 -21.607  0.00  0.00    +0.338 C 
BRANCH  37  38
ATOM     38  O   UNL     1      31.095  -2.054 -21.569  0.00  0.00    -0.477 OA
ATOM     39  H   UNL     1      31.116  -1.577 -20.763  0.00  0.00    +0.295 HD
ENDBRANCH  37  38
ENDBRANCH  35  37
ENDBRANCH  29  30
ENDBRANCH   2  29
TORSDOF 9
ENDMDL
MODEL 2
REMARK VINA RESULT:     -11.2      5.761     15.204
REMARK  Name = 68488178
REMARK  9 active torsions:
REMARK  status: ('A' for Active; 'I' for Inactive)
REMARK    1  A    between atoms: N_1  and  C_10
REMARK    2  A    between atoms: N_2  and  C_29
REMARK    3  A    between atoms: C_10  and  C_11
REMARK    4  A    between atoms: C_16  and  O_17
REMARK    5  A    between atoms: O_17  and  C_18
REMARK    6  A    between atoms: C_23  and  C_26
REMARK    7  A    between atoms: C_29  and  C_30
REMARK    8  A    between atoms: C_35  and  C_37
REMARK    9  A    between atoms: C_37  and  O_38
REMARK                            x       y       z     vdW  Elec       q    Type
REMARK                         _______ _______ _______ _____ _____    ______ ____
ROOT
ATOM      1  N   UNL     1      33.359 -22.627 -16.279  0.00  0.00    +0.388 N 
ATOM      2  N   UNL     1      34.692 -23.207 -13.883  0.00  0.00    +0.388 N 
ATOM      3  C   UNL     1      33.106 -23.866 -15.505  0.00  0.00    -0.081 C 
ATOM      4  C   UNL     1      35.251 -23.555 -15.212  0.00  0.00    -0.081 C 
ATOM      5  C   UNL     1      34.366 -24.689 -15.700  0.00  0.00    -0.046 C 
ATOM      6  C   UNL     1      34.826 -22.427 -16.170  0.00  0.00    -0.098 C 
ATOM      7  C   UNL     1      33.240 -23.483 -14.020  0.00  0.00    -0.098 C 
ATOM      8  H   UNL     1      32.830 -21.834 -15.914  0.00  0.00    -0.079 HD
ATOM      9  H   UNL     1      34.882 -22.236 -13.631  0.00  0.00    -0.079 HD
ENDROOT
BRANCH   1  10
ATOM     10  C   UNL     1      32.921 -22.731 -17.665  0.00  0.00    -0.050 C 
BRANCH  10  11
ATOM     11  C   UNL     1      33.817 -21.959 -18.596  0.00  0.00    -0.043 C 
ATOM     12  C   UNL     1      33.290 -20.928 -19.376  0.00  0.00    -0.003 C 
ATOM     13  C   UNL     1      35.174 -22.273 -18.680  0.00  0.00    -0.003 C 
ATOM     14  C   UNL     1      34.119 -20.212 -20.239  0.00  0.00    +0.037 C 
ATOM     15  C   UNL     1      36.003 -21.557 -19.544  0.00  0.00    +0.037 C 
ATOM     16  C   UNL     1      35.476 -20.527 -20.323  0.00  0.00    +0.145 C 
BRANCH  16  17
ATOM     17  O   UNL     1      36.286 -19.829 -21.166  0.00  0.00    -0.453 OA
BRANCH  17  18
ATOM     18  C   UNL     1      35.712 -18.818 -21.919  0.00  0.00    +0.145 C 
ATOM     19  C   UNL     1      35.079 -19.120 -23.124  0.00  0.00    +0.038 C 
ATOM     20  C   UNL     1      35.769 -17.498 -21.472  0.00  0.00    +0.038 C 
ATOM     21  C   UNL     1      34.505 -18.101 -23.884  0.00  0.00    +0.008 C 
ATOM     22  C   UNL     1      35.194 -16.479 -22.232  0.00  0.00    +0.008 C 
ATOM     23  C   UNL     1      34.561 -16.780 -23.439  0.00  0.00    +0.054 C 
BRANCH  23  26
ATOM     24  O   UNL     1      33.842 -14.530 -23.588  0.00  0.00    -0.431 OA
ATOM     25  N   UNL     1      33.532 -15.756 -25.464  0.00  0.00    -0.206 NA
ATOM     26  C   UNL     1      33.968 -15.727 -24.224  0.00  0.00    +0.230 C 
ATOM     27  C   UNL     1      33.266 -13.729 -24.527  0.00  0.00    +0.202 C 
ATOM     28  C   UNL     1      33.081 -14.476 -25.664  0.00  0.00    +0.143 C 
ENDBRANCH  23  26
ENDBRANCH  17  18
ENDBRANCH  16  17
ENDBRANCH  10  11
ENDBRANCH   1  10
BRANCH   2  29
ATOM     29  C   UNL     1      35.297 -23.974 -12.800  0.00  0.00    -0.050 C 
BRANCH  29  30
ATOM     30  C   UNL     1      36.625 -24.558 -13.202  0.00  0.00    -0.043 C 
ATOM     31  C   UNL     1      36.861 -25.925 -13.046  0.00  0.00    -0.006 C 
ATOM     32  C   UNL     1      37.620 -23.734 -13.728  0.00  0.00    -0.006 C 
ATOM     33  C   UNL     1      38.092 -26.465 -13.417  0.00  0.00    +0.006 C 
ATOM     34  C   UNL     1      38.850 -24.275 -14.098  0.00  0.00    +0.006 C 
ATOM     35  C   UNL     1      39.087 -25.642 -13.944  0.00  0.00    +0.075 C 
BRANCH  35  37
ATOM     36  O   UNL     1      41.183 -26.728 -13.563  0.00  0.00    -0.245 OA
ATOM     37  C   UNL     1      40.369 -26.206 -14.331  0.00  0.00    +0.338 C 
BRANCH  37  38
ATOM     38  O   UNL     1      40.600 -26.104 -15.668  0.00  0.00    -0.477 OA
ATOM     39  H   UNL     1      41.479 -26.124 -15.995  0.00  0.00    +0.295 HD
ENDBRANCH  37  38
ENDBRANCH  35  37
ENDBRANCH  29  30
ENDBRANCH   2  29
TORSDOF 9
ENDMDL
MODEL 3
REMARK VINA RESULT:     -11.2      2.974     13.199
REMARK  Name = 68488178
REMARK  9 active torsions:
REMARK  status: ('A' for Active; 'I' for Inactive)
REMARK    1  A    between atoms: N_1  and  C_10
REMARK    2  A    between atoms: N_2  and  C_29
REMARK    3  A    between atoms: C_10  and  C_11
REMARK    4  A    between atoms: C_16  and  O_17
REMARK    5  A    between atoms: O_17  and  C_18
REMARK    6  A    between atoms: C_23  and  C_26
REMARK    7  A    between atoms: C_29  and  C_30
REMARK    8  A    between atoms: C_35  and  C_37
REMARK    9  A    between atoms: C_37  and  O_38
REMARK                            x       y       z     vdW  Elec       q    Type
REMARK                         _______ _______ _______ _____ _____    ______ ____
ROOT
ATOM      1  N   UNL     1      35.637 -19.241 -20.245  0.00  0.00    +0.388 N 
ATOM      2  N   UNL     1      34.399 -21.369 -18.907  0.00  0.00    +0.388 N 
ATOM      3  C   UNL     1      34.672 -20.148 -20.912  0.00  0.00    -0.081 C 
ATOM      4  C   UNL     1      35.729 -21.497 -19.552  0.00  0.00    -0.081 C 
ATOM      5  C   UNL     1      35.424 -21.461 -21.039  0.00  0.00    -0.046 C 
ATOM      6  C   UNL     1      36.431 -20.138 -19.369  0.00  0.00    -0.098 C 
ATOM      7  C   UNL     1      33.624 -20.520 -19.847  0.00  0.00    -0.098 C 
ATOM      8  H   UNL     1      35.167 -18.501 -19.722  0.00  0.00    -0.079 HD
ATOM      9  H   UNL     1      34.465 -20.958 -17.975  0.00  0.00    -0.079 HD
ENDROOT
BRANCH   1  10
ATOM     10  C   UNL     1      36.476 -18.519 -21.195  0.00  0.00    -0.050 C 
BRANCH  10  11
ATOM     11  C   UNL     1      35.681 -17.532 -22.008  0.00  0.00    -0.043 C 
ATOM     12  C   UNL     1      35.312 -16.307 -21.452  0.00  0.00    -0.003 C 
ATOM     13  C   UNL     1      35.313 -17.844 -23.317  0.00  0.00    -0.003 C 
ATOM     14  C   UNL     1      34.575 -15.393 -22.205  0.00  0.00    +0.037 C 
ATOM     15  C   UNL     1      34.576 -16.930 -24.071  0.00  0.00    +0.037 C 
ATOM     16  C   UNL     1      34.207 -15.704 -23.515  0.00  0.00    +0.145 C 
BRANCH  16  17
ATOM     17  O   UNL     1      33.487 -14.813 -24.249  0.00  0.00    -0.453 OA
BRANCH  17  18
ATOM     18  C   UNL     1      33.239 -13.570 -23.691  0.00  0.00    +0.145 C 
ATOM     19  C   UNL     1      32.273 -13.434 -22.695  0.00  0.00    +0.038 C 
ATOM     20  C   UNL     1      33.954 -12.454 -24.126  0.00  0.00    +0.038 C 
ATOM     21  C   UNL     1      32.020 -12.182 -22.135  0.00  0.00    +0.008 C 
ATOM     22  C   UNL     1      33.702 -11.202 -23.566  0.00  0.00    +0.008 C 
ATOM     23  C   UNL     1      32.735 -11.065 -22.569  0.00  0.00    +0.054 C 
BRANCH  23  26
ATOM     24  O   UNL     1      33.252  -8.758 -22.461  0.00  0.00    -0.431 OA
ATOM     25  N   UNL     1      31.595  -9.428 -21.076  0.00  0.00    -0.206 NA
ATOM     26  C   UNL     1      32.474  -9.771 -21.990  0.00  0.00    +0.230 C 
ATOM     27  C   UNL     1      32.814  -7.670 -21.768  0.00  0.00    +0.202 C 
ATOM     28  C   UNL     1      31.808  -8.082 -20.930  0.00  0.00    +0.143 C 
ENDBRANCH  23  26
ENDBRANCH  17  18
ENDBRANCH  16  17
ENDBRANCH  10  11
ENDBRANCH   1  10
BRANCH   2  29
ATOM     29  C   UNL     1      33.760 -22.659 -18.677  0.00  0.00    -0.050 C 
BRANCH  29  30
ATOM     30  C   UNL     1      33.406 -22.859 -17.228  0.00  0.00    -0.043 C 
ATOM     31  C   UNL     1      34.409 -23.133 -16.297  0.00  0.00    -0.006 C 
ATOM     32  C   UNL     1      32.076 -22.772 -16.815  0.00  0.00    -0.006 C 
ATOM     33  C   UNL     1      34.081 -23.319 -14.955  0.00  0.00    +0.006 C 
ATOM     34  C   UNL     1      31.749 -22.959 -15.473  0.00  0.00    +0.006 C 
ATOM     35  C   UNL     1      32.751 -23.231 -14.541  0.00  0.00    +0.075 C 
BRANCH  35  37
ATOM     36  O   UNL     1      31.264 -23.525 -12.691  0.00  0.00    -0.245 OA
ATOM     37  C   UNL     1      32.410 -23.425 -13.142  0.00  0.00    +0.338 C 
BRANCH  37  38
ATOM     38  O   UNL     1      33.510 -23.489 -12.342  0.00  0.00    -0.477 OA
ATOM     39  H   UNL     1      34.136 -22.792 -12.349  0.00  0.00    +0.295 HD
ENDBRANCH  37  38
ENDBRANCH  35  37
ENDBRANCH  29  30
ENDBRANCH   2  29
TORSDOF 9
ENDMDL
MODEL 4
REMARK VINA RESULT:     -11.0      4.411     13.207
REMARK  Name = 68488178
REMARK  9 active torsions:
REMARK  status: ('A' for Active; 'I' for Inactive)
REMARK    1  A    between atoms: N_1  and  C_10
REMARK    2  A    between atoms: N_2  and  C_29
REMARK    3  A    between atoms: C_10  and  C_11
REMARK    4  A    between atoms: C_16  and  O_17
REMARK    5  A    between atoms: O_17  and  C_18
REMARK    6  A    between atoms: C_23  and  C_26
REMARK    7  A    between atoms: C_29  and  C_30
REMARK    8  A    between atoms: C_35  and  C_37
REMARK    9  A    between atoms: C_37  and  O_38
REMARK                            x       y       z     vdW  Elec       q    Type
REMARK                         _______ _______ _______ _____ _____    ______ ____
ROOT
ATOM      1  N   UNL     1      34.495 -22.019 -17.995  0.00  0.00    +0.388 N 
ATOM      2  N   UNL     1      32.811 -22.660 -15.850  0.00  0.00    +0.388 N 
ATOM      3  C   UNL     1      33.379 -22.988 -18.119  0.00  0.00    -0.081 C 
ATOM      4  C   UNL     1      34.101 -23.353 -16.087  0.00  0.00    -0.081 C 
ATOM      5  C   UNL     1      33.846 -24.194 -17.325  0.00  0.00    -0.046 C 
ATOM      6  C   UNL     1      35.064 -22.293 -16.652  0.00  0.00    -0.098 C 
ATOM      7  C   UNL     1      32.251 -22.466 -17.211  0.00  0.00    -0.098 C 
ATOM      8  H   UNL     1      34.175 -21.054 -18.094  0.00  0.00    -0.079 HD
ATOM      9  H   UNL     1      32.937 -21.779 -15.350  0.00  0.00    -0.079 HD
ENDROOT
BRANCH   1  10
ATOM     10  C   UNL     1      35.487 -22.167 -19.053  0.00  0.00    -0.050 C 
BRANCH  10  11
ATOM     11  C   UNL     1      35.630 -20.911 -19.869  0.00  0.00    -0.043 C 
ATOM     12  C   UNL     1      36.833 -20.203 -19.855  0.00  0.00    -0.003 C 
ATOM     13  C   UNL     1      34.561 -20.453 -20.639  0.00  0.00    -0.003 C 
ATOM     14  C   UNL     1      36.966 -19.038 -20.611  0.00  0.00    +0.037 C 
ATOM     15  C   UNL     1      34.694 -19.288 -21.395  0.00  0.00    +0.037 C 
ATOM     16  C   UNL     1      35.896 -18.581 -21.381  0.00  0.00    +0.145 C 
BRANCH  16  17
ATOM     17  O   UNL     1      36.025 -17.444 -22.118  0.00  0.00    -0.453 OA
BRANCH  17  18
ATOM     18  C   UNL     1      35.206 -16.374 -21.799  0.00  0.00    +0.145 C 
ATOM     19  C   UNL     1      34.655 -15.592 -22.814  0.00  0.00    +0.038 C 
ATOM     20  C   UNL     1      34.934 -16.077 -20.464  0.00  0.00    +0.038 C 
ATOM     21  C   UNL     1      33.833 -14.512 -22.493  0.00  0.00    +0.008 C 
ATOM     22  C   UNL     1      34.112 -14.997 -20.143  0.00  0.00    +0.008 C 
ATOM     23  C   UNL     1      33.560 -14.214 -21.158  0.00  0.00    +0.054 C 
BRANCH  23  26
ATOM     24  O   UNL     1      32.254 -12.380 -21.890  0.00  0.00    -0.431 OA
ATOM     25  N   UNL     1      32.314 -12.673 -19.648  0.00  0.00    -0.206 NA
ATOM     26  C   UNL     1      32.710 -13.097 -20.826  0.00  0.00    +0.230 C 
ATOM     27  C   UNL     1      31.495 -11.406 -21.315  0.00  0.00    +0.202 C 
ATOM     28  C   UNL     1      31.533 -11.588 -19.955  0.00  0.00    +0.143 C 
ENDBRANCH  23  26
ENDBRANCH  17  18
ENDBRANCH  16  17
ENDBRANCH  10  11
ENDBRANCH   1  10
BRANCH   2  29
ATOM     29  C   UNL     1      31.913 -23.423 -14.991  0.00  0.00    -0.050 C 
BRANCH  29  30
ATOM     30  C   UNL     1      30.468 -23.093 -15.256  0.00  0.00    -0.043 C 
ATOM     31  C   UNL     1      29.770 -22.263 -14.378  0.00  0.00    -0.006 C 
ATOM     32  C   UNL     1      29.827 -23.618 -16.379  0.00  0.00    -0.006 C 
ATOM     33  C   UNL     1      28.432 -21.959 -14.624  0.00  0.00    +0.006 C 
ATOM     34  C   UNL     1      28.489 -23.313 -16.624  0.00  0.00    +0.006 C 
ATOM     35  C   UNL     1      27.791 -22.482 -15.747  0.00  0.00    +0.075 C 
BRANCH  35  37
ATOM     36  O   UNL     1      25.926 -21.826 -17.094  0.00  0.00    -0.245 OA
ATOM     37  C   UNL     1      26.396 -22.164 -16.002  0.00  0.00    +0.338 C 
BRANCH  37  38
ATOM     38  O   UNL     1      25.623 -22.276 -14.887  0.00  0.00    -0.477 OA
ATOM     39  H   UNL     1      25.669 -21.622 -14.217  0.00  0.00    +0.295 HD
ENDBRANCH  37  38
ENDBRANCH  35  37
ENDBRANCH  29  30
ENDBRANCH   2  29
TORSDOF 9
ENDMDL
MODEL 5
REMARK VINA RESULT:     -10.9      4.272      8.304
REMARK  Name = 68488178
REMARK  9 active torsions:
REMARK  status: ('A' for Active; 'I' for Inactive)
REMARK    1  A    between atoms: N_1  and  C_10
REMARK    2  A    between atoms: N_2  and  C_29
REMARK    3  A    between atoms: C_10  and  C_11
REMARK    4  A    between atoms: C_16  and  O_17
REMARK    5  A    between atoms: O_17  and  C_18
REMARK    6  A    between atoms: C_23  and  C_26
REMARK    7  A    between atoms: C_29  and  C_30
REMARK    8  A    between atoms: C_35  and  C_37
REMARK    9  A    between atoms: C_37  and  O_38
REMARK                            x       y       z     vdW  Elec       q    Type
REMARK                         _______ _______ _______ _____ _____    ______ ____
ROOT
ATOM      1  N   UNL     1      34.806 -19.018 -21.346  0.00  0.00    +0.388 N 
ATOM      2  N   UNL     1      34.667 -16.401 -22.338  0.00  0.00    +0.388 N 
ATOM      3  C   UNL     1      35.824 -17.988 -21.025  0.00  0.00    -0.081 C 
ATOM      4  C   UNL     1      35.301 -17.509 -23.094  0.00  0.00    -0.081 C 
ATOM      5  C   UNL     1      36.580 -17.795 -22.327  0.00  0.00    -0.046 C 
ATOM      6  C   UNL     1      34.484 -18.774 -22.775  0.00  0.00    -0.098 C 
ATOM      7  C   UNL     1      35.068 -16.650 -20.931  0.00  0.00    -0.098 C 
ATOM      8  H   UNL     1      33.986 -18.945 -20.744  0.00  0.00    -0.079 HD
ATOM      9  H   UNL     1      33.653 -16.389 -22.458  0.00  0.00    -0.079 HD
ENDROOT
BRANCH   1  10
ATOM     10  C   UNL     1      35.289 -20.375 -21.116  0.00  0.00    -0.050 C 
BRANCH  10  11
ATOM     11  C   UNL     1      34.526 -21.063 -20.016  0.00  0.00    -0.043 C 
ATOM     12  C   UNL     1      35.122 -22.098 -19.296  0.00  0.00    -0.003 C 
ATOM     13  C   UNL     1      33.222 -20.665 -19.717  0.00  0.00    -0.003 C 
ATOM     14  C   UNL     1      34.416 -22.736 -18.277  0.00  0.00    +0.037 C 
ATOM     15  C   UNL     1      32.515 -21.303 -18.698  0.00  0.00    +0.037 C 
ATOM     16  C   UNL     1      33.112 -22.339 -17.977  0.00  0.00    +0.145 C 
BRANCH  16  17
ATOM     17  O   UNL     1      32.422 -22.962 -16.983  0.00  0.00    -0.453 OA
BRANCH  17  18
ATOM     18  C   UNL     1      33.090 -23.214 -15.796  0.00  0.00    +0.145 C 
ATOM     19  C   UNL     1      32.407 -23.777 -14.718  0.00  0.00    +0.038 C 
ATOM     20  C   UNL     1      34.445 -22.904 -15.679  0.00  0.00    +0.038 C 
ATOM     21  C   UNL     1      33.078 -24.027 -13.522  0.00  0.00    +0.008 C 
ATOM     22  C   UNL     1      35.116 -23.155 -14.482  0.00  0.00    +0.008 C 
ATOM     23  C   UNL     1      34.433 -23.717 -13.403  0.00  0.00    +0.054 C 
BRANCH  23  26
ATOM     24  O   UNL     1      36.235 -23.214 -11.953  0.00  0.00    -0.431 OA
ATOM     25  N   UNL     1      34.845 -24.840 -11.216  0.00  0.00    -0.206 NA
ATOM     26  C   UNL     1      35.127 -23.976 -12.166  0.00  0.00    +0.230 C 
ATOM     27  C   UNL     1      36.692 -23.648 -10.745  0.00  0.00    +0.202 C 
ATOM     28  C   UNL     1      35.846 -24.633 -10.302  0.00  0.00    +0.143 C 
ENDBRANCH  23  26
ENDBRANCH  17  18
ENDBRANCH  16  17
ENDBRANCH  10  11
ENDBRANCH   1  10
BRANCH   2  29
ATOM     29  C   UNL     1      35.091 -15.086 -22.806  0.00  0.00    -0.050 C 
BRANCH  29  30
ATOM     30  C   UNL     1      34.033 -14.041 -22.574  0.00  0.00    -0.043 C 
ATOM     31  C   UNL     1      33.197 -14.130 -21.460  0.00  0.00    -0.006 C 
ATOM     32  C   UNL     1      33.887 -12.984 -23.472  0.00  0.00    -0.006 C 
ATOM     33  C   UNL     1      32.216 -13.162 -21.246  0.00  0.00    +0.006 C 
ATOM     34  C   UNL     1      32.906 -12.016 -23.258  0.00  0.00    +0.006 C 
ATOM     35  C   UNL     1      32.071 -12.104 -22.144  0.00  0.00    +0.075 C 
BRANCH  35  37
ATOM     36  O   UNL     1      30.988 -10.000 -22.487  0.00  0.00    -0.245 OA
ATOM     37  C   UNL     1      31.049 -11.095 -21.920  0.00  0.00    +0.338 C 
BRANCH  37  38
ATOM     38  O   UNL     1      30.130 -11.482 -20.994  0.00  0.00    -0.477 OA
ATOM     39  H   UNL     1      30.409 -11.768 -20.146  0.00  0.00    +0.295 HD
ENDBRANCH  37  38
ENDBRANCH  35  37
ENDBRANCH  29  30
ENDBRANCH   2  29
TORSDOF 9
ENDMDL
MODEL 6
REMARK VINA RESULT:     -10.9      2.392      4.183
REMARK  Name = 68488178
REMARK  9 active torsions:
REMARK  status: ('A' for Active; 'I' for Inactive)
REMARK    1  A    between atoms: N_1  and  C_10
REMARK    2  A    between atoms: N_2  and  C_29
REMARK    3  A    between atoms: C_10  and  C_11
REMARK    4  A    between atoms: C_16  and  O_17
REMARK    5  A    between atoms: O_17  and  C_18
REMARK    6  A    between atoms: C_23  and  C_26
REMARK    7  A    between atoms: C_29  and  C_30
REMARK    8  A    between atoms: C_35  and  C_37
REMARK    9  A    between atoms: C_37  and  O_38
REMARK                            x       y       z     vdW  Elec       q    Type
REMARK                         _______ _______ _______ _____ _____    ______ ____
ROOT
ATOM      1  N   UNL     1      33.313 -14.508 -22.671  0.00  0.00    +0.388 N 
ATOM      2  N   UNL     1      31.634 -12.712 -21.327  0.00  0.00    +0.388 N 
ATOM      3  C   UNL     1      33.638 -13.964 -21.330  0.00  0.00    -0.081 C 
ATOM      4  C   UNL     1      32.657 -12.269 -22.306  0.00  0.00    -0.081 C 
ATOM      5  C   UNL     1      33.977 -12.507 -21.594  0.00  0.00    -0.046 C 
ATOM      6  C   UNL     1      32.716 -13.358 -23.394  0.00  0.00    -0.098 C 
ATOM      7  C   UNL     1      32.297 -13.816 -20.588  0.00  0.00    -0.098 C 
ATOM      8  H   UNL     1      32.679 -15.306 -22.615  0.00  0.00    -0.079 HD
ATOM      9  H   UNL     1      30.772 -13.013 -21.785  0.00  0.00    -0.079 HD
ENDROOT
BRANCH   1  10
ATOM     10  C   UNL     1      34.484 -15.041 -23.359  0.00  0.00    -0.050 C 
BRANCH  10  11
ATOM     11  C   UNL     1      34.851 -16.413 -22.861  0.00  0.00    -0.043 C 
ATOM     12  C   UNL     1      34.731 -17.516 -23.707  0.00  0.00    -0.003 C 
ATOM     13  C   UNL     1      35.312 -16.581 -21.555  0.00  0.00    -0.003 C 
ATOM     14  C   UNL     1      35.071 -18.788 -23.246  0.00  0.00    +0.037 C 
ATOM     15  C   UNL     1      35.652 -17.853 -21.094  0.00  0.00    +0.037 C 
ATOM     16  C   UNL     1      35.532 -18.957 -21.940  0.00  0.00    +0.145 C 
BRANCH  16  17
ATOM     17  O   UNL     1      35.863 -20.198 -21.490  0.00  0.00    -0.453 OA
BRANCH  17  18
ATOM     18  C   UNL     1      35.091 -20.743 -20.478  0.00  0.00    +0.145 C 
ATOM     19  C   UNL     1      35.666 -21.618 -19.556  0.00  0.00    +0.038 C 
ATOM     20  C   UNL     1      33.738 -20.418 -20.380  0.00  0.00    +0.038 C 
ATOM     21  C   UNL     1      34.888 -22.170 -18.539  0.00  0.00    +0.008 C 
ATOM     22  C   UNL     1      32.960 -20.969 -19.363  0.00  0.00    +0.008 C 
ATOM     23  C   UNL     1      33.535 -21.846 -18.441  0.00  0.00    +0.054 C 
BRANCH  23  26
ATOM     24  O   UNL     1      33.415 -23.150 -16.469  0.00  0.00    -0.431 OA
ATOM     25  N   UNL     1      31.434 -22.330 -17.191  0.00  0.00    -0.206 NA
ATOM     26  C   UNL     1      32.730 -22.416 -17.389  0.00  0.00    +0.230 C 
ATOM     27  C   UNL     1      32.445 -23.566 -15.608  0.00  0.00    +0.202 C 
ATOM     28  C   UNL     1      31.246 -23.066 -16.049  0.00  0.00    +0.143 C 
ENDBRANCH  23  26
ENDBRANCH  17  18
ENDBRANCH  16  17
ENDBRANCH  10  11
ENDBRANCH   1  10
BRANCH   2  29
ATOM     29  C   UNL     1      31.203 -11.639 -20.440  0.00  0.00    -0.050 C 
BRANCH  29  30
ATOM     30  C   UNL     1      31.369 -10.285 -21.077  0.00  0.00    -0.043 C 
ATOM     31  C   UNL     1      32.007  -9.260 -20.378  0.00  0.00    -0.006 C 
ATOM     32  C   UNL     1      30.883 -10.055 -22.364  0.00  0.00    -0.006 C 
ATOM     33  C   UNL     1      32.160  -8.005 -20.968  0.00  0.00    +0.006 C 
ATOM     34  C   UNL     1      31.036  -8.800 -22.953  0.00  0.00    +0.006 C 
ATOM     35  C   UNL     1      31.676  -7.775 -22.256  0.00  0.00    +0.075 C 
BRANCH  35  37
ATOM     36  O   UNL     1      32.725  -5.653 -22.601  0.00  0.00    -0.245 OA
ATOM     37  C   UNL     1      31.836  -6.467 -22.870  0.00  0.00    +0.338 C 
BRANCH  37  38
ATOM     38  O   UNL     1      30.882  -6.212 -23.807  0.00  0.00    -0.477 OA
ATOM     39  H   UNL     1      30.810  -6.759 -24.565  0.00  0.00    +0.295 HD
ENDBRANCH  37  38
ENDBRANCH  35  37
ENDBRANCH  29  30
ENDBRANCH   2  29
TORSDOF 9
ENDMDL
MODEL 7
REMARK VINA RESULT:     -10.7      2.438     13.308
REMARK  Name = 68488178
REMARK  9 active torsions:
REMARK  status: ('A' for Active; 'I' for Inactive)
REMARK    1  A    between atoms: N_1  and  C_10
REMARK    2  A    between atoms: N_2  and  C_29
REMARK    3  A    between atoms: C_10  and  C_11
REMARK    4  A    between atoms: C_16  and  O_17
REMARK    5  A    between atoms: O_17  and  C_18
REMARK    6  A    between atoms: C_23  and  C_26
REMARK    7  A    between atoms: C_29  and  C_30
REMARK    8  A    between atoms: C_35  and  C_37
REMARK    9  A    between atoms: C_37  and  O_38
REMARK                            x       y       z     vdW  Elec       q    Type
REMARK                         _______ _______ _______ _____ _____    ______ ____
ROOT
ATOM      1  N   UNL     1      34.746 -16.957 -21.688  0.00  0.00    +0.388 N 
ATOM      2  N   UNL     1      35.279 -19.532 -20.719  0.00  0.00    +0.388 N 
ATOM      3  C   UNL     1      35.016 -18.107 -22.585  0.00  0.00    -0.081 C 
ATOM      4  C   UNL     1      36.339 -18.508 -20.890  0.00  0.00    -0.081 C 
ATOM      5  C   UNL     1      36.496 -18.386 -22.395  0.00  0.00    -0.046 C 
ATOM      6  C   UNL     1      35.688 -17.152 -20.557  0.00  0.00    -0.098 C 
ATOM      7  C   UNL     1      34.401 -19.342 -21.901  0.00  0.00    -0.098 C 
ATOM      8  H   UNL     1      33.772 -16.931 -21.384  0.00  0.00    -0.079 HD
ATOM      9  H   UNL     1      34.777 -19.418 -19.838  0.00  0.00    -0.079 HD
ENDROOT
BRANCH   1  10
ATOM     10  C   UNL     1      34.940 -15.672 -22.349  0.00  0.00    -0.050 C 
BRANCH  10  11
ATOM     11  C   UNL     1      33.912 -14.660 -21.920  0.00  0.00    -0.043 C 
ATOM     12  C   UNL     1      33.562 -14.549 -20.574  0.00  0.00    -0.003 C 
ATOM     13  C   UNL     1      33.309 -13.833 -22.868  0.00  0.00    -0.003 C 
ATOM     14  C   UNL     1      32.609 -13.611 -20.176  0.00  0.00    +0.037 C 
ATOM     15  C   UNL     1      32.356 -12.895 -22.470  0.00  0.00    +0.037 C 
ATOM     16  C   UNL     1      32.006 -12.784 -21.124  0.00  0.00    +0.145 C 
BRANCH  16  17
ATOM     17  O   UNL     1      31.075 -11.870 -20.736  0.00  0.00    -0.453 OA
BRANCH  17  18
ATOM     18  C   UNL     1      31.282 -10.548 -21.097  0.00  0.00    +0.145 C 
ATOM     19  C   UNL     1      31.796  -9.644 -20.169  0.00  0.00    +0.038 C 
ATOM     20  C   UNL     1      30.974 -10.122 -22.389  0.00  0.00    +0.038 C 
ATOM     21  C   UNL     1      32.001  -8.313 -20.531  0.00  0.00    +0.008 C 
ATOM     22  C   UNL     1      31.178  -8.791 -22.752  0.00  0.00    +0.008 C 
ATOM     23  C   UNL     1      31.693  -7.886 -21.823  0.00  0.00    +0.054 C 
BRANCH  23  26
ATOM     24  O   UNL     1      31.471  -5.590 -21.292  0.00  0.00    -0.431 OA
ATOM     25  N   UNL     1      32.453  -6.016 -23.284  0.00  0.00    -0.206 NA
ATOM     26  C   UNL     1      31.904  -6.509 -22.198  0.00  0.00    +0.230 C 
ATOM     27  C   UNL     1      31.781  -4.398 -21.875  0.00  0.00    +0.202 C 
ATOM     28  C   UNL     1      32.378  -4.662 -23.083  0.00  0.00    +0.143 C 
ENDBRANCH  23  26
ENDBRANCH  17  18
ENDBRANCH  16  17
ENDBRANCH  10  11
ENDBRANCH   1  10
BRANCH   2  29
ATOM     29  C   UNL     1      35.814 -20.887 -20.645  0.00  0.00    -0.050 C 
BRANCH  29  30
ATOM     30  C   UNL     1      35.585 -21.506 -19.292  0.00  0.00    -0.043 C 
ATOM     31  C   UNL     1      34.380 -22.152 -19.016  0.00  0.00    -0.006 C 
ATOM     32  C   UNL     1      36.578 -21.433 -18.314  0.00  0.00    -0.006 C 
ATOM     33  C   UNL     1      34.168 -22.725 -17.762  0.00  0.00    +0.006 C 
ATOM     34  C   UNL     1      36.366 -22.006 -17.061  0.00  0.00    +0.006 C 
ATOM     35  C   UNL     1      35.161 -22.653 -16.784  0.00  0.00    +0.075 C 
BRANCH  35  37
ATOM     36  O   UNL     1      35.046 -24.453 -15.213  0.00  0.00    -0.245 OA
ATOM     37  C   UNL     1      34.940 -23.251 -15.478  0.00  0.00    +0.338 C 
BRANCH  37  38
ATOM     38  O   UNL     1      34.592 -22.331 -14.537  0.00  0.00    -0.477 OA
ATOM     39  H   UNL     1      33.903 -22.519 -13.930  0.00  0.00    +0.295 HD
ENDBRANCH  37  38
ENDBRANCH  35  37
ENDBRANCH  29  30
ENDBRANCH   2  29
TORSDOF 9
ENDMDL
MODEL 8
REMARK VINA RESULT:     -10.6      2.319      3.067
REMARK  Name = 68488178
REMARK  9 active torsions:
REMARK  status: ('A' for Active; 'I' for Inactive)
REMARK    1  A    between atoms: N_1  and  C_10
REMARK    2  A    between atoms: N_2  and  C_29
REMARK    3  A    between atoms: C_10  and  C_11
REMARK    4  A    between atoms: C_16  and  O_17
REMARK    5  A    between atoms: O_17  and  C_18
REMARK    6  A    between atoms: C_23  and  C_26
REMARK    7  A    between atoms: C_29  and  C_30
REMARK    8  A    between atoms: C_35  and  C_37
REMARK    9  A    between atoms: C_37  and  O_38
REMARK                            x       y       z     vdW  Elec       q    Type
REMARK                         _______ _______ _______ _____ _____    ______ ____
ROOT
ATOM      1  N   UNL     1      32.750 -10.878 -22.547  0.00  0.00    +0.388 N 
ATOM      2  N   UNL     1      33.393  -8.203 -22.015  0.00  0.00    +0.388 N 
ATOM      3  C   UNL     1      32.720  -9.827 -23.593  0.00  0.00    -0.081 C 
ATOM      4  C   UNL     1      32.028  -8.750 -21.820  0.00  0.00    -0.081 C 
ATOM      5  C   UNL     1      31.515  -8.977 -23.231  0.00  0.00    -0.046 C 
ATOM      6  C   UNL     1      32.208 -10.202 -21.341  0.00  0.00    -0.098 C 
ATOM      7  C   UNL     1      33.867  -8.855 -23.262  0.00  0.00    -0.098 C 
ATOM      8  H   UNL     1      33.691 -11.243 -22.400  0.00  0.00    -0.079 HD
ATOM      9  H   UNL     1      34.000  -8.398 -21.218  0.00  0.00    -0.079 HD
ENDROOT
BRANCH   1  10
ATOM     10  C   UNL     1      31.972 -12.056 -22.913  0.00  0.00    -0.050 C 
BRANCH  10  11
ATOM     11  C   UNL     1      32.850 -13.253 -23.162  0.00  0.00    -0.043 C 
ATOM     12  C   UNL     1      32.804 -13.906 -24.395  0.00  0.00    -0.003 C 
ATOM     13  C   UNL     1      33.709 -13.709 -22.162  0.00  0.00    -0.003 C 
ATOM     14  C   UNL     1      33.617 -15.015 -24.627  0.00  0.00    +0.037 C 
ATOM     15  C   UNL     1      34.522 -14.818 -22.394  0.00  0.00    +0.037 C 
ATOM     16  C   UNL     1      34.476 -15.471 -23.626  0.00  0.00    +0.145 C 
BRANCH  16  17
ATOM     17  O   UNL     1      35.269 -16.554 -23.852  0.00  0.00    -0.453 OA
BRANCH  17  18
ATOM     18  C   UNL     1      35.299 -17.544 -22.883  0.00  0.00    +0.145 C 
ATOM     19  C   UNL     1      34.546 -18.706 -23.050  0.00  0.00    +0.038 C 
ATOM     20  C   UNL     1      36.081 -17.377 -21.740  0.00  0.00    +0.038 C 
ATOM     21  C   UNL     1      34.574 -19.700 -22.073  0.00  0.00    +0.008 C 
ATOM     22  C   UNL     1      36.108 -18.372 -20.763  0.00  0.00    +0.008 C 
ATOM     23  C   UNL     1      35.355 -19.535 -20.930  0.00  0.00    +0.054 C 
BRANCH  23  26
ATOM     24  O   UNL     1      36.505 -20.589 -19.149  0.00  0.00    -0.431 OA
ATOM     25  N   UNL     1      34.483 -21.478 -19.635  0.00  0.00    -0.206 NA
ATOM     26  C   UNL     1      35.383 -20.564 -19.919  0.00  0.00    +0.230 C 
ATOM     27  C   UNL     1      36.283 -21.627 -18.296  0.00  0.00    +0.202 C 
ATOM     28  C   UNL     1      35.055 -22.163 -18.594  0.00  0.00    +0.143 C 
ENDBRANCH  23  26
ENDBRANCH  17  18
ENDBRANCH  16  17
ENDBRANCH  10  11
ENDBRANCH   1  10
BRANCH   2  29
ATOM     29  C   UNL     1      33.406  -6.748 -22.117  0.00  0.00    -0.050 C 
BRANCH  29  30
ATOM     30  C   UNL     1      33.775  -6.287 -23.502  0.00  0.00    -0.043 C 
ATOM     31  C   UNL     1      32.779  -5.866 -24.384  0.00  0.00    -0.006 C 
ATOM     32  C   UNL     1      35.111  -6.282 -23.903  0.00  0.00    -0.006 C 
ATOM     33  C   UNL     1      33.121  -5.439 -25.667  0.00  0.00    +0.006 C 
ATOM     34  C   UNL     1      35.452  -5.856 -25.186  0.00  0.00    +0.006 C 
ATOM     35  C   UNL     1      34.457  -5.433 -26.069  0.00  0.00    +0.075 C 
BRANCH  35  37
ATOM     36  O   UNL     1      35.004  -3.815 -27.743  0.00  0.00    -0.245 OA
ATOM     37  C   UNL     1      34.812  -4.988 -27.406  0.00  0.00    +0.338 C 
BRANCH  37  38
ATOM     38  O   UNL     1      34.920  -6.020 -28.287  0.00  0.00    -0.477 OA
ATOM     39  H   UNL     1      34.753  -6.898 -28.003  0.00  0.00    +0.295 HD
ENDBRANCH  37  38
ENDBRANCH  35  37
ENDBRANCH  29  30
ENDBRANCH   2  29
TORSDOF 9
ENDMDL
MODEL 9
REMARK VINA RESULT:     -10.0      3.694      7.251
REMARK  Name = 68488178
REMARK  9 active torsions:
REMARK  status: ('A' for Active; 'I' for Inactive)
REMARK    1  A    between atoms: N_1  and  C_10
REMARK    2  A    between atoms: N_2  and  C_29
REMARK    3  A    between atoms: C_10  and  C_11
REMARK    4  A    between atoms: C_16  and  O_17
REMARK    5  A    between atoms: O_17  and  C_18
REMARK    6  A    between atoms: C_23  and  C_26
REMARK    7  A    between atoms: C_29  and  C_30
REMARK    8  A    between atoms: C_35  and  C_37
REMARK    9  A    between atoms: C_37  and  O_38
REMARK                            x       y       z     vdW  Elec       q    Type
REMARK                         _______ _______ _______ _____ _____    ______ ____
ROOT
ATOM      1  N   UNL     1      34.809 -17.748 -22.067  0.00  0.00    +0.388 N 
ATOM      2  N   UNL     1      33.807 -15.726 -23.729  0.00  0.00    +0.388 N 
ATOM      3  C   UNL     1      35.384 -16.381 -22.096  0.00  0.00    -0.081 C 
ATOM      4  C   UNL     1      34.824 -16.705 -24.186  0.00  0.00    -0.081 C 
ATOM      5  C   UNL     1      36.084 -16.303 -23.441  0.00  0.00    -0.046 C 
ATOM      6  C   UNL     1      34.489 -18.036 -23.487  0.00  0.00    -0.098 C 
ATOM      7  C   UNL     1      34.204 -15.421 -22.331  0.00  0.00    -0.098 C 
ATOM      8  H   UNL     1      33.987 -17.803 -21.463  0.00  0.00    -0.079 HD
ATOM      9  H   UNL     1      32.860 -16.102 -23.791  0.00  0.00    -0.079 HD
ENDROOT
BRANCH   1  10
ATOM     10  C   UNL     1      35.725 -18.730 -21.500  0.00  0.00    -0.050 C 
BRANCH  10  11
ATOM     11  C   UNL     1      35.002 -19.763 -20.677  0.00  0.00    -0.043 C 
ATOM     12  C   UNL     1      33.614 -19.704 -20.549  0.00  0.00    -0.003 C 
ATOM     13  C   UNL     1      35.719 -20.777 -20.043  0.00  0.00    -0.003 C 
ATOM     14  C   UNL     1      32.943 -20.661 -19.786  0.00  0.00    +0.037 C 
ATOM     15  C   UNL     1      35.049 -21.734 -19.280  0.00  0.00    +0.037 C 
ATOM     16  C   UNL     1      33.661 -21.675 -19.152  0.00  0.00    +0.145 C 
BRANCH  16  17
ATOM     17  O   UNL     1      33.007 -22.608 -18.407  0.00  0.00    -0.453 OA
BRANCH  17  18
ATOM     18  C   UNL     1      33.487 -22.868 -17.134  0.00  0.00    +0.145 C 
ATOM     19  C   UNL     1      34.857 -22.803 -16.879  0.00  0.00    +0.038 C 
ATOM     20  C   UNL     1      32.601 -23.195 -16.107  0.00  0.00    +0.038 C 
ATOM     21  C   UNL     1      35.341 -23.068 -15.599  0.00  0.00    +0.008 C 
ATOM     22  C   UNL     1      33.085 -23.459 -14.826  0.00  0.00    +0.008 C 
ATOM     23  C   UNL     1      34.456 -23.395 -14.571  0.00  0.00    +0.054 C 
BRANCH  23  26
ATOM     24  O   UNL     1      36.189 -23.158 -12.976  0.00  0.00    -0.431 OA
ATOM     25  N   UNL     1      34.396 -24.340 -12.266  0.00  0.00    -0.206 NA
ATOM     26  C   UNL     1      34.957 -23.669 -13.247  0.00  0.00    +0.230 C 
ATOM     27  C   UNL     1      36.422 -23.551 -11.693  0.00  0.00    +0.202 C 
ATOM     28  C   UNL     1      35.332 -24.267 -11.266  0.00  0.00    +0.143 C 
ENDBRANCH  23  26
ENDBRANCH  17  18
ENDBRANCH  16  17
ENDBRANCH  10  11
ENDBRANCH   1  10
BRANCH   2  29
ATOM     29  C   UNL     1      33.764 -14.530 -24.561  0.00  0.00    -0.050 C 
BRANCH  29  30
ATOM     30  C   UNL     1      33.311 -13.322 -23.785  0.00  0.00    -0.043 C 
ATOM     31  C   UNL     1      33.863 -12.070 -24.059  0.00  0.00    -0.006 C 
ATOM     32  C   UNL     1      32.341 -13.455 -22.791  0.00  0.00    -0.006 C 
ATOM     33  C   UNL     1      33.443 -10.952 -23.339  0.00  0.00    +0.006 C 
ATOM     34  C   UNL     1      31.923 -12.337 -22.071  0.00  0.00    +0.006 C 
ATOM     35  C   UNL     1      32.472 -11.084 -22.345  0.00  0.00    +0.075 C 
BRANCH  35  37
ATOM     36  O   UNL     1      31.098  -9.893 -20.792  0.00  0.00    -0.245 OA
ATOM     37  C   UNL     1      32.035  -9.919 -21.596  0.00  0.00    +0.338 C 
BRANCH  37  38
ATOM     38  O   UNL     1      32.783  -8.814 -21.869  0.00  0.00    -0.477 OA
ATOM     39  H   UNL     1      33.110  -8.672 -22.735  0.00  0.00    +0.295 HD
ENDBRANCH  37  38
ENDBRANCH  35  37
ENDBRANCH  29  30
ENDBRANCH   2  29
TORSDOF 9
ENDMDL
