MODEL 1
REMARK VINA RESULT:     -12.8      0.000      0.000
REMARK  Name = 115237
REMARK  5 active torsions:
REMARK  status: ('A' for Active; 'I' for Inactive)
REMARK    1  A    between atoms: N_1  and  C_18
REMARK    2  A    between atoms: C_2  and  C_11
REMARK    3  A    between atoms: C_18  and  C_19
REMARK    4  A    between atoms: C_19  and  C_23
REMARK    5  A    between atoms: C_25  and  O_32
REMARK                            x       y       z     vdW  Elec       q    Type
REMARK                         _______ _______ _______ _____ _____    ______ ____
ROOT
ATOM      1  N   UNL     1      34.151 -15.146 -22.770  0.00  0.00    +0.387 N 
ATOM      2  C   UNL     1      35.843 -17.235 -21.596  0.00  0.00    +0.039 C 
ATOM      3  C   UNL     1      35.078 -16.214 -20.738  0.00  0.00    -0.017 C 
ATOM      4  C   UNL     1      35.141 -17.407 -22.954  0.00  0.00    -0.017 C 
ATOM      5  C   UNL     1      34.853 -14.906 -21.501  0.00  0.00    -0.077 C 
ATOM      6  C   UNL     1      34.914 -16.056 -23.635  0.00  0.00    -0.077 C 
ATOM      7  H   UNL     1      33.258 -15.591 -22.556  0.00  0.00    -0.080 HD
ENDROOT
BRANCH   2  11
ATOM      8  F   UNL     1      33.327 -22.856 -18.896  0.00  0.00    -0.204 F 
ATOM      9  O   UNL     1      37.163 -20.146 -19.934  0.00  0.00    -0.354 OA
ATOM     10  N   UNL     1      37.304 -18.917 -20.566  0.00  0.00    -0.081 NA
ATOM     11  C   UNL     1      36.064 -18.549 -20.882  0.00  0.00    +0.100 A 
ATOM     12  C   UNL     1      35.096 -19.484 -20.487  0.00  0.00    +0.054 A 
ATOM     13  C   UNL     1      35.844 -20.482 -19.889  0.00  0.00    +0.179 A 
ATOM     14  C   UNL     1      33.701 -19.623 -20.554  0.00  0.00    +0.007 C 
ATOM     15  C   UNL     1      35.306 -21.641 -19.336  0.00  0.00    +0.070 C 
ATOM     16  C   UNL     1      33.126 -20.778 -20.005  0.00  0.00    +0.030 C 
ATOM     17  C   UNL     1      33.916 -21.766 -19.409  0.00  0.00    +0.143 C 
ENDBRANCH   2  11
BRANCH   1  18
ATOM     18  C   UNL     1      33.892 -13.881 -23.458  0.00  0.00    -0.076 C 
BRANCH  18  19
ATOM     19  C   UNL     1      32.437 -13.476 -23.267  0.00  0.00    -0.007 C 
BRANCH  19  23
ATOM     20  O   UNL     1      32.710 -10.788 -23.934  0.00  0.00    -0.274 OA
ATOM     21  N   UNL     1      32.234  -9.987 -21.798  0.00  0.00    -0.235 N 
ATOM     22  N   UNL     1      31.946 -11.528 -20.025  0.00  0.00    -0.397 NA
ATOM     23  C   UNL     1      32.315 -12.389 -22.239  0.00  0.00    +0.123 C 
ATOM     24  C   UNL     1      32.384  -8.603 -22.253  0.00  0.00    +0.100 C 
ATOM     25  C   UNL     1      31.801  -9.185 -19.463  0.00  0.00    +0.177 C 
ATOM     26  C   UNL     1      31.758  -7.570 -21.336  0.00  0.00    +0.025 C 
ATOM     27  C   UNL     1      32.252  -7.813 -19.926  0.00  0.00    +0.040 C 
ATOM     28  C   UNL     1      32.025 -10.311 -20.468  0.00  0.00    +0.192 C 
ATOM     29  C   UNL     1      32.435 -10.989 -22.752  0.00  0.00    +0.237 C 
ATOM     30  C   UNL     1      32.092 -12.558 -20.921  0.00  0.00    +0.097 C 
ATOM     31  C   UNL     1      31.997 -13.914 -20.273  0.00  0.00    +0.062 C 
BRANCH  25  32
ATOM     32  O   UNL     1      32.489  -9.513 -18.265  0.00  0.00    -0.376 OA
ATOM     33  H   UNL     1      33.325  -9.023 -18.228  0.00  0.00    +0.211 HD
ENDBRANCH  25  32
ENDBRANCH  19  23
ENDBRANCH  18  19
ENDBRANCH   1  18
TORSDOF 5
ENDMDL
MODEL 2
REMARK VINA RESULT:     -12.6      3.638      6.652
REMARK  Name = 115237
REMARK  5 active torsions:
REMARK  status: ('A' for Active; 'I' for Inactive)
REMARK    1  A    between atoms: N_1  and  C_18
REMARK    2  A    between atoms: C_2  and  C_11
REMARK    3  A    between atoms: C_18  and  C_19
REMARK    4  A    between atoms: C_19  and  C_23
REMARK    5  A    between atoms: C_25  and  O_32
REMARK                            x       y       z     vdW  Elec       q    Type
REMARK                         _______ _______ _______ _____ _____    ______ ____
ROOT
ATOM      1  N   UNL     1      34.577 -20.471 -20.020  0.00  0.00    +0.387 N 
ATOM      2  C   UNL     1      34.283 -22.584 -18.006  0.00  0.00    +0.039 C 
ATOM      3  C   UNL     1      35.631 -21.906 -18.301  0.00  0.00    -0.017 C 
ATOM      4  C   UNL     1      33.130 -21.639 -18.387  0.00  0.00    -0.017 C 
ATOM      5  C   UNL     1      35.690 -21.390 -19.740  0.00  0.00    -0.077 C 
ATOM      6  C   UNL     1      33.280 -21.132 -19.823  0.00  0.00    -0.077 C 
ATOM      7  H   UNL     1      34.637 -19.694 -19.360  0.00  0.00    -0.080 HD
ENDROOT
BRANCH   2  11
ATOM      8  F   UNL     1      30.506 -24.061 -12.642  0.00  0.00    -0.204 F 
ATOM      9  O   UNL     1      34.855 -23.863 -14.688  0.00  0.00    -0.354 OA
ATOM     10  N   UNL     1      35.287 -23.460 -15.945  0.00  0.00    -0.081 NA
ATOM     11  C   UNL     1      34.180 -23.087 -16.585  0.00  0.00    +0.100 A 
ATOM     12  C   UNL     1      33.022 -23.224 -15.805  0.00  0.00    +0.054 A 
ATOM     13  C   UNL     1      33.503 -23.722 -14.607  0.00  0.00    +0.179 A 
ATOM     14  C   UNL     1      31.644 -22.999 -15.946  0.00  0.00    +0.007 C 
ATOM     15  C   UNL     1      32.706 -24.023 -13.506  0.00  0.00    +0.070 C 
ATOM     16  C   UNL     1      30.812 -23.290 -14.856  0.00  0.00    +0.030 C 
ATOM     17  C   UNL     1      31.335 -23.793 -13.661  0.00  0.00    +0.143 C 
ENDBRANCH   2  11
BRANCH   1  18
ATOM     18  C   UNL     1      34.681 -19.942 -21.380  0.00  0.00    -0.076 C 
BRANCH  18  19
ATOM     19  C   UNL     1      35.594 -18.724 -21.393  0.00  0.00    -0.007 C 
BRANCH  19  23
ATOM     20  O   UNL     1      35.115 -16.126 -20.517  0.00  0.00    -0.274 OA
ATOM     21  N   UNL     1      34.482 -15.308 -22.605  0.00  0.00    -0.235 N 
ATOM     22  N   UNL     1      34.286 -16.810 -24.423  0.00  0.00    -0.397 NA
ATOM     23  C   UNL     1      35.059 -17.664 -22.313  0.00  0.00    +0.123 C 
ATOM     24  C   UNL     1      34.273 -13.969 -22.048  0.00  0.00    +0.100 C 
ATOM     25  C   UNL     1      33.726 -14.503 -24.854  0.00  0.00    +0.177 C 
ATOM     26  C   UNL     1      34.241 -12.859 -23.080  0.00  0.00    +0.025 C 
ATOM     27  C   UNL     1      33.256 -13.236 -24.166  0.00  0.00    +0.040 C 
ATOM     28  C   UNL     1      34.168 -15.622 -23.917  0.00  0.00    +0.192 C 
ATOM     29  C   UNL     1      34.899 -16.302 -21.715  0.00  0.00    +0.237 C 
ATOM     30  C   UNL     1      34.733 -17.823 -23.610  0.00  0.00    +0.097 C 
ATOM     31  C   UNL     1      34.806 -19.150 -24.317  0.00  0.00    +0.062 C 
BRANCH  25  32
ATOM     32  O   UNL     1      32.674 -14.995 -25.672  0.00  0.00    -0.376 OA
ATOM     33  H   UNL     1      32.581 -15.951 -25.538  0.00  0.00    +0.211 HD
ENDBRANCH  25  32
ENDBRANCH  19  23
ENDBRANCH  18  19
ENDBRANCH   1  18
TORSDOF 5
ENDMDL
MODEL 3
REMARK VINA RESULT:     -12.5      4.860     10.470
REMARK  Name = 115237
REMARK  5 active torsions:
REMARK  status: ('A' for Active; 'I' for Inactive)
REMARK    1  A    between atoms: N_1  and  C_18
REMARK    2  A    between atoms: C_2  and  C_11
REMARK    3  A    between atoms: C_18  and  C_19
REMARK    4  A    between atoms: C_19  and  C_23
REMARK    5  A    between atoms: C_25  and  O_32
REMARK                            x       y       z     vdW  Elec       q    Type
REMARK                         _______ _______ _______ _____ _____    ______ ____
ROOT
ATOM      1  N   UNL     1      35.825 -19.953 -19.540  0.00  0.00    +0.387 N 
ATOM      2  C   UNL     1      35.384 -18.921 -22.250  0.00  0.00    +0.039 C 
ATOM      3  C   UNL     1      34.239 -19.449 -21.372  0.00  0.00    -0.017 C 
ATOM      4  C   UNL     1      36.544 -18.440 -21.362  0.00  0.00    -0.017 C 
ATOM      5  C   UNL     1      34.741 -20.493 -20.373  0.00  0.00    -0.077 C 
ATOM      6  C   UNL     1      36.963 -19.521 -20.363  0.00  0.00    -0.077 C 
ATOM      7  H   UNL     1      35.465 -19.134 -19.048  0.00  0.00    -0.080 HD
ENDROOT
BRANCH   2  11
ATOM      8  F   UNL     1      33.849 -12.511 -23.584  0.00  0.00    -0.204 F 
ATOM      9  O   UNL     1      34.278 -17.048 -25.122  0.00  0.00    -0.354 OA
ATOM     10  N   UNL     1      34.663 -18.224 -24.491  0.00  0.00    -0.081 NA
ATOM     11  C   UNL     1      34.928 -17.868 -23.235  0.00  0.00    +0.100 A 
ATOM     12  C   UNL     1      34.737 -16.499 -23.000  0.00  0.00    +0.054 A 
ATOM     13  C   UNL     1      34.324 -16.020 -24.231  0.00  0.00    +0.179 A 
ATOM     14  C   UNL     1      34.856 -15.605 -21.925  0.00  0.00    +0.007 C 
ATOM     15  C   UNL     1      34.011 -14.689 -24.489  0.00  0.00    +0.070 C 
ATOM     16  C   UNL     1      34.548 -14.256 -22.150  0.00  0.00    +0.030 C 
ATOM     17  C   UNL     1      34.134 -13.809 -23.410  0.00  0.00    +0.143 C 
ENDBRANCH   2  11
BRANCH   1  18
ATOM     18  C   UNL     1      36.254 -20.943 -18.553  0.00  0.00    -0.076 C 
BRANCH  18  19
ATOM     19  C   UNL     1      35.427 -22.213 -18.700  0.00  0.00    -0.007 C 
BRANCH  19  23
ATOM     20  O   UNL     1      32.662 -22.405 -18.441  0.00  0.00    -0.274 OA
ATOM     21  N   UNL     1      32.704 -23.125 -16.225  0.00  0.00    -0.235 N 
ATOM     22  N   UNL     1      34.772 -23.212 -15.078  0.00  0.00    -0.397 NA
ATOM     23  C   UNL     1      34.778 -22.583 -17.398  0.00  0.00    +0.123 C 
ATOM     24  C   UNL     1      31.242 -23.208 -16.195  0.00  0.00    +0.100 C 
ATOM     25  C   UNL     1      32.804 -23.811 -13.817  0.00  0.00    +0.177 C 
ATOM     26  C   UNL     1      30.685 -24.057 -15.068  0.00  0.00    +0.025 C 
ATOM     27  C   UNL     1      31.303 -23.597 -13.766  0.00  0.00    +0.040 C 
ATOM     28  C   UNL     1      33.481 -23.336 -15.098  0.00  0.00    +0.192 C 
ATOM     29  C   UNL     1      33.286 -22.696 -17.421  0.00  0.00    +0.237 C 
ATOM     30  C   UNL     1      35.408 -22.835 -16.234  0.00  0.00    +0.097 C 
ATOM     31  C   UNL     1      36.900 -22.712 -16.067  0.00  0.00    +0.062 C 
BRANCH  25  32
ATOM     32  O   UNL     1      33.399 -23.134 -12.719  0.00  0.00    -0.376 OA
ATOM     33  H   UNL     1      33.240 -22.182 -12.802  0.00  0.00    +0.211 HD
ENDBRANCH  25  32
ENDBRANCH  19  23
ENDBRANCH  18  19
ENDBRANCH   1  18
TORSDOF 5
ENDMDL
MODEL 4
REMARK VINA RESULT:     -12.1      1.175      1.977
REMARK  Name = 115237
REMARK  5 active torsions:
REMARK  status: ('A' for Active; 'I' for Inactive)
REMARK    1  A    between atoms: N_1  and  C_18
REMARK    2  A    between atoms: C_2  and  C_11
REMARK    3  A    between atoms: C_18  and  C_19
REMARK    4  A    between atoms: C_19  and  C_23
REMARK    5  A    between atoms: C_25  and  O_32
REMARK                            x       y       z     vdW  Elec       q    Type
REMARK                         _______ _______ _______ _____ _____    ______ ____
ROOT
ATOM      1  N   UNL     1      34.147 -15.208 -22.791  0.00  0.00    +0.387 N 
ATOM      2  C   UNL     1      35.832 -17.263 -21.551  0.00  0.00    +0.039 C 
ATOM      3  C   UNL     1      34.999 -16.270 -20.725  0.00  0.00    -0.017 C 
ATOM      4  C   UNL     1      35.202 -17.441 -22.943  0.00  0.00    -0.017 C 
ATOM      5  C   UNL     1      34.779 -14.962 -21.488  0.00  0.00    -0.077 C 
ATOM      6  C   UNL     1      34.974 -16.091 -23.625  0.00  0.00    -0.077 C 
ATOM      7  H   UNL     1      33.256 -15.677 -22.625  0.00  0.00    -0.080 HD
ENDROOT
BRANCH   2  11
ATOM      8  F   UNL     1      33.308 -22.883 -18.854  0.00  0.00    -0.204 F 
ATOM      9  O   UNL     1      37.147 -20.176 -19.886  0.00  0.00    -0.354 OA
ATOM     10  N   UNL     1      37.290 -18.946 -20.518  0.00  0.00    -0.081 NA
ATOM     11  C   UNL     1      36.051 -18.578 -20.837  0.00  0.00    +0.100 A 
ATOM     12  C   UNL     1      35.082 -19.512 -20.443  0.00  0.00    +0.054 A 
ATOM     13  C   UNL     1      35.828 -20.511 -19.843  0.00  0.00    +0.179 A 
ATOM     14  C   UNL     1      33.687 -19.650 -20.512  0.00  0.00    +0.007 C 
ATOM     15  C   UNL     1      35.288 -21.669 -19.291  0.00  0.00    +0.070 C 
ATOM     16  C   UNL     1      33.110 -20.805 -19.964  0.00  0.00    +0.030 C 
ATOM     17  C   UNL     1      33.898 -21.794 -19.366  0.00  0.00    +0.143 C 
ENDBRANCH   2  11
BRANCH   1  18
ATOM     18  C   UNL     1      33.890 -13.944 -23.482  0.00  0.00    -0.076 C 
BRANCH  18  19
ATOM     19  C   UNL     1      32.439 -13.529 -23.281  0.00  0.00    -0.007 C 
BRANCH  19  23
ATOM     20  O   UNL     1      31.736 -13.427 -20.590  0.00  0.00    -0.274 OA
ATOM     21  N   UNL     1      32.020 -11.124 -20.381  0.00  0.00    -0.235 N 
ATOM     22  N   UNL     1      32.520  -9.842 -22.306  0.00  0.00    -0.397 NA
ATOM     23  C   UNL     1      32.353 -12.230 -22.534  0.00  0.00    +0.123 C 
ATOM     24  C   UNL     1      31.651 -11.179 -18.964  0.00  0.00    +0.100 C 
ATOM     25  C   UNL     1      32.256  -8.633 -20.234  0.00  0.00    +0.177 C 
ATOM     26  C   UNL     1      32.073  -9.965 -18.158  0.00  0.00    +0.025 C 
ATOM     27  C   UNL     1      31.593  -8.721 -18.873  0.00  0.00    +0.040 C 
ATOM     28  C   UNL     1      32.249  -9.928 -21.041  0.00  0.00    +0.192 C 
ATOM     29  C   UNL     1      32.012 -12.333 -21.081  0.00  0.00    +0.237 C 
ATOM     30  C   UNL     1      32.569 -11.000 -23.041  0.00  0.00    +0.097 C 
ATOM     31  C   UNL     1      32.875 -10.757 -24.496  0.00  0.00    +0.062 C 
BRANCH  25  32
ATOM     32  O   UNL     1      31.605  -7.628 -20.997  0.00  0.00    -0.376 OA
ATOM     33  H   UNL     1      32.209  -7.297 -21.678  0.00  0.00    +0.211 HD
ENDBRANCH  25  32
ENDBRANCH  19  23
ENDBRANCH  18  19
ENDBRANCH   1  18
TORSDOF 5
ENDMDL
MODEL 5
REMARK VINA RESULT:     -12.0      3.933      6.968
REMARK  Name = 115237
REMARK  5 active torsions:
REMARK  status: ('A' for Active; 'I' for Inactive)
REMARK    1  A    between atoms: N_1  and  C_18
REMARK    2  A    between atoms: C_2  and  C_11
REMARK    3  A    between atoms: C_18  and  C_19
REMARK    4  A    between atoms: C_19  and  C_23
REMARK    5  A    between atoms: C_25  and  O_32
REMARK                            x       y       z     vdW  Elec       q    Type
REMARK                         _______ _______ _______ _____ _____    ______ ____
ROOT
ATOM      1  N   UNL     1      34.925 -20.483 -19.490  0.00  0.00    +0.387 N 
ATOM      2  C   UNL     1      36.152 -22.253 -17.499  0.00  0.00    +0.039 C 
ATOM      3  C   UNL     1      36.801 -20.931 -17.940  0.00  0.00    -0.017 C 
ATOM      4  C   UNL     1      34.631 -22.186 -17.719  0.00  0.00    -0.017 C 
ATOM      5  C   UNL     1      36.387 -20.558 -19.365  0.00  0.00    -0.077 C 
ATOM      6  C   UNL     1      34.296 -21.767 -19.152  0.00  0.00    -0.077 C 
ATOM      7  H   UNL     1      34.588 -19.784 -18.828  0.00  0.00    -0.080 HD
ENDROOT
BRANCH   2  11
ATOM      8  F   UNL     1      34.397 -24.904 -11.574  0.00  0.00    -0.204 F 
ATOM      9  O   UNL     1      37.770 -22.881 -14.342  0.00  0.00    -0.354 OA
ATOM     10  N   UNL     1      37.760 -22.417 -15.651  0.00  0.00    -0.081 NA
ATOM     11  C   UNL     1      36.521 -22.642 -16.086  0.00  0.00    +0.100 A 
ATOM     12  C   UNL     1      35.700 -23.238 -15.118  0.00  0.00    +0.054 A 
ATOM     13  C   UNL     1      36.539 -23.370 -14.026  0.00  0.00    +0.179 A 
ATOM     14  C   UNL     1      34.373 -23.682 -15.015  0.00  0.00    +0.007 C 
ATOM     15  C   UNL     1      36.159 -23.923 -12.807  0.00  0.00    +0.070 C 
ATOM     16  C   UNL     1      33.955 -24.244 -13.801  0.00  0.00    +0.030 C 
ATOM     17  C   UNL     1      34.834 -24.361 -12.719  0.00  0.00    +0.143 C 
ENDBRANCH   2  11
BRANCH   1  18
ATOM     18  C   UNL     1      34.548 -20.069 -20.842  0.00  0.00    -0.076 C 
BRANCH  18  19
ATOM     19  C   UNL     1      35.676 -19.262 -21.470  0.00  0.00    -0.007 C 
BRANCH  19  23
ATOM     20  O   UNL     1      35.253 -16.645 -20.620  0.00  0.00    -0.274 OA
ATOM     21  N   UNL     1      34.577 -15.850 -22.703  0.00  0.00    -0.235 N 
ATOM     22  N   UNL     1      34.315 -17.375 -24.493  0.00  0.00    -0.397 NA
ATOM     23  C   UNL     1      35.131 -18.209 -22.391  0.00  0.00    +0.123 C 
ATOM     24  C   UNL     1      34.400 -14.500 -22.162  0.00  0.00    +0.100 C 
ATOM     25  C   UNL     1      33.774 -15.067 -24.945  0.00  0.00    +0.177 C 
ATOM     26  C   UNL     1      34.356 -13.404 -23.209  0.00  0.00    +0.025 C 
ATOM     27  C   UNL     1      33.339 -13.785 -24.263  0.00  0.00    +0.040 C 
ATOM     28  C   UNL     1      34.226 -16.178 -24.002  0.00  0.00    +0.192 C 
ATOM     29  C   UNL     1      35.004 -16.836 -21.810  0.00  0.00    +0.237 C 
ATOM     30  C   UNL     1      34.769 -18.382 -23.677  0.00  0.00    +0.097 C 
ATOM     31  C   UNL     1      34.807 -19.720 -24.366  0.00  0.00    +0.062 C 
BRANCH  25  32
ATOM     32  O   UNL     1      32.695 -15.558 -25.728  0.00  0.00    -0.376 OA
ATOM     33  H   UNL     1      32.593 -15.006 -26.519  0.00  0.00    +0.211 HD
ENDBRANCH  25  32
ENDBRANCH  19  23
ENDBRANCH  18  19
ENDBRANCH   1  18
TORSDOF 5
ENDMDL
MODEL 6
REMARK VINA RESULT:     -11.9      4.044      7.140
REMARK  Name = 115237
REMARK  5 active torsions:
REMARK  status: ('A' for Active; 'I' for Inactive)
REMARK    1  A    between atoms: N_1  and  C_18
REMARK    2  A    between atoms: C_2  and  C_11
REMARK    3  A    between atoms: C_18  and  C_19
REMARK    4  A    between atoms: C_19  and  C_23
REMARK    5  A    between atoms: C_25  and  O_32
REMARK                            x       y       z     vdW  Elec       q    Type
REMARK                         _______ _______ _______ _____ _____    ______ ____
ROOT
ATOM      1  N   UNL     1      34.754 -20.664 -19.652  0.00  0.00    +0.387 N 
ATOM      2  C   UNL     1      34.679 -22.696 -17.537  0.00  0.00    +0.039 C 
ATOM      3  C   UNL     1      35.886 -21.767 -17.747  0.00  0.00    -0.017 C 
ATOM      4  C   UNL     1      33.407 -22.031 -18.090  0.00  0.00    -0.017 C 
ATOM      5  C   UNL     1      35.993 -21.317 -19.206  0.00  0.00    -0.077 C 
ATOM      6  C   UNL     1      33.604 -21.571 -19.536  0.00  0.00    -0.077 C 
ATOM      7  H   UNL     1      34.585 -19.862 -19.044  0.00  0.00    -0.080 HD
ENDROOT
BRANCH   2  11
ATOM      8  F   UNL     1      37.496 -24.590 -11.732  0.00  0.00    -0.204 F 
ATOM      9  O   UNL     1      33.514 -23.686 -14.275  0.00  0.00    -0.354 OA
ATOM     10  N   UNL     1      33.307 -23.270 -15.584  0.00  0.00    -0.081 NA
ATOM     11  C   UNL     1      34.528 -23.143 -16.101  0.00  0.00    +0.100 A 
ATOM     12  C   UNL     1      35.546 -23.457 -15.189  0.00  0.00    +0.054 A 
ATOM     13  C   UNL     1      34.851 -23.797 -14.041  0.00  0.00    +0.179 A 
ATOM     14  C   UNL     1      36.948 -23.500 -15.175  0.00  0.00    +0.007 C 
ATOM     15  C   UNL     1      35.451 -24.185 -12.848  0.00  0.00    +0.070 C 
ATOM     16  C   UNL     1      37.586 -23.888 -13.988  0.00  0.00    +0.030 C 
ATOM     17  C   UNL     1      36.849 -24.224 -12.848  0.00  0.00    +0.143 C 
ENDBRANCH   2  11
BRANCH   1  18
ATOM     18  C   UNL     1      34.894 -20.189 -21.028  0.00  0.00    -0.076 C 
BRANCH  18  19
ATOM     19  C   UNL     1      35.736 -18.921 -21.056  0.00  0.00    -0.007 C 
BRANCH  19  23
ATOM     20  O   UNL     1      35.155 -16.286 -20.373  0.00  0.00    -0.274 OA
ATOM     21  N   UNL     1      34.562 -15.632 -22.529  0.00  0.00    -0.235 N 
ATOM     22  N   UNL     1      34.465 -17.259 -24.245  0.00  0.00    -0.397 NA
ATOM     23  C   UNL     1      35.199 -17.943 -22.060  0.00  0.00    +0.123 C 
ATOM     24  C   UNL     1      34.297 -14.265 -22.072  0.00  0.00    +0.100 C 
ATOM     25  C   UNL     1      33.851 -15.005 -24.849  0.00  0.00    +0.177 C 
ATOM     26  C   UNL     1      34.264 -13.229 -23.178  0.00  0.00    +0.025 C 
ATOM     27  C   UNL     1      33.324 -13.710 -24.262  0.00  0.00    +0.040 C 
ATOM     28  C   UNL     1      34.297 -16.043 -23.825  0.00  0.00    +0.192 C 
ATOM     29  C   UNL     1      34.980 -16.550 -21.562  0.00  0.00    +0.237 C 
ATOM     30  C   UNL     1      34.916 -18.199 -23.353  0.00  0.00    +0.097 C 
ATOM     31  C   UNL     1      35.049 -19.569 -23.964  0.00  0.00    +0.062 C 
BRANCH  25  32
ATOM     32  O   UNL     1      32.839 -15.584 -25.660  0.00  0.00    -0.376 OA
ATOM     33  H   UNL     1      33.129 -15.588 -26.585  0.00  0.00    +0.211 HD
ENDBRANCH  25  32
ENDBRANCH  19  23
ENDBRANCH  18  19
ENDBRANCH   1  18
TORSDOF 5
ENDMDL
MODEL 7
REMARK VINA RESULT:     -11.7      4.843     11.694
REMARK  Name = 115237
REMARK  5 active torsions:
REMARK  status: ('A' for Active; 'I' for Inactive)
REMARK    1  A    between atoms: N_1  and  C_18
REMARK    2  A    between atoms: C_2  and  C_11
REMARK    3  A    between atoms: C_18  and  C_19
REMARK    4  A    between atoms: C_19  and  C_23
REMARK    5  A    between atoms: C_25  and  O_32
REMARK                            x       y       z     vdW  Elec       q    Type
REMARK                         _______ _______ _______ _____ _____    ______ ____
ROOT
ATOM      1  N   UNL     1      36.125 -20.337 -19.319  0.00  0.00    +0.387 N 
ATOM      2  C   UNL     1      35.616 -18.863 -21.804  0.00  0.00    +0.039 C 
ATOM      3  C   UNL     1      34.484 -19.458 -20.951  0.00  0.00    -0.017 C 
ATOM      4  C   UNL     1      36.849 -18.596 -20.923  0.00  0.00    -0.017 C 
ATOM      5  C   UNL     1      34.967 -20.675 -20.159  0.00  0.00    -0.077 C 
ATOM      6  C   UNL     1      37.245 -19.845 -20.132  0.00  0.00    -0.077 C 
ATOM      7  H   UNL     1      35.844 -19.588 -18.685  0.00  0.00    -0.080 HD
ENDROOT
BRANCH   2  11
ATOM      8  F   UNL     1      33.750 -12.402 -21.888  0.00  0.00    -0.204 F 
ATOM      9  O   UNL     1      34.657 -16.458 -24.309  0.00  0.00    -0.354 OA
ATOM     10  N   UNL     1      35.064 -17.724 -23.907  0.00  0.00    -0.081 NA
ATOM     11  C   UNL     1      35.181 -17.643 -22.583  0.00  0.00    +0.100 A 
ATOM     12  C   UNL     1      34.868 -16.371 -22.081  0.00  0.00    +0.054 A 
ATOM     13  C   UNL     1      34.541 -15.652 -23.218  0.00  0.00    +0.179 A 
ATOM     14  C   UNL     1      34.818 -15.732 -20.833  0.00  0.00    +0.007 C 
ATOM     15  C   UNL     1      34.158 -14.314 -23.217  0.00  0.00    +0.070 C 
ATOM     16  C   UNL     1      34.434 -14.384 -20.795  0.00  0.00    +0.030 C 
ATOM     17  C   UNL     1      34.112 -13.691 -21.966  0.00  0.00    +0.143 C 
ENDBRANCH   2  11
BRANCH   1  18
ATOM     18  C   UNL     1      36.537 -21.495 -18.527  0.00  0.00    -0.076 C 
BRANCH  18  19
ATOM     19  C   UNL     1      36.281 -21.230 -17.049  0.00  0.00    -0.007 C 
BRANCH  19  23
ATOM     20  O   UNL     1      38.618 -22.127 -15.833  0.00  0.00    -0.274 OA
ATOM     21  N   UNL     1      37.636 -23.982 -14.823  0.00  0.00    -0.235 N 
ATOM     22  N   UNL     1      35.376 -24.496 -15.300  0.00  0.00    -0.397 NA
ATOM     23  C   UNL     1      36.323 -22.507 -16.261  0.00  0.00    +0.123 C 
ATOM     24  C   UNL     1      38.913 -24.362 -14.214  0.00  0.00    +0.100 C 
ATOM     25  C   UNL     1      36.548 -26.011 -13.832  0.00  0.00    +0.177 C 
ATOM     26  C   UNL     1      38.791 -25.324 -13.048  0.00  0.00    +0.025 C 
ATOM     27  C   UNL     1      37.940 -26.499 -13.479  0.00  0.00    +0.040 C 
ATOM     28  C   UNL     1      36.504 -24.774 -14.724  0.00  0.00    +0.192 C 
ATOM     29  C   UNL     1      37.636 -22.837 -15.623  0.00  0.00    +0.237 C 
ATOM     30  C   UNL     1      35.298 -23.359 -16.066  0.00  0.00    +0.097 C 
ATOM     31  C   UNL     1      33.942 -23.166 -16.689  0.00  0.00    +0.062 C 
BRANCH  25  32
ATOM     32  O   UNL     1      35.849 -27.059 -14.487  0.00  0.00    -0.376 OA
ATOM     33  H   UNL     1      36.322 -27.895 -14.357  0.00  0.00    +0.211 HD
ENDBRANCH  25  32
ENDBRANCH  19  23
ENDBRANCH  18  19
ENDBRANCH   1  18
TORSDOF 5
ENDMDL
MODEL 8
REMARK VINA RESULT:     -11.4      3.304      9.823
REMARK  Name = 115237
REMARK  5 active torsions:
REMARK  status: ('A' for Active; 'I' for Inactive)
REMARK    1  A    between atoms: N_1  and  C_18
REMARK    2  A    between atoms: C_2  and  C_11
REMARK    3  A    between atoms: C_18  and  C_19
REMARK    4  A    between atoms: C_19  and  C_23
REMARK    5  A    between atoms: C_25  and  O_32
REMARK                            x       y       z     vdW  Elec       q    Type
REMARK                         _______ _______ _______ _____ _____    ______ ____
ROOT
ATOM      1  N   UNL     1      35.455 -16.918 -22.825  0.00  0.00    +0.387 N 
ATOM      2  C   UNL     1      33.679 -14.584 -22.887  0.00  0.00    +0.039 C 
ATOM      3  C   UNL     1      34.671 -14.837 -21.739  0.00  0.00    -0.017 C 
ATOM      4  C   UNL     1      34.174 -15.280 -24.166  0.00  0.00    -0.017 C 
ATOM      5  C   UNL     1      34.958 -16.331 -21.573  0.00  0.00    -0.077 C 
ATOM      6  C   UNL     1      34.479 -16.758 -23.912  0.00  0.00    -0.077 C 
ATOM      7  H   UNL     1      36.306 -16.420 -23.090  0.00  0.00    -0.080 HD
ENDROOT
BRANCH   2  11
ATOM      8  F   UNL     1      31.159  -8.792 -20.581  0.00  0.00    -0.204 F 
ATOM      9  O   UNL     1      33.346 -11.214 -24.115  0.00  0.00    -0.354 OA
ATOM     10  N   UNL     1      33.746 -12.538 -24.241  0.00  0.00    -0.081 NA
ATOM     11  C   UNL     1      33.389 -13.115 -23.096  0.00  0.00    +0.100 A 
ATOM     12  C   UNL     1      32.765 -12.230 -22.205  0.00  0.00    +0.054 A 
ATOM     13  C   UNL     1      32.761 -11.032 -22.899  0.00  0.00    +0.179 A 
ATOM     14  C   UNL     1      32.208 -12.274 -20.918  0.00  0.00    +0.007 C 
ATOM     15  C   UNL     1      32.236  -9.842 -22.405  0.00  0.00    +0.070 C 
ATOM     16  C   UNL     1      31.669 -11.092 -20.390  0.00  0.00    +0.030 C 
ATOM     17  C   UNL     1      31.684  -9.900 -21.122  0.00  0.00    +0.143 C 
ENDBRANCH   2  11
BRANCH   1  18
ATOM     18  C   UNL     1      35.780 -18.331 -22.633  0.00  0.00    -0.076 C 
BRANCH  18  19
ATOM     19  C   UNL     1      34.590 -19.057 -22.018  0.00  0.00    -0.007 C 
BRANCH  19  23
ATOM     20  O   UNL     1      32.769 -20.548 -20.534  0.00  0.00    -0.274 OA
ATOM     21  N   UNL     1      34.345 -21.381 -19.033  0.00  0.00    -0.235 N 
ATOM     22  N   UNL     1      36.576 -20.602 -19.151  0.00  0.00    -0.397 NA
ATOM     23  C   UNL     1      35.003 -19.816 -20.791  0.00  0.00    +0.123 C 
ATOM     24  C   UNL     1      33.312 -22.143 -18.328  0.00  0.00    +0.100 C 
ATOM     25  C   UNL     1      36.067 -22.177 -17.395  0.00  0.00    +0.177 C 
ATOM     26  C   UNL     1      33.845 -23.261 -17.453  0.00  0.00    +0.025 C 
ATOM     27  C   UNL     1      34.921 -22.697 -16.550  0.00  0.00    +0.040 C 
ATOM     28  C   UNL     1      35.653 -21.314 -18.583  0.00  0.00    +0.192 C 
ATOM     29  C   UNL     1      33.927 -20.613 -20.123  0.00  0.00    +0.237 C 
ATOM     30  C   UNL     1      36.239 -19.857 -20.254  0.00  0.00    +0.097 C 
ATOM     31  C   UNL     1      37.397 -19.066 -20.803  0.00  0.00    +0.062 C 
BRANCH  25  32
ATOM     32  O   UNL     1      36.934 -21.413 -16.569  0.00  0.00    -0.376 OA
ATOM     33  H   UNL     1      36.523 -20.557 -16.373  0.00  0.00    +0.211 HD
ENDBRANCH  25  32
ENDBRANCH  19  23
ENDBRANCH  18  19
ENDBRANCH   1  18
TORSDOF 5
ENDMDL
MODEL 9
REMARK VINA RESULT:     -11.3      3.348      5.620
REMARK  Name = 115237
REMARK  5 active torsions:
REMARK  status: ('A' for Active; 'I' for Inactive)
REMARK    1  A    between atoms: N_1  and  C_18
REMARK    2  A    between atoms: C_2  and  C_11
REMARK    3  A    between atoms: C_18  and  C_19
REMARK    4  A    between atoms: C_19  and  C_23
REMARK    5  A    between atoms: C_25  and  O_32
REMARK                            x       y       z     vdW  Elec       q    Type
REMARK                         _______ _______ _______ _____ _____    ______ ____
ROOT
ATOM      1  N   UNL     1      32.169 -10.766 -22.711  0.00  0.00    +0.387 N 
ATOM      2  C   UNL     1      33.748 -13.216 -23.045  0.00  0.00    +0.039 C 
ATOM      3  C   UNL     1      32.493 -13.157 -22.160  0.00  0.00    -0.017 C 
ATOM      4  C   UNL     1      33.673 -12.127 -24.129  0.00  0.00    -0.017 C 
ATOM      5  C   UNL     1      32.261 -11.745 -21.618  0.00  0.00    -0.077 C 
ATOM      6  C   UNL     1      33.398 -10.752 -23.516  0.00  0.00    -0.077 C 
ATOM      7  H   UNL     1      31.398 -11.045 -23.319  0.00  0.00    -0.080 HD
ENDROOT
BRANCH   2  11
ATOM      8  F   UNL     1      35.897 -19.534 -22.215  0.00  0.00    -0.204 F 
ATOM      9  O   UNL     1      34.034 -16.163 -25.097  0.00  0.00    -0.354 OA
ATOM     10  N   UNL     1      33.692 -14.832 -24.892  0.00  0.00    -0.081 NA
ATOM     11  C   UNL     1      33.996 -14.593 -23.618  0.00  0.00    +0.100 A 
ATOM     12  C   UNL     1      34.528 -15.711 -22.960  0.00  0.00    +0.054 A 
ATOM     13  C   UNL     1      34.532 -16.686 -23.943  0.00  0.00    +0.179 A 
ATOM     14  C   UNL     1      35.002 -16.033 -21.679  0.00  0.00    +0.007 C 
ATOM     15  C   UNL     1      34.980 -17.990 -23.753  0.00  0.00    +0.070 C 
ATOM     16  C   UNL     1      35.462 -17.338 -21.453  0.00  0.00    +0.030 C 
ATOM     17  C   UNL     1      35.449 -18.296 -22.472  0.00  0.00    +0.143 C 
ENDBRANCH   2  11
BRANCH   1  18
ATOM     18  C   UNL     1      31.890  -9.432 -22.179  0.00  0.00    -0.076 C 
BRANCH  18  19
ATOM     19  C   UNL     1      33.094  -8.527 -22.393  0.00  0.00    -0.007 C 
BRANCH  19  23
ATOM     20  O   UNL     1      32.517  -7.217 -24.780  0.00  0.00    -0.274 OA
ATOM     21  N   UNL     1      31.888  -5.210 -23.778  0.00  0.00    -0.235 N 
ATOM     22  N   UNL     1      32.138  -4.960 -21.438  0.00  0.00    -0.397 NA
ATOM     23  C   UNL     1      32.680  -7.084 -22.425  0.00  0.00    +0.123 C 
ATOM     24  C   UNL     1      31.597  -4.616 -25.084  0.00  0.00    +0.100 C 
ATOM     25  C   UNL     1      31.306  -3.047 -22.652  0.00  0.00    +0.177 C 
ATOM     26  C   UNL     1      30.717  -3.382 -25.031  0.00  0.00    +0.025 C 
ATOM     27  C   UNL     1      31.305  -2.412 -24.029  0.00  0.00    +0.040 C 
ATOM     28  C   UNL     1      31.830  -4.479 -22.602  0.00  0.00    +0.192 C 
ATOM     29  C   UNL     1      32.354  -6.528 -23.774  0.00  0.00    +0.237 C 
ATOM     30  C   UNL     1      32.561  -6.264 -21.362  0.00  0.00    +0.097 C 
ATOM     31  C   UNL     1      32.903  -6.687 -19.958  0.00  0.00    +0.062 C 
BRANCH  25  32
ATOM     32  O   UNL     1      32.099  -2.252 -21.782  0.00  0.00    -0.376 OA
ATOM     33  H   UNL     1      33.029  -2.512 -21.864  0.00  0.00    +0.211 HD
ENDBRANCH  25  32
ENDBRANCH  19  23
ENDBRANCH  18  19
ENDBRANCH   1  18
TORSDOF 5
ENDMDL
