MODEL 1
REMARK VINA RESULT:     -11.2      0.000      0.000
REMARK  Name = 5287994
REMARK  8 active torsions:
REMARK  status: ('A' for Active; 'I' for Inactive)
REMARK    1  A    between atoms: C_5  and  O_19
REMARK    2  A    between atoms: C_5  and  C_21
REMARK    3  A    between atoms: C_8  and  C_30
REMARK    4  A    between atoms: C_10  and  C_11
REMARK    5  A    between atoms: C_16  and  O_17
REMARK    6  A    between atoms: C_21  and  C_22
REMARK    7  A    between atoms: C_27  and  O_28
REMARK    8  A    between atoms: C_30  and  C_31
REMARK                            x       y       z     vdW  Elec       q    Type
REMARK                         _______ _______ _______ _____ _____    ______ ____
ROOT
ATOM      1  O   UNL     1      33.576 -23.538 -12.117  0.00  0.00    -0.270 OA
ATOM      2  N   UNL     1      33.020 -23.523 -14.384  0.00  0.00    -0.232 N 
ATOM      3  N   UNL     1      35.017 -23.939 -15.363  0.00  0.00    -0.222 NA
ATOM      4  N   UNL     1      31.751 -23.326 -16.828  0.00  0.00    -0.406 NA
ATOM      5  C   UNL     1      35.224 -23.949 -13.882  0.00  0.00    +0.249 C 
ATOM      6  C   UNL     1      33.756 -23.694 -15.497  0.00  0.00    +0.162 C 
ATOM      7  C   UNL     1      33.840 -23.650 -13.304  0.00  0.00    +0.278 C 
ATOM      8  C   UNL     1      33.026 -23.576 -16.792  0.00  0.00    +0.144 C 
ATOM      9  C   UNL     1      31.686 -23.258 -14.427  0.00  0.00    +0.159 C 
ATOM     10  C   UNL     1      31.078 -23.171 -15.627  0.00  0.00    +0.129 C 
ENDROOT
BRANCH  10  11
ATOM     11  C   UNL     1      29.630 -22.871 -15.694  0.00  0.00    +0.027 C 
ATOM     12  C   UNL     1      28.977 -22.328 -14.587  0.00  0.00    +0.005 C 
ATOM     13  C   UNL     1      28.916 -23.132 -16.864  0.00  0.00    +0.005 C 
ATOM     14  C   UNL     1      27.612 -22.047 -14.650  0.00  0.00    +0.037 C 
ATOM     15  C   UNL     1      27.552 -22.850 -16.928  0.00  0.00    +0.037 C 
ATOM     16  C   UNL     1      26.900 -22.308 -15.821  0.00  0.00    +0.134 C 
BRANCH  16  17
ATOM     17  O   UNL     1      25.569 -22.032 -15.883  0.00  0.00    -0.506 OA
ATOM     18  H   UNL     1      25.166 -21.511 -15.216  0.00  0.00    +0.292 HD
ENDBRANCH  16  17
ENDBRANCH  10  11
BRANCH   5  19
ATOM     19  O   UNL     1      36.119 -22.973 -13.369  0.00  0.00    -0.361 OA
ATOM     20  H   UNL     1      36.358 -23.201 -12.457  0.00  0.00    +0.213 HD
ENDBRANCH   5  19
BRANCH   5  21
ATOM     21  C   UNL     1      35.691 -25.340 -13.470  0.00  0.00    +0.086 C 
BRANCH  21  22
ATOM     22  C   UNL     1      37.182 -25.488 -13.599  0.00  0.00    -0.017 C 
ATOM     23  C   UNL     1      38.013 -24.893 -12.660  0.00  0.00    -0.001 C 
ATOM     24  C   UNL     1      37.709 -26.221 -14.655  0.00  0.00    -0.001 C 
ATOM     25  C   UNL     1      39.396 -25.031 -12.779  0.00  0.00    +0.036 C 
ATOM     26  C   UNL     1      39.091 -26.360 -14.774  0.00  0.00    +0.036 C 
ATOM     27  C   UNL     1      39.934 -25.764 -13.836  0.00  0.00    +0.134 C 
BRANCH  27  28
ATOM     28  O   UNL     1      41.284 -25.899 -13.952  0.00  0.00    -0.506 OA
ATOM     29  H   UNL     1      41.843 -25.160 -13.808  0.00  0.00    +0.292 HD
ENDBRANCH  27  28
ENDBRANCH  21  22
ENDBRANCH   5  21
BRANCH   8  30
ATOM     30  C   UNL     1      33.814 -23.756 -18.054  0.00  0.00    +0.088 C 
BRANCH  30  31
ATOM     31  C   UNL     1      33.985 -22.450 -18.771  0.00  0.00    -0.015 C 
ATOM     32  C   UNL     1      32.864 -21.702 -19.117  0.00  0.00    -0.004 C 
ATOM     33  C   UNL     1      35.262 -21.997 -19.081  0.00  0.00    -0.004 C 
ATOM     34  C   UNL     1      33.024 -20.487 -19.783  0.00  0.00    -0.000 C 
ATOM     35  C   UNL     1      35.422 -20.781 -19.747  0.00  0.00    -0.000 C 
ATOM     36  C   UNL     1      34.303 -20.027 -20.098  0.00  0.00    -0.000 C 
ENDBRANCH  30  31
ENDBRANCH   8  30
TORSDOF 8
ENDMDL
MODEL 2
REMARK VINA RESULT:     -11.1      1.737      2.579
REMARK  Name = 5287994
REMARK  8 active torsions:
REMARK  status: ('A' for Active; 'I' for Inactive)
REMARK    1  A    between atoms: C_5  and  O_19
REMARK    2  A    between atoms: C_5  and  C_21
REMARK    3  A    between atoms: C_8  and  C_30
REMARK    4  A    between atoms: C_10  and  C_11
REMARK    5  A    between atoms: C_16  and  O_17
REMARK    6  A    between atoms: C_21  and  C_22
REMARK    7  A    between atoms: C_27  and  O_28
REMARK    8  A    between atoms: C_30  and  C_31
REMARK                            x       y       z     vdW  Elec       q    Type
REMARK                         _______ _______ _______ _____ _____    ______ ____
ROOT
ATOM      1  O   UNL     1      34.958 -24.483 -10.231  0.00  0.00    -0.270 OA
ATOM      2  N   UNL     1      34.881 -23.854 -12.478  0.00  0.00    -0.232 N 
ATOM      3  N   UNL     1      37.038 -23.309 -12.891  0.00  0.00    -0.222 NA
ATOM      4  N   UNL     1      34.121 -23.211 -15.054  0.00  0.00    -0.406 NA
ATOM      5  C   UNL     1      36.946 -23.765 -11.470  0.00  0.00    +0.249 C 
ATOM      6  C   UNL     1      35.826 -23.411 -13.327  0.00  0.00    +0.162 C 
ATOM      7  C   UNL     1      35.467 -24.099 -11.273  0.00  0.00    +0.278 C 
ATOM      8  C   UNL     1      35.366 -23.076 -14.705  0.00  0.00    +0.144 C 
ATOM      9  C   UNL     1      33.578 -23.991 -12.847  0.00  0.00    +0.159 C 
ATOM     10  C   UNL     1      33.222 -23.680 -14.109  0.00  0.00    +0.129 C 
ENDROOT
BRANCH  10  11
ATOM     11  C   UNL     1      31.808 -23.811 -14.525  0.00  0.00    +0.027 C 
ATOM     12  C   UNL     1      31.003 -24.800 -13.960  0.00  0.00    +0.005 C 
ATOM     13  C   UNL     1      31.278 -22.946 -15.483  0.00  0.00    +0.005 C 
ATOM     14  C   UNL     1      29.670 -24.925 -14.353  0.00  0.00    +0.037 C 
ATOM     15  C   UNL     1      29.945 -23.069 -15.875  0.00  0.00    +0.037 C 
ATOM     16  C   UNL     1      29.141 -24.059 -15.311  0.00  0.00    +0.134 C 
BRANCH  16  17
ATOM     17  O   UNL     1      27.841 -24.179 -15.692  0.00  0.00    -0.506 OA
ATOM     18  H   UNL     1      27.578 -24.885 -16.249  0.00  0.00    +0.292 HD
ENDBRANCH  16  17
ENDBRANCH  10  11
BRANCH   5  19
ATOM     19  O   UNL     1      37.300 -22.808 -10.482  0.00  0.00    -0.361 OA
ATOM     20  H   UNL     1      37.732 -23.257  -9.738  0.00  0.00    +0.213 HD
ENDBRANCH   5  19
BRANCH   5  21
ATOM     21  C   UNL     1      37.806 -25.013 -11.308  0.00  0.00    +0.086 C 
BRANCH  21  22
ATOM     22  C   UNL     1      38.554 -25.342 -12.571  0.00  0.00    -0.017 C 
ATOM     23  C   UNL     1      39.771 -24.723 -12.826  0.00  0.00    -0.001 C 
ATOM     24  C   UNL     1      38.020 -26.262 -13.463  0.00  0.00    -0.001 C 
ATOM     25  C   UNL     1      40.465 -25.029 -13.997  0.00  0.00    +0.036 C 
ATOM     26  C   UNL     1      38.714 -26.568 -14.634  0.00  0.00    +0.036 C 
ATOM     27  C   UNL     1      39.937 -25.951 -14.900  0.00  0.00    +0.134 C 
BRANCH  27  28
ATOM     28  O   UNL     1      40.615 -26.249 -16.042  0.00  0.00    -0.506 OA
ATOM     29  H   UNL     1      40.580 -27.117 -16.395  0.00  0.00    +0.292 HD
ENDBRANCH  27  28
ENDBRANCH  21  22
ENDBRANCH   5  21
BRANCH   8  30
ATOM     30  C   UNL     1      36.390 -22.575 -15.677  0.00  0.00    +0.088 C 
BRANCH  30  31
ATOM     31  C   UNL     1      35.758 -22.233 -16.994  0.00  0.00    -0.015 C 
ATOM     32  C   UNL     1      34.458 -22.646 -17.262  0.00  0.00    -0.004 C 
ATOM     33  C   UNL     1      36.478 -21.504 -17.934  0.00  0.00    -0.004 C 
ATOM     34  C   UNL     1      33.871 -22.327 -18.487  0.00  0.00    -0.000 C 
ATOM     35  C   UNL     1      35.891 -21.184 -19.159  0.00  0.00    -0.000 C 
ATOM     36  C   UNL     1      34.587 -21.596 -19.434  0.00  0.00    -0.000 C 
ENDBRANCH  30  31
ENDBRANCH   8  30
TORSDOF 8
ENDMDL
MODEL 3
REMARK VINA RESULT:     -10.2      1.499      8.156
REMARK  Name = 5287994
REMARK  8 active torsions:
REMARK  status: ('A' for Active; 'I' for Inactive)
REMARK    1  A    between atoms: C_5  and  O_19
REMARK    2  A    between atoms: C_5  and  C_21
REMARK    3  A    between atoms: C_8  and  C_30
REMARK    4  A    between atoms: C_10  and  C_11
REMARK    5  A    between atoms: C_16  and  O_17
REMARK    6  A    between atoms: C_21  and  C_22
REMARK    7  A    between atoms: C_27  and  O_28
REMARK    8  A    between atoms: C_30  and  C_31
REMARK                            x       y       z     vdW  Elec       q    Type
REMARK                         _______ _______ _______ _____ _____    ______ ____
ROOT
ATOM      1  O   UNL     1      31.771 -25.176 -12.488  0.00  0.00    -0.270 OA
ATOM      2  N   UNL     1      33.009 -24.466 -14.335  0.00  0.00    -0.232 N 
ATOM      3  N   UNL     1      31.384 -23.847 -15.783  0.00  0.00    -0.222 NA
ATOM      4  N   UNL     1      34.998 -23.845 -16.147  0.00  0.00    -0.406 NA
ATOM      5  C   UNL     1      30.722 -24.305 -14.523  0.00  0.00    +0.249 C 
ATOM      6  C   UNL     1      32.645 -23.988 -15.539  0.00  0.00    +0.162 C 
ATOM      7  C   UNL     1      31.881 -24.713 -13.612  0.00  0.00    +0.278 C 
ATOM      8  C   UNL     1      33.755 -23.669 -16.482  0.00  0.00    +0.144 C 
ATOM      9  C   UNL     1      34.312 -24.651 -13.989  0.00  0.00    +0.159 C 
ATOM     10  C   UNL     1      35.273 -24.338 -14.881  0.00  0.00    +0.129 C 
ENDROOT
BRANCH  10  11
ATOM     11  C   UNL     1      36.696 -24.543 -14.528  0.00  0.00    +0.027 C 
ATOM     12  C   UNL     1      37.681 -23.741 -15.104  0.00  0.00    +0.005 C 
ATOM     13  C   UNL     1      37.053 -25.540 -13.619  0.00  0.00    +0.005 C 
ATOM     14  C   UNL     1      39.022 -23.935 -14.772  0.00  0.00    +0.037 C 
ATOM     15  C   UNL     1      38.394 -25.733 -13.286  0.00  0.00    +0.037 C 
ATOM     16  C   UNL     1      39.378 -24.932 -13.862  0.00  0.00    +0.134 C 
BRANCH  16  17
ATOM     17  O   UNL     1      40.686 -25.119 -13.537  0.00  0.00    -0.506 OA
ATOM     18  H   UNL     1      40.991 -25.969 -13.287  0.00  0.00    +0.292 HD
ENDBRANCH  16  17
ENDBRANCH  10  11
BRANCH   5  19
ATOM     19  O   UNL     1      29.860 -25.427 -14.641  0.00  0.00    -0.361 OA
ATOM     20  H   UNL     1      29.192 -25.397 -13.938  0.00  0.00    +0.213 HD
ENDBRANCH   5  19
BRANCH   5  21
ATOM     21  C   UNL     1      29.957 -23.130 -13.926  0.00  0.00    +0.086 C 
BRANCH  21  22
ATOM     22  C   UNL     1      28.787 -22.733 -14.785  0.00  0.00    -0.017 C 
ATOM     23  C   UNL     1      28.921 -22.736 -16.167  0.00  0.00    -0.001 C 
ATOM     24  C   UNL     1      27.588 -22.372 -14.184  0.00  0.00    -0.001 C 
ATOM     25  C   UNL     1      27.836 -22.369 -16.963  0.00  0.00    +0.036 C 
ATOM     26  C   UNL     1      26.503 -22.006 -14.981  0.00  0.00    +0.036 C 
ATOM     27  C   UNL     1      26.628 -22.004 -16.370  0.00  0.00    +0.134 C 
BRANCH  27  28
ATOM     28  O   UNL     1      25.569 -21.646 -17.148  0.00  0.00    -0.506 OA
ATOM     29  H   UNL     1      25.500 -20.768 -17.469  0.00  0.00    +0.292 HD
ENDBRANCH  27  28
ENDBRANCH  21  22
ENDBRANCH   5  21
BRANCH   8  30
ATOM     30  C   UNL     1      33.387 -23.139 -17.834  0.00  0.00    +0.088 C 
BRANCH  30  31
ATOM     31  C   UNL     1      34.455 -22.227 -18.362  0.00  0.00    -0.015 C 
ATOM     32  C   UNL     1      34.207 -21.462 -19.497  0.00  0.00    -0.004 C 
ATOM     33  C   UNL     1      35.681 -22.153 -17.711  0.00  0.00    -0.004 C 
ATOM     34  C   UNL     1      35.200 -20.613 -19.987  0.00  0.00    -0.000 C 
ATOM     35  C   UNL     1      36.674 -21.304 -18.201  0.00  0.00    -0.000 C 
ATOM     36  C   UNL     1      36.433 -20.534 -19.339  0.00  0.00    -0.000 C 
ENDBRANCH  30  31
ENDBRANCH   8  30
TORSDOF 8
ENDMDL
MODEL 4
REMARK VINA RESULT:      -9.7     12.530     17.145
REMARK  Name = 5287994
REMARK  8 active torsions:
REMARK  status: ('A' for Active; 'I' for Inactive)
REMARK    1  A    between atoms: C_5  and  O_19
REMARK    2  A    between atoms: C_5  and  C_21
REMARK    3  A    between atoms: C_8  and  C_30
REMARK    4  A    between atoms: C_10  and  C_11
REMARK    5  A    between atoms: C_16  and  O_17
REMARK    6  A    between atoms: C_21  and  C_22
REMARK    7  A    between atoms: C_27  and  O_28
REMARK    8  A    between atoms: C_30  and  C_31
REMARK                            x       y       z     vdW  Elec       q    Type
REMARK                         _______ _______ _______ _____ _____    ______ ____
ROOT
ATOM      1  O   UNL     1      36.160  -9.056 -24.386  0.00  0.00    -0.270 OA
ATOM      2  N   UNL     1      34.289 -10.200 -23.585  0.00  0.00    -0.232 N 
ATOM      3  N   UNL     1      33.072  -8.528 -22.666  0.00  0.00    -0.222 NA
ATOM      4  N   UNL     1      32.423 -12.098 -22.850  0.00  0.00    -0.406 NA
ATOM      5  C   UNL     1      34.307  -7.924 -23.253  0.00  0.00    +0.249 C 
ATOM      6  C   UNL     1      33.193  -9.788 -22.923  0.00  0.00    +0.162 C 
ATOM      7  C   UNL     1      35.071  -9.113 -23.837  0.00  0.00    +0.278 C 
ATOM      8  C   UNL     1      32.215 -10.850 -22.548  0.00  0.00    +0.144 C 
ATOM      9  C   UNL     1      34.504 -11.507 -23.898  0.00  0.00    +0.159 C 
ATOM     10  C   UNL     1      33.581 -12.421 -23.538  0.00  0.00    +0.129 C 
ENDROOT
BRANCH  10  11
ATOM     11  C   UNL     1      33.802 -13.850 -23.859  0.00  0.00    +0.027 C 
ATOM     12  C   UNL     1      33.195 -14.415 -24.981  0.00  0.00    +0.005 C 
ATOM     13  C   UNL     1      34.618 -14.631 -23.040  0.00  0.00    +0.005 C 
ATOM     14  C   UNL     1      33.403 -15.761 -25.282  0.00  0.00    +0.037 C 
ATOM     15  C   UNL     1      34.826 -15.977 -23.342  0.00  0.00    +0.037 C 
ATOM     16  C   UNL     1      34.219 -16.542 -24.463  0.00  0.00    +0.134 C 
BRANCH  16  17
ATOM     17  O   UNL     1      34.422 -17.854 -24.759  0.00  0.00    -0.506 OA
ATOM     18  H   UNL     1      33.739 -18.479 -24.618  0.00  0.00    +0.292 HD
ENDBRANCH  16  17
ENDBRANCH  10  11
BRANCH   5  19
ATOM     19  O   UNL     1      35.176  -7.267 -22.341  0.00  0.00    -0.361 OA
ATOM     20  H   UNL     1      35.997  -7.776 -22.253  0.00  0.00    +0.213 HD
ENDBRANCH   5  19
BRANCH   5  21
ATOM     21  C   UNL     1      33.893  -6.956 -24.355  0.00  0.00    +0.086 C 
BRANCH  21  22
ATOM     22  C   UNL     1      32.839  -5.992 -23.883  0.00  0.00    -0.017 C 
ATOM     23  C   UNL     1      32.918  -5.466 -22.600  0.00  0.00    -0.001 C 
ATOM     24  C   UNL     1      31.803  -5.639 -24.738  0.00  0.00    -0.001 C 
ATOM     25  C   UNL     1      31.941  -4.571 -22.163  0.00  0.00    +0.036 C 
ATOM     26  C   UNL     1      30.827  -4.744 -24.301  0.00  0.00    +0.036 C 
ATOM     27  C   UNL     1      30.896  -4.210 -23.014  0.00  0.00    +0.134 C 
BRANCH  27  28
ATOM     28  O   UNL     1      29.942  -3.337 -22.586  0.00  0.00    -0.506 OA
ATOM     29  H   UNL     1      30.155  -2.432 -22.470  0.00  0.00    +0.292 HD
ENDBRANCH  27  28
ENDBRANCH  21  22
ENDBRANCH   5  21
BRANCH   8  30
ATOM     30  C   UNL     1      30.984 -10.431 -21.806  0.00  0.00    +0.088 C 
BRANCH  30  31
ATOM     31  C   UNL     1      31.285 -10.194 -20.355  0.00  0.00    -0.015 C 
ATOM     32  C   UNL     1      31.574 -11.273 -19.527  0.00  0.00    -0.004 C 
ATOM     33  C   UNL     1      31.274  -8.897 -19.853  0.00  0.00    -0.004 C 
ATOM     34  C   UNL     1      31.855 -11.051 -18.178  0.00  0.00    -0.000 C 
ATOM     35  C   UNL     1      31.554  -8.676 -18.504  0.00  0.00    -0.000 C 
ATOM     36  C   UNL     1      31.845  -9.754 -17.667  0.00  0.00    -0.000 C 
ENDBRANCH  30  31
ENDBRANCH   8  30
TORSDOF 8
ENDMDL
MODEL 5
REMARK VINA RESULT:      -9.6     11.350     15.733
REMARK  Name = 5287994
REMARK  8 active torsions:
REMARK  status: ('A' for Active; 'I' for Inactive)
REMARK    1  A    between atoms: C_5  and  O_19
REMARK    2  A    between atoms: C_5  and  C_21
REMARK    3  A    between atoms: C_8  and  C_30
REMARK    4  A    between atoms: C_10  and  C_11
REMARK    5  A    between atoms: C_16  and  O_17
REMARK    6  A    between atoms: C_21  and  C_22
REMARK    7  A    between atoms: C_27  and  O_28
REMARK    8  A    between atoms: C_30  and  C_31
REMARK                            x       y       z     vdW  Elec       q    Type
REMARK                         _______ _______ _______ _____ _____    ______ ____
ROOT
ATOM      1  O   UNL     1      31.997 -11.896 -18.261  0.00  0.00    -0.270 OA
ATOM      2  N   UNL     1      32.522 -11.954 -20.535  0.00  0.00    -0.232 N 
ATOM      3  N   UNL     1      31.708  -9.970 -21.258  0.00  0.00    -0.222 NA
ATOM      4  N   UNL     1      33.357 -12.649 -23.073  0.00  0.00    -0.406 NA
ATOM      5  C   UNL     1      31.461 -10.055 -19.785  0.00  0.00    +0.249 C 
ATOM      6  C   UNL     1      32.301 -11.083 -21.536  0.00  0.00    +0.162 C 
ATOM      7  C   UNL     1      32.025 -11.419 -19.384  0.00  0.00    +0.278 C 
ATOM      8  C   UNL     1      32.769 -11.505 -22.888  0.00  0.00    +0.144 C 
ATOM      9  C   UNL     1      33.136 -13.152 -20.734  0.00  0.00    +0.159 C 
ATOM     10  C   UNL     1      33.544 -13.476 -21.977  0.00  0.00    +0.129 C 
ENDROOT
BRANCH  10  11
ATOM     11  C   UNL     1      34.203 -14.779 -22.215  0.00  0.00    +0.027 C 
ATOM     12  C   UNL     1      34.306 -15.283 -23.512  0.00  0.00    +0.005 C 
ATOM     13  C   UNL     1      34.722 -15.506 -21.143  0.00  0.00    +0.005 C 
ATOM     14  C   UNL     1      34.926 -16.512 -23.736  0.00  0.00    +0.037 C 
ATOM     15  C   UNL     1      35.343 -16.735 -21.367  0.00  0.00    +0.037 C 
ATOM     16  C   UNL     1      35.445 -17.238 -22.663  0.00  0.00    +0.134 C 
BRANCH  16  17
ATOM     17  O   UNL     1      36.052 -18.436 -22.883  0.00  0.00    -0.506 OA
ATOM     18  H   UNL     1      35.691 -19.219 -22.517  0.00  0.00    +0.292 HD
ENDBRANCH  16  17
ENDBRANCH  10  11
BRANCH   5  19
ATOM     19  O   UNL     1      30.102 -10.021 -19.376  0.00  0.00    -0.361 OA
ATOM     20  H   UNL     1      29.832 -10.903 -19.076  0.00  0.00    +0.213 HD
ENDBRANCH   5  19
BRANCH   5  21
ATOM     21  C   UNL     1      32.231  -8.932 -19.102  0.00  0.00    +0.086 C 
BRANCH  21  22
ATOM     22  C   UNL     1      32.137  -7.643 -19.872  0.00  0.00    -0.017 C 
ATOM     23  C   UNL     1      30.999  -7.375 -20.620  0.00  0.00    -0.001 C 
ATOM     24  C   UNL     1      33.188  -6.737 -19.821  0.00  0.00    -0.001 C 
ATOM     25  C   UNL     1      30.911  -6.179 -21.333  0.00  0.00    +0.036 C 
ATOM     26  C   UNL     1      33.100  -5.541 -20.534  0.00  0.00    +0.036 C 
ATOM     27  C   UNL     1      31.961  -5.263 -21.289  0.00  0.00    +0.134 C 
BRANCH  27  28
ATOM     28  O   UNL     1      31.875  -4.096 -21.986  0.00  0.00    -0.506 OA
ATOM     29  H   UNL     1      31.094  -3.890 -22.460  0.00  0.00    +0.292 HD
ENDBRANCH  27  28
ENDBRANCH  21  22
ENDBRANCH   5  21
BRANCH   8  30
ATOM     30  C   UNL     1      32.536 -10.563 -24.030  0.00  0.00    +0.088 C 
BRANCH  30  31
ATOM     31  C   UNL     1      33.337  -9.306 -23.862  0.00  0.00    -0.015 C 
ATOM     32  C   UNL     1      34.682  -9.388 -23.517  0.00  0.00    -0.004 C 
ATOM     33  C   UNL     1      32.729  -8.071 -24.054  0.00  0.00    -0.004 C 
ATOM     34  C   UNL     1      35.427  -8.219 -23.361  0.00  0.00    -0.000 C 
ATOM     35  C   UNL     1      33.474  -6.902 -23.899  0.00  0.00    -0.000 C 
ATOM     36  C   UNL     1      34.823  -6.977 -23.552  0.00  0.00    -0.000 C 
ENDBRANCH  30  31
ENDBRANCH   8  30
TORSDOF 8
ENDMDL
MODEL 6
REMARK VINA RESULT:      -9.4      1.808      2.540
REMARK  Name = 5287994
REMARK  8 active torsions:
REMARK  status: ('A' for Active; 'I' for Inactive)
REMARK    1  A    between atoms: C_5  and  O_19
REMARK    2  A    between atoms: C_5  and  C_21
REMARK    3  A    between atoms: C_8  and  C_30
REMARK    4  A    between atoms: C_10  and  C_11
REMARK    5  A    between atoms: C_16  and  O_17
REMARK    6  A    between atoms: C_21  and  C_22
REMARK    7  A    between atoms: C_27  and  O_28
REMARK    8  A    between atoms: C_30  and  C_31
REMARK                            x       y       z     vdW  Elec       q    Type
REMARK                         _______ _______ _______ _____ _____    ______ ____
ROOT
ATOM      1  O   UNL     1      36.193 -22.464 -13.596  0.00  0.00    -0.270 OA
ATOM      2  N   UNL     1      35.066 -22.695 -15.628  0.00  0.00    -0.232 N 
ATOM      3  N   UNL     1      36.742 -22.448 -17.128  0.00  0.00    -0.222 NA
ATOM      4  N   UNL     1      33.187 -22.998 -17.628  0.00  0.00    -0.406 NA
ATOM      5  C   UNL     1      37.336 -22.349 -15.759  0.00  0.00    +0.249 C 
ATOM      6  C   UNL     1      35.485 -22.641 -16.905  0.00  0.00    +0.162 C 
ATOM      7  C   UNL     1      36.145 -22.513 -14.815  0.00  0.00    +0.278 C 
ATOM      8  C   UNL     1      34.432 -22.808 -17.948  0.00  0.00    +0.144 C 
ATOM      9  C   UNL     1      33.761 -22.891 -15.297  0.00  0.00    +0.159 C 
ATOM     10  C   UNL     1      32.855 -23.044 -16.283  0.00  0.00    +0.129 C 
ENDROOT
BRANCH  10  11
ATOM     11  C   UNL     1      31.429 -23.246 -15.943  0.00  0.00    +0.027 C 
ATOM     12  C   UNL     1      30.453 -22.424 -16.508  0.00  0.00    +0.005 C 
ATOM     13  C   UNL     1      31.058 -24.258 -15.058  0.00  0.00    +0.005 C 
ATOM     14  C   UNL     1      29.109 -22.614 -16.186  0.00  0.00    +0.037 C 
ATOM     15  C   UNL     1      29.714 -24.449 -14.738  0.00  0.00    +0.037 C 
ATOM     16  C   UNL     1      28.740 -23.627 -15.301  0.00  0.00    +0.134 C 
BRANCH  16  17
ATOM     17  O   UNL     1      27.428 -23.813 -14.990  0.00  0.00    -0.506 OA
ATOM     18  H   UNL     1      27.192 -24.282 -14.215  0.00  0.00    +0.292 HD
ENDBRANCH  16  17
ENDBRANCH  10  11
BRANCH   5  19
ATOM     19  O   UNL     1      37.966 -21.117 -15.438  0.00  0.00    -0.361 OA
ATOM     20  H   UNL     1      38.813 -21.292 -14.998  0.00  0.00    +0.213 HD
ENDBRANCH   5  19
BRANCH   5  21
ATOM     21  C   UNL     1      38.327 -23.494 -15.579  0.00  0.00    +0.086 C 
BRANCH  21  22
ATOM     22  C   UNL     1      37.957 -24.372 -14.415  0.00  0.00    -0.017 C 
ATOM     23  C   UNL     1      38.487 -24.104 -13.160  0.00  0.00    -0.001 C 
ATOM     24  C   UNL     1      37.090 -25.439 -14.611  0.00  0.00    -0.001 C 
ATOM     25  C   UNL     1      38.144 -24.917 -12.081  0.00  0.00    +0.036 C 
ATOM     26  C   UNL     1      36.746 -26.253 -13.531  0.00  0.00    +0.036 C 
ATOM     27  C   UNL     1      37.274 -25.992 -12.267  0.00  0.00    +0.134 C 
BRANCH  27  28
ATOM     28  O   UNL     1      36.939 -26.786 -11.213  0.00  0.00    -0.506 OA
ATOM     29  H   UNL     1      37.579 -27.358 -10.836  0.00  0.00    +0.292 HD
ENDBRANCH  27  28
ENDBRANCH  21  22
ENDBRANCH   5  21
BRANCH   8  30
ATOM     30  C   UNL     1      34.860 -22.749 -19.383  0.00  0.00    +0.088 C 
BRANCH  30  31
ATOM     31  C   UNL     1      34.942 -21.330 -19.861  0.00  0.00    -0.015 C 
ATOM     32  C   UNL     1      33.775 -20.639 -20.172  0.00  0.00    -0.004 C 
ATOM     33  C   UNL     1      36.183 -20.717 -19.988  0.00  0.00    -0.004 C 
ATOM     34  C   UNL     1      33.852 -19.319 -20.615  0.00  0.00    -0.000 C 
ATOM     35  C   UNL     1      36.260 -19.396 -20.431  0.00  0.00    -0.000 C 
ATOM     36  C   UNL     1      35.094 -18.698 -20.745  0.00  0.00    -0.000 C 
ENDBRANCH  30  31
ENDBRANCH   8  30
TORSDOF 8
ENDMDL
MODEL 7
REMARK VINA RESULT:      -9.0      4.020      9.297
REMARK  Name = 5287994
REMARK  8 active torsions:
REMARK  status: ('A' for Active; 'I' for Inactive)
REMARK    1  A    between atoms: C_5  and  O_19
REMARK    2  A    between atoms: C_5  and  C_21
REMARK    3  A    between atoms: C_8  and  C_30
REMARK    4  A    between atoms: C_10  and  C_11
REMARK    5  A    between atoms: C_16  and  O_17
REMARK    6  A    between atoms: C_21  and  C_22
REMARK    7  A    between atoms: C_27  and  O_28
REMARK    8  A    between atoms: C_30  and  C_31
REMARK                            x       y       z     vdW  Elec       q    Type
REMARK                         _______ _______ _______ _____ _____    ______ ____
ROOT
ATOM      1  O   UNL     1      37.394 -19.590 -19.718  0.00  0.00    -0.270 OA
ATOM      2  N   UNL     1      35.947 -21.044 -18.603  0.00  0.00    -0.232 N 
ATOM      3  N   UNL     1      33.998 -20.704 -19.702  0.00  0.00    -0.222 NA
ATOM      4  N   UNL     1      34.780 -22.866 -16.889  0.00  0.00    -0.406 NA
ATOM      5  C   UNL     1      35.039 -19.842 -20.341  0.00  0.00    +0.249 C 
ATOM      6  C   UNL     1      34.639 -21.313 -18.759  0.00  0.00    +0.162 C 
ATOM      7  C   UNL     1      36.310 -20.121 -19.538  0.00  0.00    +0.278 C 
ATOM      8  C   UNL     1      34.054 -22.303 -17.809  0.00  0.00    +0.144 C 
ATOM      9  C   UNL     1      36.702 -21.634 -17.637  0.00  0.00    +0.159 C 
ATOM     10  C   UNL     1      36.120 -22.526 -16.811  0.00  0.00    +0.129 C 
ENDROOT
BRANCH  10  11
ATOM     11  C   UNL     1      36.922 -23.170 -15.746  0.00  0.00    +0.027 C 
ATOM     12  C   UNL     1      38.316 -23.163 -15.820  0.00  0.00    +0.005 C 
ATOM     13  C   UNL     1      36.286 -23.785 -14.668  0.00  0.00    +0.005 C 
ATOM     14  C   UNL     1      39.071 -23.770 -14.818  0.00  0.00    +0.037 C 
ATOM     15  C   UNL     1      37.041 -24.391 -13.664  0.00  0.00    +0.037 C 
ATOM     16  C   UNL     1      38.434 -24.384 -13.739  0.00  0.00    +0.134 C 
BRANCH  16  17
ATOM     17  O   UNL     1      39.172 -24.975 -12.760  0.00  0.00    -0.506 OA
ATOM     18  H   UNL     1      39.078 -25.891 -12.589  0.00  0.00    +0.292 HD
ENDBRANCH  16  17
ENDBRANCH  10  11
BRANCH   5  19
ATOM     19  O   UNL     1      34.806 -18.441 -20.294  0.00  0.00    -0.361 OA
ATOM     20  H   UNL     1      34.854 -18.075 -21.191  0.00  0.00    +0.213 HD
ENDBRANCH   5  19
BRANCH   5  21
ATOM     21  C   UNL     1      35.209 -20.285 -21.789  0.00  0.00    +0.086 C 
BRANCH  21  22
ATOM     22  C   UNL     1      34.921 -19.166 -22.752  0.00  0.00    -0.017 C 
ATOM     23  C   UNL     1      34.036 -19.376 -23.801  0.00  0.00    -0.001 C 
ATOM     24  C   UNL     1      35.542 -17.936 -22.578  0.00  0.00    -0.001 C 
ATOM     25  C   UNL     1      33.767 -18.338 -24.693  0.00  0.00    +0.036 C 
ATOM     26  C   UNL     1      35.274 -16.898 -23.470  0.00  0.00    +0.036 C 
ATOM     27  C   UNL     1      34.386 -17.100 -24.527  0.00  0.00    +0.134 C 
BRANCH  27  28
ATOM     28  O   UNL     1      34.125 -16.087 -25.399  0.00  0.00    -0.506 OA
ATOM     29  H   UNL     1      33.494 -16.208 -26.082  0.00  0.00    +0.292 HD
ENDBRANCH  27  28
ENDBRANCH  21  22
ENDBRANCH   5  21
BRANCH   8  30
ATOM     30  C   UNL     1      32.598 -22.625 -17.949  0.00  0.00    +0.088 C 
BRANCH  30  31
ATOM     31  C   UNL     1      31.958 -22.814 -16.606  0.00  0.00    -0.015 C 
ATOM     32  C   UNL     1      32.746 -23.142 -15.507  0.00  0.00    -0.004 C 
ATOM     33  C   UNL     1      30.583 -22.658 -16.470  0.00  0.00    -0.004 C 
ATOM     34  C   UNL     1      32.150 -23.317 -14.258  0.00  0.00    -0.000 C 
ATOM     35  C   UNL     1      29.987 -22.833 -15.221  0.00  0.00    -0.000 C 
ATOM     36  C   UNL     1      30.771 -23.162 -14.115  0.00  0.00    -0.000 C 
ENDBRANCH  30  31
ENDBRANCH   8  30
TORSDOF 8
ENDMDL
MODEL 8
REMARK VINA RESULT:      -8.5      2.373      7.845
REMARK  Name = 5287994
REMARK  8 active torsions:
REMARK  status: ('A' for Active; 'I' for Inactive)
REMARK    1  A    between atoms: C_5  and  O_19
REMARK    2  A    between atoms: C_5  and  C_21
REMARK    3  A    between atoms: C_8  and  C_30
REMARK    4  A    between atoms: C_10  and  C_11
REMARK    5  A    between atoms: C_16  and  O_17
REMARK    6  A    between atoms: C_21  and  C_22
REMARK    7  A    between atoms: C_27  and  O_28
REMARK    8  A    between atoms: C_30  and  C_31
REMARK                            x       y       z     vdW  Elec       q    Type
REMARK                         _______ _______ _______ _____ _____    ______ ____
ROOT
ATOM      1  O   UNL     1      30.755 -21.981 -14.378  0.00  0.00    -0.270 OA
ATOM      2  N   UNL     1      32.736 -23.088 -14.921  0.00  0.00    -0.232 N 
ATOM      3  N   UNL     1      32.796 -24.737 -13.372  0.00  0.00    -0.222 NA
ATOM      4  N   UNL     1      35.140 -23.894 -16.016  0.00  0.00    -0.406 NA
ATOM      5  C   UNL     1      31.542 -23.953 -13.156  0.00  0.00    +0.249 C 
ATOM      6  C   UNL     1      33.357 -24.151 -14.378  0.00  0.00    +0.162 C 
ATOM      7  C   UNL     1      31.587 -22.862 -14.227  0.00  0.00    +0.278 C 
ATOM      8  C   UNL     1      34.651 -24.547 -15.003  0.00  0.00    +0.144 C 
ATOM      9  C   UNL     1      33.253 -22.407 -15.980  0.00  0.00    +0.159 C 
ATOM     10  C   UNL     1      34.423 -22.815 -16.508  0.00  0.00    +0.129 C 
ENDROOT
BRANCH  10  11
ATOM     11  C   UNL     1      35.007 -22.079 -17.653  0.00  0.00    +0.027 C 
ATOM     12  C   UNL     1      34.197 -21.699 -18.724  0.00  0.00    +0.005 C 
ATOM     13  C   UNL     1      36.366 -21.765 -17.662  0.00  0.00    +0.005 C 
ATOM     14  C   UNL     1      34.747 -21.007 -19.803  0.00  0.00    +0.037 C 
ATOM     15  C   UNL     1      36.915 -21.071 -18.740  0.00  0.00    +0.037 C 
ATOM     16  C   UNL     1      36.107 -20.693 -19.811  0.00  0.00    +0.134 C 
BRANCH  16  17
ATOM     17  O   UNL     1      36.642 -20.015 -20.862  0.00  0.00    -0.506 OA
ATOM     18  H   UNL     1      37.470 -19.586 -20.772  0.00  0.00    +0.292 HD
ENDBRANCH  16  17
ENDBRANCH  10  11
BRANCH   5  19
ATOM     19  O   UNL     1      31.417 -23.307 -11.897  0.00  0.00    -0.361 OA
ATOM     20  H   UNL     1      31.344 -22.349 -12.031  0.00  0.00    +0.213 HD
ENDBRANCH   5  19
BRANCH   5  21
ATOM     21  C   UNL     1      30.351 -24.877 -13.379  0.00  0.00    +0.086 C 
BRANCH  21  22
ATOM     22  C   UNL     1      29.462 -24.383 -14.488  0.00  0.00    -0.017 C 
ATOM     23  C   UNL     1      28.539 -23.379 -14.229  0.00  0.00    -0.001 C 
ATOM     24  C   UNL     1      29.578 -24.936 -15.756  0.00  0.00    -0.001 C 
ATOM     25  C   UNL     1      27.716 -22.920 -15.257  0.00  0.00    +0.036 C 
ATOM     26  C   UNL     1      28.755 -24.478 -16.784  0.00  0.00    +0.036 C 
ATOM     27  C   UNL     1      27.824 -23.469 -16.535  0.00  0.00    +0.134 C 
BRANCH  27  28
ATOM     28  O   UNL     1      27.020 -23.022 -17.538  0.00  0.00    -0.506 OA
ATOM     29  H   UNL     1      27.380 -22.503 -18.230  0.00  0.00    +0.292 HD
ENDBRANCH  27  28
ENDBRANCH  21  22
ENDBRANCH   5  21
BRANCH   8  30
ATOM     30  C   UNL     1      35.374 -25.723 -14.422  0.00  0.00    +0.088 C 
BRANCH  30  31
ATOM     31  C   UNL     1      36.443 -25.280 -13.468  0.00  0.00    -0.015 C 
ATOM     32  C   UNL     1      36.088 -24.640 -12.285  0.00  0.00    -0.004 C 
ATOM     33  C   UNL     1      37.779 -25.514 -13.774  0.00  0.00    -0.004 C 
ATOM     34  C   UNL     1      37.083 -24.229 -11.398  0.00  0.00    -0.000 C 
ATOM     35  C   UNL     1      38.774 -25.102 -12.886  0.00  0.00    -0.000 C 
ATOM     36  C   UNL     1      38.425 -24.460 -11.698  0.00  0.00    -0.000 C 
ENDBRANCH  30  31
ENDBRANCH   8  30
TORSDOF 8
ENDMDL
MODEL 9
REMARK VINA RESULT:      -8.4     10.203     14.064
REMARK  Name = 5287994
REMARK  8 active torsions:
REMARK  status: ('A' for Active; 'I' for Inactive)
REMARK    1  A    between atoms: C_5  and  O_19
REMARK    2  A    between atoms: C_5  and  C_21
REMARK    3  A    between atoms: C_8  and  C_30
REMARK    4  A    between atoms: C_10  and  C_11
REMARK    5  A    between atoms: C_16  and  O_17
REMARK    6  A    between atoms: C_21  and  C_22
REMARK    7  A    between atoms: C_27  and  O_28
REMARK    8  A    between atoms: C_30  and  C_31
REMARK                            x       y       z     vdW  Elec       q    Type
REMARK                         _______ _______ _______ _____ _____    ______ ____
ROOT
ATOM      1  O   UNL     1      34.114 -14.068 -26.513  0.00  0.00    -0.270 OA
ATOM      2  N   UNL     1      33.573 -13.068 -24.474  0.00  0.00    -0.232 N 
ATOM      3  N   UNL     1      33.311 -14.863 -23.122  0.00  0.00    -0.222 NA
ATOM      4  N   UNL     1      32.948 -11.315 -22.434  0.00  0.00    -0.406 NA
ATOM      5  C   UNL     1      33.694 -15.365 -24.477  0.00  0.00    +0.249 C 
ATOM      6  C   UNL     1      33.283 -13.580 -23.264  0.00  0.00    +0.162 C 
ATOM      7  C   UNL     1      33.838 -14.099 -25.324  0.00  0.00    +0.278 C 
ATOM      8  C   UNL     1      32.951 -12.593 -22.196  0.00  0.00    +0.144 C 
ATOM      9  C   UNL     1      33.566 -11.729 -24.719  0.00  0.00    +0.159 C 
ATOM     10  C   UNL     1      33.265 -10.885 -23.712  0.00  0.00    +0.129 C 
ENDROOT
BRANCH  10  11
ATOM     11  C   UNL     1      33.241  -9.426 -23.962  0.00  0.00    +0.027 C 
ATOM     12  C   UNL     1      34.333  -8.637 -23.599  0.00  0.00    +0.005 C 
ATOM     13  C   UNL     1      32.127  -8.839 -24.561  0.00  0.00    +0.005 C 
ATOM     14  C   UNL     1      34.309  -7.262 -23.834  0.00  0.00    +0.037 C 
ATOM     15  C   UNL     1      32.103  -7.464 -24.797  0.00  0.00    +0.037 C 
ATOM     16  C   UNL     1      33.194  -6.676 -24.433  0.00  0.00    +0.134 C 
BRANCH  16  17
ATOM     17  O   UNL     1      33.173  -5.335 -24.664  0.00  0.00    -0.506 OA
ATOM     18  H   UNL     1      33.408  -4.737 -23.981  0.00  0.00    +0.292 HD
ENDBRANCH  16  17
ENDBRANCH  10  11
BRANCH   5  19
ATOM     19  O   UNL     1      32.747 -16.203 -25.125  0.00  0.00    -0.361 OA
ATOM     20  H   UNL     1      31.857 -15.997 -24.799  0.00  0.00    +0.213 HD
ENDBRANCH   5  19
BRANCH   5  21
ATOM     21  C   UNL     1      35.029 -16.091 -24.363  0.00  0.00    +0.086 C 
BRANCH  21  22
ATOM     22  C   UNL     1      34.994 -17.160 -23.305  0.00  0.00    -0.017 C 
ATOM     23  C   UNL     1      34.570 -18.439 -23.638  0.00  0.00    -0.001 C 
ATOM     24  C   UNL     1      35.387 -16.853 -22.009  0.00  0.00    -0.001 C 
ATOM     25  C   UNL     1      34.538 -19.430 -22.658  0.00  0.00    +0.036 C 
ATOM     26  C   UNL     1      35.356 -17.844 -21.028  0.00  0.00    +0.036 C 
ATOM     27  C   UNL     1      34.931 -19.132 -21.353  0.00  0.00    +0.134 C 
BRANCH  27  28
ATOM     28  O   UNL     1      34.899 -20.100 -20.396  0.00  0.00    -0.506 OA
ATOM     29  H   UNL     1      34.800 -19.864 -19.494  0.00  0.00    +0.292 HD
ENDBRANCH  27  28
ENDBRANCH  21  22
ENDBRANCH   5  21
BRANCH   8  30
ATOM     30  C   UNL     1      32.618 -13.126 -20.836  0.00  0.00    +0.088 C 
BRANCH  30  31
ATOM     31  C   UNL     1      31.974 -12.070 -19.988  0.00  0.00    -0.015 C 
ATOM     32  C   UNL     1      32.506 -11.770 -18.739  0.00  0.00    -0.004 C 
ATOM     33  C   UNL     1      30.850 -11.399 -20.459  0.00  0.00    -0.004 C 
ATOM     34  C   UNL     1      31.907 -10.787 -17.951  0.00  0.00    -0.000 C 
ATOM     35  C   UNL     1      30.251 -10.416 -19.671  0.00  0.00    -0.000 C 
ATOM     36  C   UNL     1      30.780 -10.111 -18.417  0.00  0.00    -0.000 C 
ENDBRANCH  30  31
ENDBRANCH   8  30
TORSDOF 8
ENDMDL
