MODEL 1
REMARK VINA RESULT:     -11.2      0.000      0.000
REMARK  Name = 20055414
REMARK  5 active torsions:
REMARK  status: ('A' for Active; 'I' for Inactive)
REMARK    1  A    between atoms: N_1  and  C_18
REMARK    2  A    between atoms: N_2  and  C_8
REMARK    3  A    between atoms: C_11  and  C_17
REMARK    4  A    between atoms: C_18  and  C_19
REMARK    5  A    between atoms: C_19  and  C_30
REMARK                            x       y       z     vdW  Elec       q    Type
REMARK                         _______ _______ _______ _____ _____    ______ ____
ROOT
ATOM      1  N   UNL     1      34.798 -20.684 -20.807  0.00  0.00    +0.390 N 
ATOM      2  N   UNL     1      34.077 -21.855 -18.303  0.00  0.00    -0.312 N 
ATOM      3  C   UNL     1      33.468 -20.449 -20.231  0.00  0.00    -0.055 C 
ATOM      4  C   UNL     1      35.791 -20.810 -19.733  0.00  0.00    -0.055 C 
ATOM      5  C   UNL     1      33.050 -21.604 -19.319  0.00  0.00    +0.068 C 
ATOM      6  C   UNL     1      35.452 -21.979 -18.806  0.00  0.00    +0.068 C 
ATOM      7  H   UNL     1      34.776 -21.553 -21.339  0.00  0.00    -0.080 HD
ENDROOT
BRANCH   2   8
ATOM      8  C   UNL     1      33.741 -22.542 -17.131  0.00  0.00    +0.048 C 
ATOM      9  C   UNL     1      32.403 -22.796 -16.829  0.00  0.00    +0.018 C 
ATOM     10  C   UNL     1      34.745 -22.974 -16.264  0.00  0.00    +0.015 C 
ATOM     11  C   UNL     1      32.069 -23.480 -15.662  0.00  0.00    +0.073 C 
ATOM     12  C   UNL     1      34.411 -23.659 -15.096  0.00  0.00    +0.001 C 
ATOM     13  C   UNL     1      33.073 -23.912 -14.794  0.00  0.00    +0.004 C 
BRANCH  11  17
ATOM     14  F   UNL     1      30.314 -25.077 -15.359  0.00  0.00    -0.166 F 
ATOM     15  F   UNL     1      30.266 -23.313 -14.098  0.00  0.00    -0.166 F 
ATOM     16  F   UNL     1      29.780 -23.149 -16.212  0.00  0.00    -0.166 F 
ATOM     17  C   UNL     1      30.639 -23.750 -15.338  0.00  0.00    +0.419 C 
ENDBRANCH  11  17
ENDBRANCH   2   8
BRANCH   1  18
ATOM     18  C   UNL     1      35.162 -19.599 -21.717  0.00  0.00    -0.069 C 
BRANCH  18  19
ATOM     19  C   UNL     1      35.324 -18.248 -20.986  0.00  0.00    +0.043 C 
BRANCH  19  30
ATOM     20  N   UNL     1      34.890 -15.853 -21.450  0.00  0.00    -0.302 N 
ATOM     21  N   UNL     1      34.961 -15.755 -23.622  0.00  0.00    -0.134 NA
ATOM     22  N   UNL     1      35.191 -17.069 -23.201  0.00  0.00    -0.134 NA
ATOM     23  C   UNL     1      34.320 -13.740 -20.610  0.00  0.00    +0.030 C 
ATOM     24  C   UNL     1      34.488 -13.652 -22.171  0.00  0.00    +0.061 C 
ATOM     25  C   UNL     1      32.846 -13.407 -20.340  0.00  0.00    +0.002 C 
ATOM     26  C   UNL     1      33.144 -13.164 -22.699  0.00  0.00    +0.008 C 
ATOM     27  C   UNL     1      34.719 -15.178 -20.187  0.00  0.00    +0.109 C 
ATOM     28  C   UNL     1      32.130 -13.633 -21.664  0.00  0.00    +0.001 C 
ATOM     29  C   UNL     1      34.780 -15.052 -22.535  0.00  0.00    +0.143 A 
ATOM     30  C   UNL     1      35.141 -17.094 -21.880  0.00  0.00    +0.141 A 
ENDBRANCH  19  30
ENDBRANCH  18  19
ENDBRANCH   1  18
TORSDOF 5
ENDMDL
MODEL 2
REMARK VINA RESULT:     -11.1      2.417      2.939
REMARK  Name = 20055414
REMARK  5 active torsions:
REMARK  status: ('A' for Active; 'I' for Inactive)
REMARK    1  A    between atoms: N_1  and  C_18
REMARK    2  A    between atoms: N_2  and  C_8
REMARK    3  A    between atoms: C_11  and  C_17
REMARK    4  A    between atoms: C_18  and  C_19
REMARK    5  A    between atoms: C_19  and  C_30
REMARK                            x       y       z     vdW  Elec       q    Type
REMARK                         _______ _______ _______ _____ _____    ______ ____
ROOT
ATOM      1  N   UNL     1      35.658 -19.771 -21.270  0.00  0.00    +0.390 N 
ATOM      2  N   UNL     1      35.046 -21.253 -18.906  0.00  0.00    -0.312 N 
ATOM      3  C   UNL     1      34.322 -19.691 -20.667  0.00  0.00    -0.055 C 
ATOM      4  C   UNL     1      36.669 -19.945 -20.221  0.00  0.00    -0.055 C 
ATOM      5  C   UNL     1      33.993 -20.964 -19.884  0.00  0.00    +0.068 C 
ATOM      6  C   UNL     1      36.420 -21.228 -19.425  0.00  0.00    +0.068 C 
ATOM      7  H   UNL     1      35.688 -20.577 -21.894  0.00  0.00    -0.080 HD
ENDROOT
BRANCH   2   8
ATOM      8  C   UNL     1      34.771 -22.084 -17.814  0.00  0.00    +0.048 C 
ATOM      9  C   UNL     1      35.740 -22.291 -16.832  0.00  0.00    +0.018 C 
ATOM     10  C   UNL     1      33.527 -22.707 -17.708  0.00  0.00    +0.015 C 
ATOM     11  C   UNL     1      35.465 -23.120 -15.745  0.00  0.00    +0.073 C 
ATOM     12  C   UNL     1      33.252 -23.536 -16.620  0.00  0.00    +0.001 C 
ATOM     13  C   UNL     1      34.221 -23.742 -15.639  0.00  0.00    +0.004 C 
BRANCH  11  17
ATOM     14  F   UNL     1      36.065 -23.068 -13.430  0.00  0.00    -0.166 F 
ATOM     15  F   UNL     1      36.960 -24.628 -14.644  0.00  0.00    -0.166 F 
ATOM     16  F   UNL     1      37.608 -22.565 -14.878  0.00  0.00    -0.166 F 
ATOM     17  C   UNL     1      36.501 -23.342 -14.696  0.00  0.00    +0.419 C 
ENDBRANCH  11  17
ENDBRANCH   2   8
BRANCH   1  18
ATOM     18  C   UNL     1      35.937 -18.572 -22.059  0.00  0.00    -0.069 C 
BRANCH  18  19
ATOM     19  C   UNL     1      34.921 -18.374 -23.205  0.00  0.00    +0.043 C 
BRANCH  19  30
ATOM     20  N   UNL     1      34.699 -15.978 -22.609  0.00  0.00    -0.302 N 
ATOM     21  N   UNL     1      34.307 -15.031 -24.528  0.00  0.00    -0.134 NA
ATOM     22  N   UNL     1      34.458 -16.411 -24.704  0.00  0.00    -0.134 NA
ATOM     23  C   UNL     1      34.594 -14.355 -20.922  0.00  0.00    +0.030 C 
ATOM     24  C   UNL     1      34.428 -13.661 -22.323  0.00  0.00    +0.061 C 
ATOM     25  C   UNL     1      33.268 -14.111 -20.188  0.00  0.00    +0.002 C 
ATOM     26  C   UNL     1      33.073 -12.964 -22.275  0.00  0.00    +0.008 C 
ATOM     27  C   UNL     1      34.893 -15.854 -21.185  0.00  0.00    +0.109 C 
ATOM     28  C   UNL     1      32.258 -13.774 -21.276  0.00  0.00    +0.001 C 
ATOM     29  C   UNL     1      34.457 -14.810 -23.248  0.00  0.00    +0.143 A 
ATOM     30  C   UNL     1      34.693 -16.955 -23.522  0.00  0.00    +0.141 A 
ENDBRANCH  19  30
ENDBRANCH  18  19
ENDBRANCH   1  18
TORSDOF 5
ENDMDL
MODEL 3
REMARK VINA RESULT:     -11.1      3.595      6.079
REMARK  Name = 20055414
REMARK  5 active torsions:
REMARK  status: ('A' for Active; 'I' for Inactive)
REMARK    1  A    between atoms: N_1  and  C_18
REMARK    2  A    between atoms: N_2  and  C_8
REMARK    3  A    between atoms: C_11  and  C_17
REMARK    4  A    between atoms: C_18  and  C_19
REMARK    5  A    between atoms: C_19  and  C_30
REMARK                            x       y       z     vdW  Elec       q    Type
REMARK                         _______ _______ _______ _____ _____    ______ ____
ROOT
ATOM      1  N   UNL     1      34.525 -14.907 -23.212  0.00  0.00    +0.390 N 
ATOM      2  N   UNL     1      34.995 -17.344 -21.799  0.00  0.00    -0.312 N 
ATOM      3  C   UNL     1      34.373 -16.200 -23.889  0.00  0.00    -0.055 C 
ATOM      4  C   UNL     1      34.139 -15.033 -21.801  0.00  0.00    -0.055 C 
ATOM      5  C   UNL     1      35.254 -17.269 -23.240  0.00  0.00    +0.068 C 
ATOM      6  C   UNL     1      35.013 -16.062 -21.082  0.00  0.00    +0.068 C 
ATOM      7  H   UNL     1      35.503 -14.624 -23.261  0.00  0.00    -0.080 HD
ENDROOT
BRANCH   2   8
ATOM      8  C   UNL     1      35.345 -18.499 -21.089  0.00  0.00    +0.048 C 
ATOM      9  C   UNL     1      34.355 -19.389 -20.671  0.00  0.00    +0.018 C 
ATOM     10  C   UNL     1      36.684 -18.760 -20.800  0.00  0.00    +0.015 C 
ATOM     11  C   UNL     1      34.704 -20.538 -19.965  0.00  0.00    +0.073 C 
ATOM     12  C   UNL     1      37.034 -19.911 -20.093  0.00  0.00    +0.001 C 
ATOM     13  C   UNL     1      36.044 -20.800 -19.675  0.00  0.00    +0.004 C 
BRANCH  11  17
ATOM     14  F   UNL     1      34.014 -22.802 -19.611  0.00  0.00    -0.166 F 
ATOM     15  F   UNL     1      33.272 -21.317 -18.214  0.00  0.00    -0.166 F 
ATOM     16  F   UNL     1      32.498 -21.377 -20.245  0.00  0.00    -0.166 F 
ATOM     17  C   UNL     1      33.646 -21.489 -19.517  0.00  0.00    +0.419 C 
ENDBRANCH  11  17
ENDBRANCH   2   8
BRANCH   1  18
ATOM     18  C   UNL     1      33.719 -13.882 -23.875  0.00  0.00    -0.069 C 
BRANCH  18  19
ATOM     19  C   UNL     1      34.133 -12.452 -23.463  0.00  0.00    +0.043 C 
BRANCH  19  30
ATOM     20  N   UNL     1      32.955 -10.341 -22.918  0.00  0.00    -0.302 N 
ATOM     21  N   UNL     1      31.133 -11.033 -21.952  0.00  0.00    -0.134 NA
ATOM     22  N   UNL     1      31.917 -12.130 -22.323  0.00  0.00    -0.134 NA
ATOM     23  C   UNL     1      33.004  -7.998 -22.865  0.00  0.00    +0.030 C 
ATOM     24  C   UNL     1      31.638  -8.504 -22.275  0.00  0.00    +0.061 C 
ATOM     25  C   UNL     1      33.708  -7.282 -21.704  0.00  0.00    +0.002 C 
ATOM     26  C   UNL     1      31.579  -7.957 -20.853  0.00  0.00    +0.008 C 
ATOM     27  C   UNL     1      33.769  -9.244 -23.383  0.00  0.00    +0.109 C 
ATOM     28  C   UNL     1      33.037  -7.801 -20.441  0.00  0.00    +0.001 C 
ATOM     29  C   UNL     1      31.796  -9.970 -22.325  0.00  0.00    +0.143 A 
ATOM     30  C   UNL     1      33.014 -11.677 -22.905  0.00  0.00    +0.141 A 
ENDBRANCH  19  30
ENDBRANCH  18  19
ENDBRANCH   1  18
TORSDOF 5
ENDMDL
MODEL 4
REMARK VINA RESULT:     -10.9      4.411     10.092
REMARK  Name = 20055414
REMARK  5 active torsions:
REMARK  status: ('A' for Active; 'I' for Inactive)
REMARK    1  A    between atoms: N_1  and  C_18
REMARK    2  A    between atoms: N_2  and  C_8
REMARK    3  A    between atoms: C_11  and  C_17
REMARK    4  A    between atoms: C_18  and  C_19
REMARK    5  A    between atoms: C_19  and  C_30
REMARK                            x       y       z     vdW  Elec       q    Type
REMARK                         _______ _______ _______ _____ _____    ______ ____
ROOT
ATOM      1  N   UNL     1      35.798 -21.330 -19.392  0.00  0.00    +0.390 N 
ATOM      2  N   UNL     1      35.369 -18.908 -20.845  0.00  0.00    -0.312 N 
ATOM      3  C   UNL     1      36.719 -20.197 -19.239  0.00  0.00    -0.055 C 
ATOM      4  C   UNL     1      34.436 -20.837 -19.627  0.00  0.00    -0.055 C 
ATOM      5  C   UNL     1      36.730 -19.322 -20.494  0.00  0.00    +0.068 C 
ATOM      6  C   UNL     1      34.370 -19.985 -20.896  0.00  0.00    +0.068 C 
ATOM      7  H   UNL     1      36.091 -21.884 -20.196  0.00  0.00    -0.080 HD
ENDROOT
BRANCH   2   8
ATOM      8  C   UNL     1      35.172 -17.790 -21.663  0.00  0.00    +0.048 C 
ATOM      9  C   UNL     1      34.899 -16.546 -21.092  0.00  0.00    +0.018 C 
ATOM     10  C   UNL     1      35.248 -17.919 -23.050  0.00  0.00    +0.015 C 
ATOM     11  C   UNL     1      34.703 -15.433 -21.909  0.00  0.00    +0.073 C 
ATOM     12  C   UNL     1      35.052 -16.804 -23.866  0.00  0.00    +0.001 C 
ATOM     13  C   UNL     1      34.779 -15.562 -23.296  0.00  0.00    +0.004 C 
BRANCH  11  17
ATOM     14  F   UNL     1      35.186 -13.818 -20.211  0.00  0.00    -0.166 F 
ATOM     15  F   UNL     1      34.599 -13.056 -22.156  0.00  0.00    -0.166 F 
ATOM     16  F   UNL     1      33.120 -13.996 -20.868  0.00  0.00    -0.166 F 
ATOM     17  C   UNL     1      34.410 -14.104 -21.299  0.00  0.00    +0.419 C 
ENDBRANCH  11  17
ENDBRANCH   2   8
BRANCH   1  18
ATOM     18  C   UNL     1      35.838 -22.187 -18.208  0.00  0.00    -0.069 C 
BRANCH  18  19
ATOM     19  C   UNL     1      36.586 -21.526 -17.030  0.00  0.00    +0.043 C 
BRANCH  19  30
ATOM     20  N   UNL     1      36.261 -23.357 -15.391  0.00  0.00    -0.302 N 
ATOM     21  N   UNL     1      38.282 -23.744 -14.685  0.00  0.00    -0.134 NA
ATOM     22  N   UNL     1      38.302 -22.715 -15.632  0.00  0.00    -0.134 NA
ATOM     23  C   UNL     1      34.765 -24.718 -14.206  0.00  0.00    +0.030 C 
ATOM     24  C   UNL     1      36.238 -25.073 -13.786  0.00  0.00    +0.061 C 
ATOM     25  C   UNL     1      34.098 -24.178 -12.933  0.00  0.00    +0.002 C 
ATOM     26  C   UNL     1      36.303 -24.831 -12.282  0.00  0.00    +0.008 C 
ATOM     27  C   UNL     1      34.855 -23.674 -15.350  0.00  0.00    +0.109 C 
ATOM     28  C   UNL     1      35.243 -23.770 -12.017  0.00  0.00    +0.001 C 
ATOM     29  C   UNL     1      37.030 -24.103 -14.564  0.00  0.00    +0.143 A 
ATOM     30  C   UNL     1      37.062 -22.504 -16.040  0.00  0.00    +0.141 A 
ENDBRANCH  19  30
ENDBRANCH  18  19
ENDBRANCH   1  18
TORSDOF 5
ENDMDL
MODEL 5
REMARK VINA RESULT:     -10.8      4.763     10.308
REMARK  Name = 20055414
REMARK  5 active torsions:
REMARK  status: ('A' for Active; 'I' for Inactive)
REMARK    1  A    between atoms: N_1  and  C_18
REMARK    2  A    between atoms: N_2  and  C_8
REMARK    3  A    between atoms: C_11  and  C_17
REMARK    4  A    between atoms: C_18  and  C_19
REMARK    5  A    between atoms: C_19  and  C_30
REMARK                            x       y       z     vdW  Elec       q    Type
REMARK                         _______ _______ _______ _____ _____    ______ ____
ROOT
ATOM      1  N   UNL     1      34.139 -23.145 -17.272  0.00  0.00    +0.390 N 
ATOM      2  N   UNL     1      35.064 -21.190 -19.138  0.00  0.00    -0.312 N 
ATOM      3  C   UNL     1      35.345 -22.357 -16.988  0.00  0.00    -0.055 C 
ATOM      4  C   UNL     1      33.181 -22.335 -18.034  0.00  0.00    -0.055 C 
ATOM      5  C   UNL     1      36.020 -21.897 -18.281  0.00  0.00    +0.068 C 
ATOM      6  C   UNL     1      33.784 -21.876 -19.363  0.00  0.00    +0.068 C 
ATOM      7  H   UNL     1      34.402 -23.957 -17.831  0.00  0.00    -0.080 HD
ENDROOT
BRANCH   2   8
ATOM      8  C   UNL     1      35.531 -20.327 -20.136  0.00  0.00    +0.048 C 
ATOM      9  C   UNL     1      34.783 -20.132 -21.297  0.00  0.00    +0.018 C 
ATOM     10  C   UNL     1      36.746 -19.662 -19.969  0.00  0.00    +0.015 C 
ATOM     11  C   UNL     1      35.250 -19.273 -22.291  0.00  0.00    +0.073 C 
ATOM     12  C   UNL     1      37.212 -18.802 -20.964  0.00  0.00    +0.001 C 
ATOM     13  C   UNL     1      36.464 -18.607 -22.124  0.00  0.00    +0.004 C 
BRANCH  11  17
ATOM     14  F   UNL     1      33.115 -19.302 -23.371  0.00  0.00    -0.166 F 
ATOM     15  F   UNL     1      34.529 -17.793 -24.026  0.00  0.00    -0.166 F 
ATOM     16  F   UNL     1      34.846 -19.879 -24.554  0.00  0.00    -0.166 F 
ATOM     17  C   UNL     1      34.450 -19.065 -23.532  0.00  0.00    +0.419 C 
ENDBRANCH  11  17
ENDBRANCH   2   8
BRANCH   1  18
ATOM     18  C   UNL     1      33.534 -23.624 -16.030  0.00  0.00    -0.069 C 
BRANCH  18  19
ATOM     19  C   UNL     1      33.887 -22.728 -14.822  0.00  0.00    +0.043 C 
BRANCH  19  30
ATOM     20  N   UNL     1      35.687 -23.792 -13.492  0.00  0.00    -0.302 N 
ATOM     21  N   UNL     1      34.609 -24.652 -11.810  0.00  0.00    -0.134 NA
ATOM     22  N   UNL     1      33.711 -24.005 -12.666  0.00  0.00    -0.134 NA
ATOM     23  C   UNL     1      37.951 -24.378 -13.326  0.00  0.00    +0.030 C 
ATOM     24  C   UNL     1      37.184 -24.895 -12.055  0.00  0.00    +0.061 C 
ATOM     25  C   UNL     1      38.459 -25.640 -14.036  0.00  0.00    +0.002 C 
ATOM     26  C   UNL     1      37.391 -26.406 -12.040  0.00  0.00    +0.008 C 
ATOM     27  C   UNL     1      36.939 -23.556 -14.168  0.00  0.00    +0.109 C 
ATOM     28  C   UNL     1      37.603 -26.779 -13.501  0.00  0.00    +0.001 C 
ATOM     29  C   UNL     1      35.792 -24.503 -12.346  0.00  0.00    +0.143 A 
ATOM     30  C   UNL     1      34.396 -23.496 -13.676  0.00  0.00    +0.141 A 
ENDBRANCH  19  30
ENDBRANCH  18  19
ENDBRANCH   1  18
TORSDOF 5
ENDMDL
MODEL 6
REMARK VINA RESULT:     -10.7      4.148      9.690
REMARK  Name = 20055414
REMARK  5 active torsions:
REMARK  status: ('A' for Active; 'I' for Inactive)
REMARK    1  A    between atoms: N_1  and  C_18
REMARK    2  A    between atoms: N_2  and  C_8
REMARK    3  A    between atoms: C_11  and  C_17
REMARK    4  A    between atoms: C_18  and  C_19
REMARK    5  A    between atoms: C_19  and  C_30
REMARK                            x       y       z     vdW  Elec       q    Type
REMARK                         _______ _______ _______ _____ _____    ______ ____
ROOT
ATOM      1  N   UNL     1      34.708 -21.449 -19.008  0.00  0.00    +0.390 N 
ATOM      2  N   UNL     1      34.788 -19.277 -20.862  0.00  0.00    -0.312 N 
ATOM      3  C   UNL     1      33.542 -21.143 -19.846  0.00  0.00    -0.055 C 
ATOM      4  C   UNL     1      35.943 -21.143 -19.740  0.00  0.00    -0.055 C 
ATOM      5  C   UNL     1      33.519 -19.665 -20.240  0.00  0.00    +0.068 C 
ATOM      6  C   UNL     1      36.000 -19.664 -20.128  0.00  0.00    +0.068 C 
ATOM      7  H   UNL     1      34.670 -20.869 -18.170  0.00  0.00    -0.080 HD
ENDROOT
BRANCH   2   8
ATOM      8  C   UNL     1      34.845 -18.136 -21.670  0.00  0.00    +0.048 C 
ATOM      9  C   UNL     1      34.636 -16.874 -21.114  0.00  0.00    +0.018 C 
ATOM     10  C   UNL     1      35.112 -18.261 -23.034  0.00  0.00    +0.015 C 
ATOM     11  C   UNL     1      34.693 -15.739 -21.920  0.00  0.00    +0.073 C 
ATOM     12  C   UNL     1      35.169 -17.124 -23.841  0.00  0.00    +0.001 C 
ATOM     13  C   UNL     1      34.960 -15.863 -23.284  0.00  0.00    +0.004 C 
BRANCH  11  17
ATOM     14  F   UNL     1      35.098 -14.207 -20.127  0.00  0.00    -0.166 F 
ATOM     15  F   UNL     1      34.903 -13.364 -22.116  0.00  0.00    -0.166 F 
ATOM     16  F   UNL     1      33.148 -14.134 -21.087  0.00  0.00    -0.166 F 
ATOM     17  C   UNL     1      34.468 -14.390 -21.325  0.00  0.00    +0.419 C 
ENDBRANCH  11  17
ENDBRANCH   2   8
BRANCH   1  18
ATOM     18  C   UNL     1      34.690 -22.851 -18.595  0.00  0.00    -0.069 C 
BRANCH  18  19
ATOM     19  C   UNL     1      34.409 -23.015 -17.086  0.00  0.00    +0.043 C 
BRANCH  19  30
ATOM     20  N   UNL     1      32.466 -23.132 -15.551  0.00  0.00    -0.302 N 
ATOM     21  N   UNL     1      30.816 -22.461 -16.799  0.00  0.00    -0.134 NA
ATOM     22  N   UNL     1      32.003 -22.450 -17.539  0.00  0.00    -0.134 NA
ATOM     23  C   UNL     1      31.630 -23.758 -13.452  0.00  0.00    +0.030 C 
ATOM     24  C   UNL     1      30.463 -23.162 -14.321  0.00  0.00    +0.061 C 
ATOM     25  C   UNL     1      31.242 -25.221 -13.199  0.00  0.00    +0.002 C 
ATOM     26  C   UNL     1      29.421 -24.270 -14.422  0.00  0.00    +0.008 C 
ATOM     27  C   UNL     1      32.939 -23.595 -14.269  0.00  0.00    +0.109 C 
ATOM     28  C   UNL     1      30.217 -25.561 -14.271  0.00  0.00    +0.001 C 
ATOM     29  C   UNL     1      31.137 -22.882 -15.604  0.00  0.00    +0.143 A 
ATOM     30  C   UNL     1      32.984 -22.863 -16.754  0.00  0.00    +0.141 A 
ENDBRANCH  19  30
ENDBRANCH  18  19
ENDBRANCH   1  18
TORSDOF 5
ENDMDL
MODEL 7
REMARK VINA RESULT:     -10.7      1.854      3.060
REMARK  Name = 20055414
REMARK  5 active torsions:
REMARK  status: ('A' for Active; 'I' for Inactive)
REMARK    1  A    between atoms: N_1  and  C_18
REMARK    2  A    between atoms: N_2  and  C_8
REMARK    3  A    between atoms: C_11  and  C_17
REMARK    4  A    between atoms: C_18  and  C_19
REMARK    5  A    between atoms: C_19  and  C_30
REMARK                            x       y       z     vdW  Elec       q    Type
REMARK                         _______ _______ _______ _____ _____    ______ ____
ROOT
ATOM      1  N   UNL     1      35.359 -18.370 -22.383  0.00  0.00    +0.390 N 
ATOM      2  N   UNL     1      35.606 -20.170 -20.178  0.00  0.00    -0.312 N 
ATOM      3  C   UNL     1      36.681 -18.700 -21.835  0.00  0.00    -0.055 C 
ATOM      4  C   UNL     1      34.468 -19.531 -22.269  0.00  0.00    -0.055 C 
ATOM      5  C   UNL     1      36.585 -19.095 -20.361  0.00  0.00    +0.068 C 
ATOM      6  C   UNL     1      34.297 -19.952 -20.808  0.00  0.00    +0.068 C 
ATOM      7  H   UNL     1      34.965 -17.599 -21.844  0.00  0.00    -0.080 HD
ENDROOT
BRANCH   2   8
ATOM      8  C   UNL     1      35.658 -20.969 -19.031  0.00  0.00    +0.048 C 
ATOM      9  C   UNL     1      34.537 -21.703 -18.639  0.00  0.00    +0.018 C 
ATOM     10  C   UNL     1      36.830 -21.033 -18.278  0.00  0.00    +0.015 C 
ATOM     11  C   UNL     1      34.590 -22.498 -17.495  0.00  0.00    +0.073 C 
ATOM     12  C   UNL     1      36.882 -21.829 -17.133  0.00  0.00    +0.001 C 
ATOM     13  C   UNL     1      35.763 -22.562 -16.742  0.00  0.00    +0.004 C 
BRANCH  11  17
ATOM     14  F   UNL     1      32.208 -22.650 -17.331  0.00  0.00    -0.166 F 
ATOM     15  F   UNL     1      33.288 -24.495 -17.695  0.00  0.00    -0.166 F 
ATOM     16  F   UNL     1      33.383 -23.551 -15.738  0.00  0.00    -0.166 F 
ATOM     17  C   UNL     1      33.392 -23.281 -17.076  0.00  0.00    +0.419 C 
ENDBRANCH  11  17
ENDBRANCH   2   8
BRANCH   1  18
ATOM     18  C   UNL     1      35.473 -17.943 -23.776  0.00  0.00    -0.069 C 
BRANCH  18  19
ATOM     19  C   UNL     1      34.095 -17.675 -24.422  0.00  0.00    +0.043 C 
BRANCH  19  30
ATOM     20  N   UNL     1      34.082 -15.321 -23.648  0.00  0.00    -0.302 N 
ATOM     21  N   UNL     1      33.200 -14.259 -25.330  0.00  0.00    -0.134 NA
ATOM     22  N   UNL     1      33.275 -15.625 -25.621  0.00  0.00    -0.134 NA
ATOM     23  C   UNL     1      34.465 -13.803 -21.904  0.00  0.00    +0.030 C 
ATOM     24  C   UNL     1      33.937 -13.026 -23.164  0.00  0.00    +0.061 C 
ATOM     25  C   UNL     1      33.392 -13.605 -20.825  0.00  0.00    +0.002 C 
ATOM     26  C   UNL     1      32.657 -12.333 -22.709  0.00  0.00    +0.008 C 
ATOM     27  C   UNL     1      34.657 -15.283 -22.326  0.00  0.00    +0.109 C 
ATOM     28  C   UNL     1      32.131 -13.203 -21.575  0.00  0.00    +0.001 C 
ATOM     29  C   UNL     1      33.694 -14.116 -24.128  0.00  0.00    +0.143 A 
ATOM     30  C   UNL     1      33.813 -16.241 -24.582  0.00  0.00    +0.141 A 
ENDBRANCH  19  30
ENDBRANCH  18  19
ENDBRANCH   1  18
TORSDOF 5
ENDMDL
MODEL 8
REMARK VINA RESULT:     -10.7      7.629     12.504
REMARK  Name = 20055414
REMARK  5 active torsions:
REMARK  status: ('A' for Active; 'I' for Inactive)
REMARK    1  A    between atoms: N_1  and  C_18
REMARK    2  A    between atoms: N_2  and  C_8
REMARK    3  A    between atoms: C_11  and  C_17
REMARK    4  A    between atoms: C_18  and  C_19
REMARK    5  A    between atoms: C_19  and  C_30
REMARK                            x       y       z     vdW  Elec       q    Type
REMARK                         _______ _______ _______ _____ _____    ______ ____
ROOT
ATOM      1  N   UNL     1      32.221 -12.384 -22.976  0.00  0.00    +0.390 N 
ATOM      2  N   UNL     1      32.407  -9.683 -22.065  0.00  0.00    -0.312 N 
ATOM      3  C   UNL     1      33.206 -11.467 -23.564  0.00  0.00    -0.055 C 
ATOM      4  C   UNL     1      32.026 -12.064 -21.557  0.00  0.00    -0.055 C 
ATOM      5  C   UNL     1      32.740 -10.014 -23.454  0.00  0.00    +0.068 C 
ATOM      6  C   UNL     1      31.519 -10.631 -21.381  0.00  0.00    +0.068 C 
ATOM      7  H   UNL     1      31.334 -12.269 -23.465  0.00  0.00    -0.080 HD
ENDROOT
BRANCH   2   8
ATOM      8  C   UNL     1      32.378  -8.344 -21.658  0.00  0.00    +0.048 C 
ATOM      9  C   UNL     1      31.865  -7.366 -22.510  0.00  0.00    +0.018 C 
ATOM     10  C   UNL     1      32.863  -7.988 -20.399  0.00  0.00    +0.015 C 
ATOM     11  C   UNL     1      31.837  -6.033 -22.103  0.00  0.00    +0.073 C 
ATOM     12  C   UNL     1      32.835  -6.653 -19.993  0.00  0.00    +0.001 C 
ATOM     13  C   UNL     1      32.322  -5.676 -20.845  0.00  0.00    +0.004 C 
BRANCH  11  17
ATOM     14  F   UNL     1      32.252  -4.265 -23.661  0.00  0.00    -0.166 F 
ATOM     15  F   UNL     1      30.494  -5.488 -24.006  0.00  0.00    -0.166 F 
ATOM     16  F   UNL     1      30.521  -4.069 -22.358  0.00  0.00    -0.166 F 
ATOM     17  C   UNL     1      31.289  -4.987 -23.014  0.00  0.00    +0.419 C 
ENDBRANCH  11  17
ENDBRANCH   2   8
BRANCH   1  18
ATOM     18  C   UNL     1      32.654 -13.771 -23.135  0.00  0.00    -0.069 C 
BRANCH  18  19
ATOM     19  C   UNL     1      34.183 -13.930 -22.991  0.00  0.00    +0.043 C 
BRANCH  19  30
ATOM     20  N   UNL     1      35.045 -16.135 -22.258  0.00  0.00    -0.302 N 
ATOM     21  N   UNL     1      34.950 -16.001 -20.089  0.00  0.00    -0.134 NA
ATOM     22  N   UNL     1      34.487 -14.810 -20.657  0.00  0.00    -0.134 NA
ATOM     23  C   UNL     1      35.766 -18.283 -22.859  0.00  0.00    +0.030 C 
ATOM     24  C   UNL     1      35.806 -18.139 -21.294  0.00  0.00    +0.061 C 
ATOM     25  C   UNL     1      34.728 -19.378 -23.140  0.00  0.00    +0.002 C 
ATOM     26  C   UNL     1      34.883 -19.229 -20.760  0.00  0.00    +0.008 C 
ATOM     27  C   UNL     1      35.379 -16.897 -23.437  0.00  0.00    +0.109 C 
ATOM     28  C   UNL     1      33.879 -19.466 -21.880  0.00  0.00    +0.001 C 
ATOM     29  C   UNL     1      35.274 -16.778 -21.089  0.00  0.00    +0.143 A 
ATOM     30  C   UNL     1      34.557 -14.923 -21.972  0.00  0.00    +0.141 A 
ENDBRANCH  19  30
ENDBRANCH  18  19
ENDBRANCH   1  18
TORSDOF 5
ENDMDL
MODEL 9
REMARK VINA RESULT:     -10.6      4.565     10.335
REMARK  Name = 20055414
REMARK  5 active torsions:
REMARK  status: ('A' for Active; 'I' for Inactive)
REMARK    1  A    between atoms: N_1  and  C_18
REMARK    2  A    between atoms: N_2  and  C_8
REMARK    3  A    between atoms: C_11  and  C_17
REMARK    4  A    between atoms: C_18  and  C_19
REMARK    5  A    between atoms: C_19  and  C_30
REMARK                            x       y       z     vdW  Elec       q    Type
REMARK                         _______ _______ _______ _____ _____    ______ ____
ROOT
ATOM      1  N   UNL     1      35.404 -21.551 -19.270  0.00  0.00    +0.390 N 
ATOM      2  N   UNL     1      35.194 -19.100 -20.722  0.00  0.00    -0.312 N 
ATOM      3  C   UNL     1      36.432 -20.512 -19.129  0.00  0.00    -0.055 C 
ATOM      4  C   UNL     1      34.093 -20.928 -19.490  0.00  0.00    -0.055 C 
ATOM      5  C   UNL     1      36.514 -19.643 -20.385  0.00  0.00    +0.068 C 
ATOM      6  C   UNL     1      34.096 -20.075 -20.760  0.00  0.00    +0.068 C 
ATOM      7  H   UNL     1      35.633 -22.131 -20.077  0.00  0.00    -0.080 HD
ENDROOT
BRANCH   2   8
ATOM      8  C   UNL     1      35.097 -17.969 -21.540  0.00  0.00    +0.048 C 
ATOM      9  C   UNL     1      34.849 -16.717 -20.975  0.00  0.00    +0.018 C 
ATOM     10  C   UNL     1      35.248 -18.092 -22.922  0.00  0.00    +0.015 C 
ATOM     11  C   UNL     1      34.752 -15.591 -21.791  0.00  0.00    +0.073 C 
ATOM     12  C   UNL     1      35.151 -16.965 -23.738  0.00  0.00    +0.001 C 
ATOM     13  C   UNL     1      34.903 -15.715 -23.173  0.00  0.00    +0.004 C 
BRANCH  11  17
ATOM     14  F   UNL     1      35.287 -13.966 -20.118  0.00  0.00    -0.166 F 
ATOM     15  F   UNL     1      34.669 -13.215 -22.057  0.00  0.00    -0.166 F 
ATOM     16  F   UNL     1      33.207 -14.128 -20.731  0.00  0.00    -0.166 F 
ATOM     17  C   UNL     1      34.487 -14.254 -21.187  0.00  0.00    +0.419 C 
ENDBRANCH  11  17
ENDBRANCH   2   8
BRANCH   1  18
ATOM     18  C   UNL     1      35.374 -22.407 -18.085  0.00  0.00    -0.069 C 
BRANCH  18  19
ATOM     19  C   UNL     1      36.457 -22.021 -17.054  0.00  0.00    +0.043 C 
BRANCH  19  30
ATOM     20  N   UNL     1      37.109 -23.291 -15.028  0.00  0.00    -0.302 N 
ATOM     21  N   UNL     1      35.313 -23.213 -13.804  0.00  0.00    -0.134 NA
ATOM     22  N   UNL     1      35.096 -22.528 -15.004  0.00  0.00    -0.134 NA
ATOM     23  C   UNL     1      38.714 -24.611 -13.944  0.00  0.00    +0.030 C 
ATOM     24  C   UNL     1      37.456 -24.453 -13.015  0.00  0.00    +0.061 C 
ATOM     25  C   UNL     1      38.799 -26.110 -14.263  0.00  0.00    +0.002 C 
ATOM     26  C   UNL     1      36.959 -25.871 -12.757  0.00  0.00    +0.008 C 
ATOM     27  C   UNL     1      38.475 -23.723 -15.194  0.00  0.00    +0.109 C 
ATOM     28  C   UNL     1      37.412 -26.666 -13.975  0.00  0.00    +0.001 C 
ATOM     29  C   UNL     1      36.539 -23.662 -13.858  0.00  0.00    +0.143 A 
ATOM     30  C   UNL     1      36.204 -22.594 -15.723  0.00  0.00    +0.141 A 
ENDBRANCH  19  30
ENDBRANCH  18  19
ENDBRANCH   1  18
TORSDOF 5
ENDMDL
