MODEL 1
REMARK VINA RESULT:     -12.2      0.000      0.000
REMARK  Name = 21302490
REMARK  5 active torsions:
REMARK  status: ('A' for Active; 'I' for Inactive)
REMARK    1  A    between atoms: N_2  and  C_19
REMARK    2  A    between atoms: C_19  and  C_20
REMARK    3  A    between atoms: C_20  and  C_21
REMARK    4  A    between atoms: C_21  and  C_23
REMARK    5  A    between atoms: C_23  and  C_25
REMARK                            x       y       z     vdW  Elec       q    Type
REMARK                         _______ _______ _______ _____ _____    ______ ____
ROOT
ATOM      1  N   UNL     1      32.607 -11.015 -22.507  0.00  0.00    -0.307 N 
ATOM      2  N   UNL     1      33.602 -14.538 -21.403  0.00  0.00    +0.387 N 
ATOM      3  N   UNL     1      32.727  -8.198 -22.035  0.00  0.00    -0.303 N 
ATOM      4  C   UNL     1      31.968 -12.336 -22.458  0.00  0.00    +0.073 C 
ATOM      5  C   UNL     1      31.949 -12.734 -20.946  0.00  0.00    +0.021 C 
ATOM      6  C   UNL     1      32.654 -13.369 -23.345  0.00  0.00    -0.003 C 
ATOM      7  C   UNL     1      33.214 -13.470 -20.477  0.00  0.00    -0.071 C 
ATOM      8  C   UNL     1      31.886 -11.370 -20.319  0.00  0.00    -0.008 C 
ATOM      9  C   UNL     1      32.292 -10.426 -21.267  0.00  0.00    +0.057 C 
ATOM     10  C   UNL     1      33.911 -13.970 -22.722  0.00  0.00    -0.076 C 
ATOM     11  C   UNL     1      32.549 -10.102 -23.630  0.00  0.00    +0.112 C 
ATOM     12  C   UNL     1      32.359  -9.059 -21.008  0.00  0.00    +0.061 C 
ATOM     13  C   UNL     1      33.275  -8.797 -23.262  0.00  0.00    +0.112 C 
ATOM     14  C   UNL     1      31.542 -10.981 -19.042  0.00  0.00    -0.003 C 
ATOM     15  C   UNL     1      31.998  -8.672 -19.711  0.00  0.00    +0.016 C 
ATOM     16  C   UNL     1      31.599  -9.619 -18.743  0.00  0.00    +0.001 C 
ATOM     17  C   UNL     1      32.941  -6.783 -21.791  0.00  0.00    +0.112 C 
ATOM     18  H   UNL     1      32.824 -15.191 -21.499  0.00  0.00    -0.080 HD
ENDROOT
BRANCH   2  19
ATOM     19  C   UNL     1      34.759 -15.267 -20.882  0.00  0.00    -0.077 C 
BRANCH  19  20
ATOM     20  C   UNL     1      35.135 -16.410 -21.827  0.00  0.00    -0.015 C 
BRANCH  20  21
ATOM     21  C   UNL     1      35.645 -17.643 -21.076  0.00  0.00    +0.067 C 
BRANCH  21  23
ATOM     22  O   UNL     1      34.654 -19.135 -22.693  0.00  0.00    -0.291 OA
ATOM     23  C   UNL     1      34.988 -18.940 -21.527  0.00  0.00    +0.173 C 
BRANCH  23  25
ATOM     24  F   UNL     1      34.153 -22.998 -17.730  0.00  0.00    -0.204 F 
ATOM     25  C   UNL     1      34.767 -20.016 -20.519  0.00  0.00    +0.035 C 
ATOM     26  C   UNL     1      33.469 -20.399 -20.182  0.00  0.00    +0.005 C 
ATOM     27  C   UNL     1      35.857 -20.641 -19.914  0.00  0.00    +0.005 C 
ATOM     28  C   UNL     1      33.261 -21.406 -19.239  0.00  0.00    +0.030 C 
ATOM     29  C   UNL     1      35.650 -21.648 -18.972  0.00  0.00    +0.030 C 
ATOM     30  C   UNL     1      34.352 -22.031 -18.635  0.00  0.00    +0.140 C 
ENDBRANCH  23  25
ENDBRANCH  21  23
ENDBRANCH  20  21
ENDBRANCH  19  20
ENDBRANCH   2  19
TORSDOF 5
ENDMDL
MODEL 2
REMARK VINA RESULT:     -10.4      3.170      6.061
REMARK  Name = 21302490
REMARK  5 active torsions:
REMARK  status: ('A' for Active; 'I' for Inactive)
REMARK    1  A    between atoms: N_2  and  C_19
REMARK    2  A    between atoms: C_19  and  C_20
REMARK    3  A    between atoms: C_20  and  C_21
REMARK    4  A    between atoms: C_21  and  C_23
REMARK    5  A    between atoms: C_23  and  C_25
REMARK                            x       y       z     vdW  Elec       q    Type
REMARK                         _______ _______ _______ _____ _____    ______ ____
ROOT
ATOM      1  N   UNL     1      32.121  -5.855 -22.868  0.00  0.00    -0.307 N 
ATOM      2  N   UNL     1      32.729  -9.514 -21.943  0.00  0.00    +0.387 N 
ATOM      3  N   UNL     1      31.987  -3.856 -24.907  0.00  0.00    -0.303 N 
ATOM      4  C   UNL     1      32.776  -6.582 -21.773  0.00  0.00    +0.073 C 
ATOM      5  C   UNL     1      33.932  -7.394 -22.445  0.00  0.00    +0.021 C 
ATOM      6  C   UNL     1      31.815  -7.452 -20.970  0.00  0.00    -0.003 C 
ATOM      7  C   UNL     1      33.510  -8.784 -22.946  0.00  0.00    -0.071 C 
ATOM      8  C   UNL     1      34.235  -6.497 -23.611  0.00  0.00    -0.008 C 
ATOM      9  C   UNL     1      33.146  -5.645 -23.812  0.00  0.00    +0.057 C 
ATOM     10  C   UNL     1      31.490  -8.783 -21.642  0.00  0.00    -0.076 C 
ATOM     11  C   UNL     1      31.226  -4.728 -22.703  0.00  0.00    +0.112 C 
ATOM     12  C   UNL     1      33.096  -4.689 -24.824  0.00  0.00    +0.061 C 
ATOM     13  C   UNL     1      30.815  -4.198 -24.086  0.00  0.00    +0.112 C 
ATOM     14  C   UNL     1      35.334  -6.442 -24.442  0.00  0.00    -0.003 C 
ATOM     15  C   UNL     1      34.220  -4.634 -25.658  0.00  0.00    +0.016 C 
ATOM     16  C   UNL     1      35.320  -5.499 -25.472  0.00  0.00    +0.001 C 
ATOM     17  C   UNL     1      31.820  -2.933 -26.016  0.00  0.00    +0.112 C 
ATOM     18  H   UNL     1      33.281  -9.596 -21.089  0.00  0.00    -0.080 HD
ENDROOT
BRANCH   2  19
ATOM     19  C   UNL     1      32.418 -10.861 -22.424  0.00  0.00    -0.077 C 
BRANCH  19  20
ATOM     20  C   UNL     1      33.230 -11.175 -23.682  0.00  0.00    -0.015 C 
BRANCH  20  21
ATOM     21  C   UNL     1      34.255 -12.290 -23.450  0.00  0.00    +0.067 C 
BRANCH  21  23
ATOM     22  O   UNL     1      32.818 -13.898 -24.533  0.00  0.00    -0.291 OA
ATOM     23  C   UNL     1      33.699 -13.683 -23.704  0.00  0.00    +0.173 C 
BRANCH  23  25
ATOM     24  F   UNL     1      35.829 -17.995 -20.795  0.00  0.00    -0.204 F 
ATOM     25  C   UNL     1      34.263 -14.828 -22.932  0.00  0.00    +0.035 C 
ATOM     26  C   UNL     1      34.708 -15.968 -23.601  0.00  0.00    +0.005 C 
ATOM     27  C   UNL     1      34.348 -14.758 -21.541  0.00  0.00    +0.005 C 
ATOM     28  C   UNL     1      35.237 -17.038 -22.879  0.00  0.00    +0.030 C 
ATOM     29  C   UNL     1      34.876 -15.827 -20.819  0.00  0.00    +0.030 C 
ATOM     30  C   UNL     1      35.321 -16.967 -21.488  0.00  0.00    +0.140 C 
ENDBRANCH  23  25
ENDBRANCH  21  23
ENDBRANCH  20  21
ENDBRANCH  19  20
ENDBRANCH   2  19
TORSDOF 5
ENDMDL
MODEL 3
REMARK VINA RESULT:     -10.3      2.539      3.297
REMARK  Name = 21302490
REMARK  5 active torsions:
REMARK  status: ('A' for Active; 'I' for Inactive)
REMARK    1  A    between atoms: N_2  and  C_19
REMARK    2  A    between atoms: C_19  and  C_20
REMARK    3  A    between atoms: C_20  and  C_21
REMARK    4  A    between atoms: C_21  and  C_23
REMARK    5  A    between atoms: C_23  and  C_25
REMARK                            x       y       z     vdW  Elec       q    Type
REMARK                         _______ _______ _______ _____ _____    ______ ____
ROOT
ATOM      1  N   UNL     1      32.225 -10.079 -22.511  0.00  0.00    -0.307 N 
ATOM      2  N   UNL     1      31.866 -13.256 -20.413  0.00  0.00    +0.387 N 
ATOM      3  N   UNL     1      33.548  -7.578 -22.923  0.00  0.00    -0.303 N 
ATOM      4  C   UNL     1      31.121 -10.928 -22.043  0.00  0.00    +0.073 C 
ATOM      5  C   UNL     1      31.179 -10.864 -20.481  0.00  0.00    +0.021 C 
ATOM      6  C   UNL     1      31.182 -12.349 -22.591  0.00  0.00    -0.003 C 
ATOM      7  C   UNL     1      32.094 -11.923 -19.846  0.00  0.00    -0.071 C 
ATOM      8  C   UNL     1      31.773  -9.496 -20.299  0.00  0.00    -0.008 C 
ATOM      9  C   UNL     1      32.373  -9.108 -21.501  0.00  0.00    +0.057 C 
ATOM     10  C   UNL     1      32.168 -13.247 -21.851  0.00  0.00    -0.076 C 
ATOM     11  C   UNL     1      32.367  -9.562 -23.856  0.00  0.00    +0.112 C 
ATOM     12  C   UNL     1      33.028  -7.891 -21.673  0.00  0.00    +0.061 C 
ATOM     13  C   UNL     1      33.607  -8.655 -23.924  0.00  0.00    +0.112 C 
ATOM     14  C   UNL     1      31.820  -8.676 -19.193  0.00  0.00    -0.003 C 
ATOM     15  C   UNL     1      33.062  -7.059 -20.546  0.00  0.00    +0.016 C 
ATOM     16  C   UNL     1      32.471  -7.447 -19.325  0.00  0.00    +0.001 C 
ATOM     17  C   UNL     1      34.352  -6.387 -23.129  0.00  0.00    +0.112 C 
ATOM     18  H   UNL     1      30.886 -13.507 -20.283  0.00  0.00    -0.080 HD
ENDROOT
BRANCH   2  19
ATOM     19  C   UNL     1      32.694 -14.248 -19.727  0.00  0.00    -0.077 C 
BRANCH  19  20
ATOM     20  C   UNL     1      34.147 -14.141 -20.195  0.00  0.00    -0.015 C 
BRANCH  20  21
ATOM     21  C   UNL     1      34.724 -15.496 -20.616  0.00  0.00    +0.067 C 
BRANCH  21  23
ATOM     22  O   UNL     1      35.172 -14.638 -22.827  0.00  0.00    -0.291 OA
ATOM     23  C   UNL     1      34.951 -15.616 -22.116  0.00  0.00    +0.173 C 
BRANCH  23  25
ATOM     24  F   UNL     1      34.851 -20.728 -24.448  0.00  0.00    -0.204 F 
ATOM     25  C   UNL     1      34.926 -16.972 -22.735  0.00  0.00    +0.035 C 
ATOM     26  C   UNL     1      35.349 -18.081 -22.003  0.00  0.00    +0.005 C 
ATOM     27  C   UNL     1      34.477 -17.132 -24.046  0.00  0.00    +0.005 C 
ATOM     28  C   UNL     1      35.324 -19.350 -22.581  0.00  0.00    +0.030 C 
ATOM     29  C   UNL     1      34.452 -18.401 -24.625  0.00  0.00    +0.030 C 
ATOM     30  C   UNL     1      34.875 -19.510 -23.893  0.00  0.00    +0.140 C 
ENDBRANCH  23  25
ENDBRANCH  21  23
ENDBRANCH  20  21
ENDBRANCH  19  20
ENDBRANCH   2  19
TORSDOF 5
ENDMDL
MODEL 4
REMARK VINA RESULT:     -10.0      5.532     10.612
REMARK  Name = 21302490
REMARK  5 active torsions:
REMARK  status: ('A' for Active; 'I' for Inactive)
REMARK    1  A    between atoms: N_2  and  C_19
REMARK    2  A    between atoms: C_19  and  C_20
REMARK    3  A    between atoms: C_20  and  C_21
REMARK    4  A    between atoms: C_21  and  C_23
REMARK    5  A    between atoms: C_23  and  C_25
REMARK                            x       y       z     vdW  Elec       q    Type
REMARK                         _______ _______ _______ _____ _____    ______ ____
ROOT
ATOM      1  N   UNL     1      32.249 -12.111 -20.663  0.00  0.00    -0.307 N 
ATOM      2  N   UNL     1      32.034  -8.320 -20.223  0.00  0.00    +0.387 N 
ATOM      3  N   UNL     1      33.764 -14.372 -21.539  0.00  0.00    -0.303 N 
ATOM      4  C   UNL     1      31.214 -11.080 -20.806  0.00  0.00    +0.073 C 
ATOM      5  C   UNL     1      31.738 -10.116 -21.921  0.00  0.00    +0.021 C 
ATOM      6  C   UNL     1      30.889 -10.368 -19.497  0.00  0.00    -0.003 C 
ATOM      7  C   UNL     1      32.624  -8.975 -21.395  0.00  0.00    -0.071 C 
ATOM      8  C   UNL     1      32.564 -11.076 -22.727  0.00  0.00    -0.008 C 
ATOM      9  C   UNL     1      32.837 -12.199 -21.940  0.00  0.00    +0.057 C 
ATOM     10  C   UNL     1      31.897  -9.286 -19.124  0.00  0.00    -0.076 C 
ATOM     11  C   UNL     1      32.068 -13.389 -20.005  0.00  0.00    +0.112 C 
ATOM     12  C   UNL     1      33.593 -13.282 -22.383  0.00  0.00    +0.061 C 
ATOM     13  C   UNL     1      33.358 -14.216 -20.134  0.00  0.00    +0.112 C 
ATOM     14  C   UNL     1      33.062 -10.979 -24.009  0.00  0.00    -0.003 C 
ATOM     15  C   UNL     1      34.087 -13.178 -23.691  0.00  0.00    +0.016 C 
ATOM     16  C   UNL     1      33.828 -12.043 -24.489  0.00  0.00    +0.001 C 
ATOM     17  C   UNL     1      34.647 -15.469 -21.895  0.00  0.00    +0.112 C 
ATOM     18  H   UNL     1      31.109  -7.968 -20.471  0.00  0.00    -0.080 HD
ENDROOT
BRANCH   2  19
ATOM     19  C   UNL     1      32.863  -7.188 -19.803  0.00  0.00    -0.077 C 
BRANCH  19  20
ATOM     20  C   UNL     1      32.521  -5.947 -20.629  0.00  0.00    -0.015 C 
BRANCH  20  21
ATOM     21  C   UNL     1      31.059  -5.935 -21.085  0.00  0.00    +0.067 C 
BRANCH  21  23
ATOM     22  O   UNL     1      30.001  -4.190 -22.373  0.00  0.00    -0.291 OA
ATOM     23  C   UNL     1      30.824  -5.101 -22.336  0.00  0.00    +0.173 C 
BRANCH  23  25
ATOM     24  F   UNL     1      33.895  -6.191 -26.915  0.00  0.00    -0.204 F 
ATOM     25  C   UNL     1      31.640  -5.391 -23.551  0.00  0.00    +0.035 C 
ATOM     26  C   UNL     1      31.668  -6.681 -24.081  0.00  0.00    +0.005 C 
ATOM     27  C   UNL     1      32.373  -4.372 -24.158  0.00  0.00    +0.005 C 
ATOM     28  C   UNL     1      32.430  -6.952 -25.217  0.00  0.00    +0.030 C 
ATOM     29  C   UNL     1      33.135  -4.642 -25.294  0.00  0.00    +0.030 C 
ATOM     30  C   UNL     1      33.163  -5.931 -25.824  0.00  0.00    +0.140 C 
ENDBRANCH  23  25
ENDBRANCH  21  23
ENDBRANCH  20  21
ENDBRANCH  19  20
ENDBRANCH   2  19
TORSDOF 5
ENDMDL
MODEL 5
REMARK VINA RESULT:      -9.9      4.472      7.213
REMARK  Name = 21302490
REMARK  5 active torsions:
REMARK  status: ('A' for Active; 'I' for Inactive)
REMARK    1  A    between atoms: N_2  and  C_19
REMARK    2  A    between atoms: C_19  and  C_20
REMARK    3  A    between atoms: C_20  and  C_21
REMARK    4  A    between atoms: C_21  and  C_23
REMARK    5  A    between atoms: C_23  and  C_25
REMARK                            x       y       z     vdW  Elec       q    Type
REMARK                         _______ _______ _______ _____ _____    ______ ____
ROOT
ATOM      1  N   UNL     1      32.072  -5.970 -24.076  0.00  0.00    -0.307 N 
ATOM      2  N   UNL     1      31.749  -8.113 -20.927  0.00  0.00    +0.387 N 
ATOM      3  N   UNL     1      33.022  -3.561 -25.287  0.00  0.00    -0.303 N 
ATOM      4  C   UNL     1      31.044  -6.828 -23.473  0.00  0.00    +0.073 C 
ATOM      5  C   UNL     1      30.713  -6.173 -22.092  0.00  0.00    +0.021 C 
ATOM      6  C   UNL     1      31.470  -8.288 -23.361  0.00  0.00    -0.003 C 
ATOM      7  C   UNL     1      31.610  -6.654 -20.940  0.00  0.00    -0.071 C 
ATOM      8  C   UNL     1      31.010  -4.735 -22.409  0.00  0.00    -0.008 C 
ATOM      9  C   UNL     1      31.809  -4.688 -23.555  0.00  0.00    +0.057 C 
ATOM     10  C   UNL     1      32.383  -8.568 -22.171  0.00  0.00    -0.076 C 
ATOM     11  C   UNL     1      32.447  -5.976 -25.476  0.00  0.00    +0.112 C 
ATOM     12  C   UNL     1      32.275  -3.502 -24.117  0.00  0.00    +0.061 C 
ATOM     13  C   UNL     1      33.498  -4.882 -25.725  0.00  0.00    +0.112 C 
ATOM     14  C   UNL     1      30.652  -3.576 -21.753  0.00  0.00    -0.003 C 
ATOM     15  C   UNL     1      31.899  -2.329 -23.450  0.00  0.00    +0.016 C 
ATOM     16  C   UNL     1      31.103  -2.366 -22.284  0.00  0.00    +0.001 C 
ATOM     17  C   UNL     1      33.643  -2.373 -25.845  0.00  0.00    +0.112 C 
ATOM     18  H   UNL     1      30.822  -8.533 -20.856  0.00  0.00    -0.080 HD
ENDROOT
BRANCH   2  19
ATOM     19  C   UNL     1      32.540  -8.537 -19.770  0.00  0.00    -0.077 C 
BRANCH  19  20
ATOM     20  C   UNL     1      31.673  -9.350 -18.806  0.00  0.00    -0.015 C 
BRANCH  20  21
ATOM     21  C   UNL     1      31.932 -10.855 -18.919  0.00  0.00    +0.067 C 
BRANCH  21  23
ATOM     22  O   UNL     1      30.381 -11.113 -20.750  0.00  0.00    -0.291 OA
ATOM     23  C   UNL     1      31.439 -11.455 -20.228  0.00  0.00    +0.173 C 
BRANCH  23  25
ATOM     24  F   UNL     1      34.632 -15.307 -22.787  0.00  0.00    -0.204 F 
ATOM     25  C   UNL     1      32.285 -12.478 -20.907  0.00  0.00    +0.035 C 
ATOM     26  C   UNL     1      32.370 -12.500 -22.299  0.00  0.00    +0.005 C 
ATOM     27  C   UNL     1      32.993 -13.411 -20.150  0.00  0.00    +0.005 C 
ATOM     28  C   UNL     1      33.163 -13.456 -22.934  0.00  0.00    +0.030 C 
ATOM     29  C   UNL     1      33.786 -14.368 -20.785  0.00  0.00    +0.030 C 
ATOM     30  C   UNL     1      33.871 -14.389 -22.177  0.00  0.00    +0.140 C 
ENDBRANCH  23  25
ENDBRANCH  21  23
ENDBRANCH  20  21
ENDBRANCH  19  20
ENDBRANCH   2  19
TORSDOF 5
ENDMDL
MODEL 6
REMARK VINA RESULT:      -9.8      3.864      6.900
REMARK  Name = 21302490
REMARK  5 active torsions:
REMARK  status: ('A' for Active; 'I' for Inactive)
REMARK    1  A    between atoms: N_2  and  C_19
REMARK    2  A    between atoms: C_19  and  C_20
REMARK    3  A    between atoms: C_20  and  C_21
REMARK    4  A    between atoms: C_21  and  C_23
REMARK    5  A    between atoms: C_23  and  C_25
REMARK                            x       y       z     vdW  Elec       q    Type
REMARK                         _______ _______ _______ _____ _____    ______ ____
ROOT
ATOM      1  N   UNL     1      32.084  -5.324 -23.228  0.00  0.00    -0.307 N 
ATOM      2  N   UNL     1      32.810  -8.891 -22.061  0.00  0.00    +0.387 N 
ATOM      3  N   UNL     1      31.824  -3.486 -25.403  0.00  0.00    -0.303 N 
ATOM      4  C   UNL     1      32.798  -5.954 -22.111  0.00  0.00    +0.073 C 
ATOM      5  C   UNL     1      33.945  -6.791 -22.767  0.00  0.00    +0.021 C 
ATOM      6  C   UNL     1      31.890  -6.780 -21.206  0.00  0.00    -0.003 C 
ATOM      7  C   UNL     1      33.534  -8.223 -23.147  0.00  0.00    -0.071 C 
ATOM      8  C   UNL     1      34.181  -5.979 -24.008  0.00  0.00    -0.008 C 
ATOM      9  C   UNL     1      33.066  -5.165 -24.227  0.00  0.00    +0.057 C 
ATOM     10  C   UNL     1      31.569  -8.163 -21.764  0.00  0.00    -0.076 C 
ATOM     11  C   UNL     1      31.172  -4.205 -23.111  0.00  0.00    +0.112 C 
ATOM     12  C   UNL     1      32.954  -4.289 -25.304  0.00  0.00    +0.061 C 
ATOM     13  C   UNL     1      30.694  -3.788 -24.511  0.00  0.00    +0.112 C 
ATOM     14  C   UNL     1      35.244  -5.965 -24.886  0.00  0.00    -0.003 C 
ATOM     15  C   UNL     1      34.043  -4.275 -26.186  0.00  0.00    +0.016 C 
ATOM     16  C   UNL     1      35.169  -5.102 -25.981  0.00  0.00    +0.001 C 
ATOM     17  C   UNL     1      31.593  -2.652 -26.569  0.00  0.00    +0.112 C 
ATOM     18  H   UNL     1      33.397  -8.898 -21.226  0.00  0.00    -0.080 HD
ENDROOT
BRANCH   2  19
ATOM     19  C   UNL     1      32.511 -10.276 -22.427  0.00  0.00    -0.077 C 
BRANCH  19  20
ATOM     20  C   UNL     1      31.102 -10.653 -21.965  0.00  0.00    -0.015 C 
BRANCH  20  21
ATOM     21  C   UNL     1      31.018 -12.103 -21.478  0.00  0.00    +0.067 C 
BRANCH  21  23
ATOM     22  O   UNL     1      32.358 -12.004 -19.473  0.00  0.00    -0.291 OA
ATOM     23  C   UNL     1      32.179 -12.505 -20.580  0.00  0.00    +0.173 C 
BRANCH  23  25
ATOM     24  F   UNL     1      35.714 -16.488 -22.378  0.00  0.00    -0.204 F 
ATOM     25  C   UNL     1      33.116 -13.563 -21.057  0.00  0.00    +0.035 C 
ATOM     26  C   UNL     1      33.323 -13.746 -22.424  0.00  0.00    +0.005 C 
ATOM     27  C   UNL     1      33.787 -14.368 -20.137  0.00  0.00    +0.005 C 
ATOM     28  C   UNL     1      34.201 -14.734 -22.871  0.00  0.00    +0.030 C 
ATOM     29  C   UNL     1      34.664 -15.356 -20.582  0.00  0.00    +0.030 C 
ATOM     30  C   UNL     1      34.871 -15.539 -21.949  0.00  0.00    +0.140 C 
ENDBRANCH  23  25
ENDBRANCH  21  23
ENDBRANCH  20  21
ENDBRANCH  19  20
ENDBRANCH   2  19
TORSDOF 5
ENDMDL
MODEL 7
REMARK VINA RESULT:      -9.7      7.787     13.045
REMARK  Name = 21302490
REMARK  5 active torsions:
REMARK  status: ('A' for Active; 'I' for Inactive)
REMARK    1  A    between atoms: N_2  and  C_19
REMARK    2  A    between atoms: C_19  and  C_20
REMARK    3  A    between atoms: C_20  and  C_21
REMARK    4  A    between atoms: C_21  and  C_23
REMARK    5  A    between atoms: C_23  and  C_25
REMARK                            x       y       z     vdW  Elec       q    Type
REMARK                         _______ _______ _______ _____ _____    ______ ____
ROOT
ATOM      1  N   UNL     1      37.956 -23.717 -14.901  0.00  0.00    -0.307 N 
ATOM      2  N   UNL     1      34.398 -22.843 -15.994  0.00  0.00    +0.387 N 
ATOM      3  N   UNL     1      39.779 -25.687 -13.915  0.00  0.00    -0.303 N 
ATOM      4  C   UNL     1      37.051 -22.569 -14.762  0.00  0.00    +0.073 C 
ATOM      5  C   UNL     1      35.817 -23.105 -13.965  0.00  0.00    +0.021 C 
ATOM      6  C   UNL     1      36.678 -21.933 -16.096  0.00  0.00    -0.003 C 
ATOM      7  C   UNL     1      34.714 -23.705 -14.851  0.00  0.00    -0.071 C 
ATOM      8  C   UNL     1      36.477 -24.188 -13.162  0.00  0.00    -0.008 C 
ATOM      9  C   UNL     1      37.699 -24.506 -13.762  0.00  0.00    +0.057 C 
ATOM     10  C   UNL     1      35.584 -22.687 -16.847  0.00  0.00    -0.076 C 
ATOM     11  C   UNL     1      39.356 -23.636 -15.263  0.00  0.00    +0.112 C 
ATOM     12  C   UNL     1      38.564 -25.483 -13.273  0.00  0.00    +0.061 C 
ATOM     13  C   UNL     1      39.974 -25.044 -15.224  0.00  0.00    +0.112 C 
ATOM     14  C   UNL     1      36.051 -24.861 -12.036  0.00  0.00    -0.003 C 
ATOM     15  C   UNL     1      38.127 -26.155 -12.124  0.00  0.00    +0.016 C 
ATOM     16  C   UNL     1      36.889 -25.851 -11.517  0.00  0.00    +0.001 C 
ATOM     17  C   UNL     1      40.659 -26.776 -13.532  0.00  0.00    +0.112 C 
ATOM     18  H   UNL     1      34.118 -21.925 -15.648  0.00  0.00    -0.080 HD
ENDROOT
BRANCH   2  19
ATOM     19  C   UNL     1      33.289 -23.406 -16.765  0.00  0.00    -0.077 C 
BRANCH  19  20
ATOM     20  C   UNL     1      32.715 -22.353 -17.714  0.00  0.00    -0.015 C 
BRANCH  20  21
ATOM     21  C   UNL     1      33.500 -22.262 -19.026  0.00  0.00    +0.067 C 
BRANCH  21  23
ATOM     22  O   UNL     1      32.312 -20.323 -19.833  0.00  0.00    -0.291 OA
ATOM     23  C   UNL     1      33.386 -20.905 -19.705  0.00  0.00    +0.173 C 
BRANCH  23  25
ATOM     24  F   UNL     1      38.069 -18.453 -21.613  0.00  0.00    -0.204 F 
ATOM     25  C   UNL     1      34.629 -20.253 -20.210  0.00  0.00    +0.035 C 
ATOM     26  C   UNL     1      35.858 -20.541 -19.617  0.00  0.00    +0.005 C 
ATOM     27  C   UNL     1      34.562 -19.358 -21.277  0.00  0.00    +0.005 C 
ATOM     28  C   UNL     1      37.020 -19.933 -20.091  0.00  0.00    +0.030 C 
ATOM     29  C   UNL     1      35.724 -18.749 -21.751  0.00  0.00    +0.030 C 
ATOM     30  C   UNL     1      36.953 -19.037 -21.158  0.00  0.00    +0.140 C 
ENDBRANCH  23  25
ENDBRANCH  21  23
ENDBRANCH  20  21
ENDBRANCH  19  20
ENDBRANCH   2  19
TORSDOF 5
ENDMDL
MODEL 8
REMARK VINA RESULT:      -9.7      5.625     12.216
REMARK  Name = 21302490
REMARK  5 active torsions:
REMARK  status: ('A' for Active; 'I' for Inactive)
REMARK    1  A    between atoms: N_2  and  C_19
REMARK    2  A    between atoms: C_19  and  C_20
REMARK    3  A    between atoms: C_20  and  C_21
REMARK    4  A    between atoms: C_21  and  C_23
REMARK    5  A    between atoms: C_23  and  C_25
REMARK                            x       y       z     vdW  Elec       q    Type
REMARK                         _______ _______ _______ _____ _____    ______ ____
ROOT
ATOM      1  N   UNL     1      36.953 -23.281 -15.388  0.00  0.00    -0.307 N 
ATOM      2  N   UNL     1      35.293 -21.455 -18.308  0.00  0.00    +0.387 N 
ATOM      3  N   UNL     1      37.107 -25.630 -13.765  0.00  0.00    -0.303 N 
ATOM      4  C   UNL     1      36.532 -21.905 -15.683  0.00  0.00    +0.073 C 
ATOM      5  C   UNL     1      34.984 -21.979 -15.895  0.00  0.00    +0.021 C 
ATOM      6  C   UNL     1      37.274 -21.290 -16.864  0.00  0.00    -0.003 C 
ATOM      7  C   UNL     1      34.565 -22.283 -17.342  0.00  0.00    -0.071 C 
ATOM      8  C   UNL     1      34.657 -23.148 -15.009  0.00  0.00    -0.008 C 
ATOM      9  C   UNL     1      35.831 -23.866 -14.767  0.00  0.00    +0.057 C 
ATOM     10  C   UNL     1      36.733 -21.732 -18.221  0.00  0.00    -0.076 C 
ATOM     11  C   UNL     1      38.221 -23.657 -14.797  0.00  0.00    +0.112 C 
ATOM     12  C   UNL     1      35.879 -25.019 -13.986  0.00  0.00    +0.061 C 
ATOM     13  C   UNL     1      38.248 -25.178 -14.576  0.00  0.00    +0.112 C 
ATOM     14  C   UNL     1      33.453 -23.571 -14.487  0.00  0.00    -0.003 C 
ATOM     15  C   UNL     1      34.653 -25.436 -13.451  0.00  0.00    +0.016 C 
ATOM     16  C   UNL     1      33.459 -24.726 -13.701  0.00  0.00    +0.001 C 
ATOM     17  C   UNL     1      37.201 -26.902 -13.072  0.00  0.00    +0.112 C 
ATOM     18  H   UNL     1      35.132 -20.472 -18.089  0.00  0.00    -0.080 HD
ENDROOT
BRANCH   2  19
ATOM     19  C   UNL     1      34.808 -21.713 -19.665  0.00  0.00    -0.077 C 
BRANCH  19  20
ATOM     20  C   UNL     1      34.119 -20.468 -20.227  0.00  0.00    -0.015 C 
BRANCH  20  21
ATOM     21  C   UNL     1      34.886 -19.861 -21.405  0.00  0.00    +0.067 C 
BRANCH  21  23
ATOM     22  O   UNL     1      36.661 -18.683 -20.270  0.00  0.00    -0.291 OA
ATOM     23  C   UNL     1      35.695 -18.628 -21.028  0.00  0.00    +0.173 C 
BRANCH  23  25
ATOM     24  F   UNL     1      34.242 -13.678 -23.257  0.00  0.00    -0.204 F 
ATOM     25  C   UNL     1      35.311 -17.314 -21.619  0.00  0.00    +0.035 C 
ATOM     26  C   UNL     1      35.266 -17.160 -23.005  0.00  0.00    +0.005 C 
ATOM     27  C   UNL     1      34.994 -16.240 -20.787  0.00  0.00    +0.005 C 
ATOM     28  C   UNL     1      34.905 -15.931 -23.558  0.00  0.00    +0.030 C 
ATOM     29  C   UNL     1      34.634 -15.012 -21.340  0.00  0.00    +0.030 C 
ATOM     30  C   UNL     1      34.589 -14.857 -22.725  0.00  0.00    +0.140 C 
ENDBRANCH  23  25
ENDBRANCH  21  23
ENDBRANCH  20  21
ENDBRANCH  19  20
ENDBRANCH   2  19
TORSDOF 5
ENDMDL
MODEL 9
REMARK VINA RESULT:      -9.6      7.923     13.114
REMARK  Name = 21302490
REMARK  5 active torsions:
REMARK  status: ('A' for Active; 'I' for Inactive)
REMARK    1  A    between atoms: N_2  and  C_19
REMARK    2  A    between atoms: C_19  and  C_20
REMARK    3  A    between atoms: C_20  and  C_21
REMARK    4  A    between atoms: C_21  and  C_23
REMARK    5  A    between atoms: C_23  and  C_25
REMARK                            x       y       z     vdW  Elec       q    Type
REMARK                         _______ _______ _______ _____ _____    ______ ____
ROOT
ATOM      1  N   UNL     1      35.049 -23.944 -12.690  0.00  0.00    -0.307 N 
ATOM      2  N   UNL     1      32.685 -23.601 -15.676  0.00  0.00    +0.387 N 
ATOM      3  N   UNL     1      37.732 -23.913 -11.701  0.00  0.00    -0.303 N 
ATOM      4  C   UNL     1      33.822 -24.600 -13.158  0.00  0.00    +0.073 C 
ATOM      5  C   UNL     1      34.188 -25.230 -14.542  0.00  0.00    +0.021 C 
ATOM      6  C   UNL     1      32.623 -23.660 -13.220  0.00  0.00    -0.003 C 
ATOM      7  C   UNL     1      33.983 -24.281 -15.734  0.00  0.00    -0.071 C 
ATOM      8  C   UNL     1      35.653 -25.483 -14.333  0.00  0.00    -0.008 C 
ATOM      9  C   UNL     1      36.092 -24.700 -13.261  0.00  0.00    +0.057 C 
ATOM     10  C   UNL     1      32.607 -22.775 -14.463  0.00  0.00    -0.076 C 
ATOM     11  C   UNL     1      35.301 -23.519 -11.328  0.00  0.00    +0.112 C 
ATOM     12  C   UNL     1      37.409 -24.689 -12.807  0.00  0.00    +0.061 C 
ATOM     13  C   UNL     1      36.726 -22.949 -11.229  0.00  0.00    +0.112 C 
ATOM     14  C   UNL     1      36.535 -26.288 -15.023  0.00  0.00    -0.003 C 
ATOM     15  C   UNL     1      38.296 -25.517 -13.508  0.00  0.00    +0.016 C 
ATOM     16  C   UNL     1      37.866 -26.301 -14.600  0.00  0.00    +0.001 C 
ATOM     17  C   UNL     1      39.108 -23.759 -11.264  0.00  0.00    +0.112 C 
ATOM     18  H   UNL     1      31.945 -24.302 -15.646  0.00  0.00    -0.080 HD
ENDROOT
BRANCH   2  19
ATOM     19  C   UNL     1      32.493 -22.772 -16.867  0.00  0.00    -0.077 C 
BRANCH  19  20
ATOM     20  C   UNL     1      33.826 -22.563 -17.588  0.00  0.00    -0.015 C 
BRANCH  20  21
ATOM     21  C   UNL     1      33.655 -22.450 -19.106  0.00  0.00    +0.067 C 
BRANCH  21  23
ATOM     22  O   UNL     1      32.438 -20.411 -19.535  0.00  0.00    -0.291 OA
ATOM     23  C   UNL     1      33.506 -21.016 -19.591  0.00  0.00    +0.173 C 
BRANCH  23  25
ATOM     24  F   UNL     1      38.035 -18.388 -21.633  0.00  0.00    -0.204 F 
ATOM     25  C   UNL     1      34.708 -20.317 -20.132  0.00  0.00    +0.035 C 
ATOM     26  C   UNL     1      35.967 -20.575 -19.589  0.00  0.00    +0.005 C 
ATOM     27  C   UNL     1      34.573 -19.409 -21.182  0.00  0.00    +0.005 C 
ATOM     28  C   UNL     1      37.091 -19.923 -20.096  0.00  0.00    +0.030 C 
ATOM     29  C   UNL     1      35.697 -18.757 -21.689  0.00  0.00    +0.030 C 
ATOM     30  C   UNL     1      36.956 -19.014 -21.146  0.00  0.00    +0.140 C 
ENDBRANCH  23  25
ENDBRANCH  21  23
ENDBRANCH  20  21
ENDBRANCH  19  20
ENDBRANCH   2  19
TORSDOF 5
ENDMDL
