MODEL 1
REMARK VINA RESULT:     -10.9      0.000      0.000
REMARK  Name = 9908900
REMARK  8 active torsions:
REMARK  status: ('A' for Active; 'I' for Inactive)
REMARK    1  A    between atoms: N_2  and  C_6
REMARK    2  A    between atoms: N_2  and  C_14
REMARK    3  A    between atoms: N_3  and  C_17
REMARK    4  A    between atoms: C_7  and  O_12
REMARK    5  A    between atoms: C_17  and  C_18
REMARK    6  A    between atoms: C_18  and  C_19
REMARK    7  A    between atoms: C_19  and  O_20
REMARK    8  A    between atoms: O_20  and  C_23
REMARK                            x       y       z     vdW  Elec       q    Type
REMARK                         _______ _______ _______ _____ _____    ______ ____
ROOT
ATOM      1  O   UNL     1      37.762 -22.518 -15.485  0.00  0.00    -0.253 OA
ATOM      2  N   UNL     1      35.713 -23.313 -14.698  0.00  0.00    -0.265 N 
ATOM      3  N   UNL     1      35.895 -22.292 -16.816  0.00  0.00    -0.289 N 
ATOM      4  C   UNL     1      36.551 -22.692 -15.656  0.00  0.00    +0.304 C 
ATOM      5  H   UNL     1      34.929 -22.457 -16.896  0.00  0.00    +0.151 HD
ENDROOT
BRANCH   2   6
ATOM      6  C   UNL     1      36.139 -24.344 -13.777  0.00  0.00    +0.103 C 
ATOM      7  C   UNL     1      36.774 -25.519 -14.532  0.00  0.00    +0.129 C 
ATOM      8  C   UNL     1      37.102 -23.750 -12.745  0.00  0.00    +0.022 C 
ATOM      9  C   UNL     1      37.335 -26.569 -13.571  0.00  0.00    +0.031 C 
ATOM     10  C   UNL     1      37.646 -24.812 -11.796  0.00  0.00    +0.002 C 
ATOM     11  C   UNL     1      38.298 -25.961 -12.559  0.00  0.00    +0.003 C 
BRANCH   7  12
ATOM     12  O   UNL     1      35.778 -26.136 -15.348  0.00  0.00    -0.383 OA
ATOM     13  H   UNL     1      36.176 -26.417 -16.186  0.00  0.00    +0.210 HD
ENDBRANCH   7  12
ENDBRANCH   2   6
BRANCH   2  14
ATOM     14  C   UNL     1      34.312 -22.910 -14.643  0.00  0.00    +0.077 C 
ATOM     15  C   UNL     1      33.293 -23.741 -13.920  0.00  0.00    +0.022 C 
ATOM     16  C   UNL     1      33.262 -23.651 -15.418  0.00  0.00    +0.022 C 
ENDBRANCH   2  14
BRANCH   3  17
ATOM     17  C   UNL     1      36.586 -21.642 -17.907  0.00  0.00    +0.095 C 
BRANCH  17  18
ATOM     18  C   UNL     1      35.932 -21.913 -19.255  0.00  0.00    +0.069 C 
BRANCH  18  19
ATOM     19  C   UNL     1      35.041 -20.768 -19.721  0.00  0.00    +0.207 C 
BRANCH  19  20
ATOM     20  O   UNL     1      35.866 -19.693 -20.151  0.00  0.00    -0.475 OA
BRANCH  20  23
ATOM     21  O   UNL     1      33.732 -14.875 -25.678  0.00  0.00    -0.270 OA
ATOM     22  N   UNL     1      34.174 -16.884 -24.642  0.00  0.00    -0.280 N 
ATOM     23  C   UNL     1      35.451 -19.000 -21.258  0.00  0.00    +0.139 C 
ATOM     24  C   UNL     1      35.409 -17.604 -21.230  0.00  0.00    +0.038 C 
ATOM     25  C   UNL     1      34.984 -16.896 -22.358  0.00  0.00    +0.017 C 
ATOM     26  C   UNL     1      35.068 -19.692 -22.409  0.00  0.00    +0.038 C 
ATOM     27  C   UNL     1      34.603 -17.597 -23.508  0.00  0.00    +0.051 C 
ATOM     28  C   UNL     1      34.644 -18.992 -23.538  0.00  0.00    +0.018 C 
ATOM     29  C   UNL     1      34.926 -15.437 -22.368  0.00  0.00    +0.006 C 
ATOM     30  C   UNL     1      34.515 -14.778 -23.459  0.00  0.00    +0.058 C 
ATOM     31  C   UNL     1      34.106 -15.505 -24.691  0.00  0.00    +0.250 C 
ATOM     32  H   UNL     1      33.910 -17.393 -25.442  0.00  0.00    +0.155 HD
ENDBRANCH  20  23
ENDBRANCH  19  20
ENDBRANCH  18  19
ENDBRANCH  17  18
ENDBRANCH   3  17
TORSDOF 8
ENDMDL
MODEL 2
REMARK VINA RESULT:     -10.6      3.632     11.616
REMARK  Name = 9908900
REMARK  8 active torsions:
REMARK  status: ('A' for Active; 'I' for Inactive)
REMARK    1  A    between atoms: N_2  and  C_6
REMARK    2  A    between atoms: N_2  and  C_14
REMARK    3  A    between atoms: N_3  and  C_17
REMARK    4  A    between atoms: C_7  and  O_12
REMARK    5  A    between atoms: C_17  and  C_18
REMARK    6  A    between atoms: C_18  and  C_19
REMARK    7  A    between atoms: C_19  and  O_20
REMARK    8  A    between atoms: O_20  and  C_23
REMARK                            x       y       z     vdW  Elec       q    Type
REMARK                         _______ _______ _______ _____ _____    ______ ____
ROOT
ATOM      1  O   UNL     1      33.037 -13.598 -24.777  0.00  0.00    -0.253 OA
ATOM      2  N   UNL     1      33.024 -13.347 -22.456  0.00  0.00    -0.265 N 
ATOM      3  N   UNL     1      34.130 -15.160 -23.483  0.00  0.00    -0.289 N 
ATOM      4  C   UNL     1      33.372 -14.006 -23.660  0.00  0.00    +0.304 C 
ATOM      5  H   UNL     1      34.366 -15.437 -22.569  0.00  0.00    +0.151 HD
ENDROOT
BRANCH   2   6
ATOM      6  C   UNL     1      32.845 -11.918 -22.323  0.00  0.00    +0.103 C 
ATOM      7  C   UNL     1      33.393 -11.184 -23.554  0.00  0.00    +0.129 C 
ATOM      8  C   UNL     1      31.366 -11.602 -22.090  0.00  0.00    +0.022 C 
ATOM      9  C   UNL     1      33.111  -9.682 -23.487  0.00  0.00    +0.031 C 
ATOM     10  C   UNL     1      31.107 -10.100 -22.022  0.00  0.00    +0.002 C 
ATOM     11  C   UNL     1      31.634  -9.387 -23.264  0.00  0.00    +0.003 C 
BRANCH   7  12
ATOM     12  O   UNL     1      34.805 -11.379 -23.617  0.00  0.00    -0.383 OA
ATOM     13  H   UNL     1      35.008 -12.319 -23.488  0.00  0.00    +0.210 HD
ENDBRANCH   7  12
ENDBRANCH   2   6
BRANCH   2  14
ATOM     14  C   UNL     1      32.856 -14.154 -21.252  0.00  0.00    +0.077 C 
ATOM     15  C   UNL     1      32.738 -13.515 -19.900  0.00  0.00    +0.022 C 
ATOM     16  C   UNL     1      33.968 -14.299 -20.255  0.00  0.00    +0.022 C 
ENDBRANCH   2  14
BRANCH   3  17
ATOM     17  C   UNL     1      34.580 -15.965 -24.596  0.00  0.00    +0.095 C 
BRANCH  17  18
ATOM     18  C   UNL     1      33.770 -17.245 -24.755  0.00  0.00    +0.069 C 
BRANCH  18  19
ATOM     19  C   UNL     1      34.355 -18.416 -23.975  0.00  0.00    +0.207 C 
BRANCH  19  20
ATOM     20  O   UNL     1      35.210 -17.908 -22.960  0.00  0.00    -0.475 OA
BRANCH  20  23
ATOM     21  O   UNL     1      35.480 -22.800 -17.103  0.00  0.00    -0.270 OA
ATOM     22  N   UNL     1      36.224 -21.240 -18.625  0.00  0.00    -0.280 N 
ATOM     23  C   UNL     1      35.460 -18.731 -21.893  0.00  0.00    +0.139 C 
ATOM     24  C   UNL     1      34.438 -19.533 -21.378  0.00  0.00    +0.038 C 
ATOM     25  C   UNL     1      34.691 -20.371 -20.288  0.00  0.00    +0.017 C 
ATOM     26  C   UNL     1      36.733 -18.763 -21.322  0.00  0.00    +0.038 C 
ATOM     27  C   UNL     1      35.971 -20.398 -19.723  0.00  0.00    +0.051 C 
ATOM     28  C   UNL     1      36.993 -19.597 -20.235  0.00  0.00    +0.018 C 
ATOM     29  C   UNL     1      33.649 -21.224 -19.722  0.00  0.00    +0.006 C 
ATOM     30  C   UNL     1      33.912 -22.019 -18.678  0.00  0.00    +0.058 C 
ATOM     31  C   UNL     1      35.266 -22.062 -18.061  0.00  0.00    +0.250 C 
ATOM     32  H   UNL     1      37.129 -21.246 -18.240  0.00  0.00    +0.155 HD
ENDBRANCH  20  23
ENDBRANCH  19  20
ENDBRANCH  18  19
ENDBRANCH  17  18
ENDBRANCH   3  17
TORSDOF 8
ENDMDL
MODEL 3
REMARK VINA RESULT:     -10.4      2.724      4.201
REMARK  Name = 9908900
REMARK  8 active torsions:
REMARK  status: ('A' for Active; 'I' for Inactive)
REMARK    1  A    between atoms: N_2  and  C_6
REMARK    2  A    between atoms: N_2  and  C_14
REMARK    3  A    between atoms: N_3  and  C_17
REMARK    4  A    between atoms: C_7  and  O_12
REMARK    5  A    between atoms: C_17  and  C_18
REMARK    6  A    between atoms: C_18  and  C_19
REMARK    7  A    between atoms: C_19  and  O_20
REMARK    8  A    between atoms: O_20  and  C_23
REMARK                            x       y       z     vdW  Elec       q    Type
REMARK                         _______ _______ _______ _____ _____    ______ ____
ROOT
ATOM      1  O   UNL     1      35.901 -23.065 -14.860  0.00  0.00    -0.253 OA
ATOM      2  N   UNL     1      35.760 -24.355 -12.920  0.00  0.00    -0.265 N 
ATOM      3  N   UNL     1      33.857 -23.292 -13.821  0.00  0.00    -0.289 N 
ATOM      4  C   UNL     1      35.223 -23.533 -13.939  0.00  0.00    +0.304 C 
ATOM      5  H   UNL     1      33.369 -23.691 -13.066  0.00  0.00    +0.151 HD
ENDROOT
BRANCH   2   6
ATOM      6  C   UNL     1      36.875 -25.261 -13.095  0.00  0.00    +0.103 C 
ATOM      7  C   UNL     1      36.832 -25.915 -14.483  0.00  0.00    +0.129 C 
ATOM      8  C   UNL     1      38.190 -24.512 -12.865  0.00  0.00    +0.022 C 
ATOM      9  C   UNL     1      38.063 -26.787 -14.734  0.00  0.00    +0.031 C 
ATOM     10  C   UNL     1      39.404 -25.400 -13.117  0.00  0.00    +0.002 C 
ATOM     11  C   UNL     1      39.361 -26.022 -14.509  0.00  0.00    +0.003 C 
BRANCH   7  12
ATOM     12  O   UNL     1      35.667 -26.735 -14.571  0.00  0.00    -0.383 OA
ATOM     13  H   UNL     1      34.922 -26.285 -14.144  0.00  0.00    +0.210 HD
ENDBRANCH   7  12
ENDBRANCH   2   6
BRANCH   2  14
ATOM     14  C   UNL     1      35.138 -24.315 -11.601  0.00  0.00    +0.077 C 
ATOM     15  C   UNL     1      35.737 -23.513 -10.484  0.00  0.00    +0.022 C 
ATOM     16  C   UNL     1      35.762 -25.012 -10.428  0.00  0.00    +0.022 C 
ENDBRANCH   2  14
BRANCH   3  17
ATOM     17  C   UNL     1      33.133 -22.476 -14.769  0.00  0.00    +0.095 C 
BRANCH  17  18
ATOM     18  C   UNL     1      32.261 -23.303 -15.703  0.00  0.00    +0.069 C 
BRANCH  18  19
ATOM     19  C   UNL     1      33.002 -23.762 -16.953  0.00  0.00    +0.207 C 
BRANCH  19  20
ATOM     20  O   UNL     1      32.737 -22.845 -18.005  0.00  0.00    -0.475 OA
BRANCH  20  23
ATOM     21  O   UNL     1      37.907 -18.365 -21.398  0.00  0.00    -0.270 OA
ATOM     22  N   UNL     1      37.067 -19.954 -19.958  0.00  0.00    -0.280 N 
ATOM     23  C   UNL     1      33.803 -22.130 -18.486  0.00  0.00    +0.139 C 
ATOM     24  C   UNL     1      33.611 -21.190 -19.501  0.00  0.00    +0.038 C 
ATOM     25  C   UNL     1      34.698 -20.463 -19.993  0.00  0.00    +0.017 C 
ATOM     26  C   UNL     1      35.079 -22.347 -17.961  0.00  0.00    +0.038 C 
ATOM     27  C   UNL     1      35.973 -20.685 -19.461  0.00  0.00    +0.051 C 
ATOM     28  C   UNL     1      36.168 -21.625 -18.447  0.00  0.00    +0.018 C 
ATOM     29  C   UNL     1      34.538 -19.471 -21.053  0.00  0.00    +0.006 C 
ATOM     30  C   UNL     1      35.592 -18.785 -21.511  0.00  0.00    +0.058 C 
ATOM     31  C   UNL     1      36.956 -19.008 -20.959  0.00  0.00    +0.250 C 
ATOM     32  H   UNL     1      37.956 -20.124 -19.572  0.00  0.00    +0.155 HD
ENDBRANCH  20  23
ENDBRANCH  19  20
ENDBRANCH  18  19
ENDBRANCH  17  18
ENDBRANCH   3  17
TORSDOF 8
ENDMDL
MODEL 4
REMARK VINA RESULT:     -10.3      6.509     14.492
REMARK  Name = 9908900
REMARK  8 active torsions:
REMARK  status: ('A' for Active; 'I' for Inactive)
REMARK    1  A    between atoms: N_2  and  C_6
REMARK    2  A    between atoms: N_2  and  C_14
REMARK    3  A    between atoms: N_3  and  C_17
REMARK    4  A    between atoms: C_7  and  O_12
REMARK    5  A    between atoms: C_17  and  C_18
REMARK    6  A    between atoms: C_18  and  C_19
REMARK    7  A    between atoms: C_19  and  O_20
REMARK    8  A    between atoms: O_20  and  C_23
REMARK                            x       y       z     vdW  Elec       q    Type
REMARK                         _______ _______ _______ _____ _____    ______ ____
ROOT
ATOM      1  O   UNL     1      31.544  -8.683 -20.658  0.00  0.00    -0.253 OA
ATOM      2  N   UNL     1      32.996  -7.877 -22.299  0.00  0.00    -0.265 N 
ATOM      3  N   UNL     1      32.531 -10.181 -22.103  0.00  0.00    -0.289 N 
ATOM      4  C   UNL     1      32.298  -8.900 -21.612  0.00  0.00    +0.304 C 
ATOM      5  H   UNL     1      33.143 -10.294 -22.865  0.00  0.00    +0.151 HD
ENDROOT
BRANCH   2   6
ATOM      6  C   UNL     1      32.512  -6.525 -22.471  0.00  0.00    +0.103 C 
ATOM      7  C   UNL     1      31.113  -6.523 -23.100  0.00  0.00    +0.129 C 
ATOM      8  C   UNL     1      32.527  -5.795 -21.126  0.00  0.00    +0.022 C 
ATOM      9  C   UNL     1      30.534  -5.110 -23.186  0.00  0.00    +0.031 C 
ATOM     10  C   UNL     1      31.951  -4.387 -21.235  0.00  0.00    +0.002 C 
ATOM     11  C   UNL     1      30.549  -4.403 -21.837  0.00  0.00    +0.003 C 
BRANCH   7  12
ATOM     12  O   UNL     1      31.198  -7.061 -24.419  0.00  0.00    -0.383 OA
ATOM     13  H   UNL     1      31.739  -7.865 -24.407  0.00  0.00    +0.210 HD
ENDBRANCH   7  12
ENDBRANCH   2   6
BRANCH   2  14
ATOM     14  C   UNL     1      34.283  -8.205 -22.901  0.00  0.00    +0.077 C 
ATOM     15  C   UNL     1      35.424  -7.232 -22.872  0.00  0.00    +0.022 C 
ATOM     16  C   UNL     1      34.737  -7.542 -24.169  0.00  0.00    +0.022 C 
ENDBRANCH   2  14
BRANCH   3  17
ATOM     17  C   UNL     1      31.906 -11.352 -21.530  0.00  0.00    +0.095 C 
BRANCH  17  18
ATOM     18  C   UNL     1      31.889 -12.533 -22.491  0.00  0.00    +0.069 C 
BRANCH  18  19
ATOM     19  C   UNL     1      33.057 -12.515 -23.470  0.00  0.00    +0.207 C 
BRANCH  19  20
ATOM     20  O   UNL     1      34.265 -12.691 -22.743  0.00  0.00    -0.475 OA
BRANCH  20  23
ATOM     21  O   UNL     1      35.598 -19.985 -20.915  0.00  0.00    -0.270 OA
ATOM     22  N   UNL     1      35.189 -17.740 -20.603  0.00  0.00    -0.280 N 
ATOM     23  C   UNL     1      34.495 -13.936 -22.217  0.00  0.00    +0.139 C 
ATOM     24  C   UNL     1      34.694 -15.026 -23.067  0.00  0.00    +0.038 C 
ATOM     25  C   UNL     1      34.926 -16.295 -22.532  0.00  0.00    +0.017 C 
ATOM     26  C   UNL     1      34.526 -14.110 -20.832  0.00  0.00    +0.038 C 
ATOM     27  C   UNL     1      34.957 -16.461 -21.142  0.00  0.00    +0.051 C 
ATOM     28  C   UNL     1      34.758 -15.373 -20.290  0.00  0.00    +0.018 C 
ATOM     29  C   UNL     1      35.138 -17.460 -23.387  0.00  0.00    +0.006 C 
ATOM     30  C   UNL     1      35.359 -18.668 -22.854  0.00  0.00    +0.058 C 
ATOM     31  C   UNL     1      35.395 -18.865 -21.379  0.00  0.00    +0.250 C 
ATOM     32  H   UNL     1      35.207 -17.838 -19.624  0.00  0.00    +0.155 HD
ENDBRANCH  20  23
ENDBRANCH  19  20
ENDBRANCH  18  19
ENDBRANCH  17  18
ENDBRANCH   3  17
TORSDOF 8
ENDMDL
MODEL 5
REMARK VINA RESULT:     -10.2      6.589     14.829
REMARK  Name = 9908900
REMARK  8 active torsions:
REMARK  status: ('A' for Active; 'I' for Inactive)
REMARK    1  A    between atoms: N_2  and  C_6
REMARK    2  A    between atoms: N_2  and  C_14
REMARK    3  A    between atoms: N_3  and  C_17
REMARK    4  A    between atoms: C_7  and  O_12
REMARK    5  A    between atoms: C_17  and  C_18
REMARK    6  A    between atoms: C_18  and  C_19
REMARK    7  A    between atoms: C_19  and  O_20
REMARK    8  A    between atoms: O_20  and  C_23
REMARK                            x       y       z     vdW  Elec       q    Type
REMARK                         _______ _______ _______ _____ _____    ______ ____
ROOT
ATOM      1  O   UNL     1      31.804  -8.882 -24.193  0.00  0.00    -0.253 OA
ATOM      2  N   UNL     1      32.027  -7.087 -22.717  0.00  0.00    -0.265 N 
ATOM      3  N   UNL     1      31.295  -9.200 -21.968  0.00  0.00    -0.289 N 
ATOM      4  C   UNL     1      31.714  -8.428 -23.047  0.00  0.00    +0.304 C 
ATOM      5  H   UNL     1      31.243  -8.784 -21.079  0.00  0.00    +0.151 HD
ENDROOT
BRANCH   2   6
ATOM      6  C   UNL     1      33.028  -6.287 -23.387  0.00  0.00    +0.103 C 
ATOM      7  C   UNL     1      34.368  -7.032 -23.450  0.00  0.00    +0.129 C 
ATOM      8  C   UNL     1      32.532  -5.899 -24.783  0.00  0.00    +0.022 C 
ATOM      9  C   UNL     1      35.410  -6.254 -24.255  0.00  0.00    +0.031 C 
ATOM     10  C   UNL     1      33.584  -5.121 -25.566  0.00  0.00    +0.002 C 
ATOM     11  C   UNL     1      34.902  -5.886 -25.643  0.00  0.00    +0.003 C 
BRANCH   7  12
ATOM     12  O   UNL     1      34.860  -7.211 -22.123  0.00  0.00    -0.383 OA
ATOM     13  H   UNL     1      34.876  -6.356 -21.665  0.00  0.00    +0.210 HD
ENDBRANCH   7  12
ENDBRANCH   2   6
BRANCH   2  14
ATOM     14  C   UNL     1      31.312  -6.465 -21.608  0.00  0.00    +0.077 C 
ATOM     15  C   UNL     1      30.473  -5.239 -21.815  0.00  0.00    +0.022 C 
ATOM     16  C   UNL     1      31.756  -5.148 -21.041  0.00  0.00    +0.022 C 
ENDBRANCH   2  14
BRANCH   3  17
ATOM     17  C   UNL     1      30.934 -10.593 -22.111  0.00  0.00    +0.095 C 
BRANCH  17  18
ATOM     18  C   UNL     1      32.056 -11.531 -21.688  0.00  0.00    +0.069 C 
BRANCH  18  19
ATOM     19  C   UNL     1      32.640 -12.319 -22.855  0.00  0.00    +0.207 C 
BRANCH  19  20
ATOM     20  O   UNL     1      34.012 -12.579 -22.590  0.00  0.00    -0.475 OA
BRANCH  20  23
ATOM     21  O   UNL     1      35.793 -19.829 -20.979  0.00  0.00    -0.270 OA
ATOM     22  N   UNL     1      35.265 -17.619 -20.601  0.00  0.00    -0.280 N 
ATOM     23  C   UNL     1      34.322 -13.821 -22.101  0.00  0.00    +0.139 C 
ATOM     24  C   UNL     1      34.564 -14.877 -22.983  0.00  0.00    +0.038 C 
ATOM     25  C   UNL     1      34.878 -16.144 -22.485  0.00  0.00    +0.017 C 
ATOM     26  C   UNL     1      34.394 -14.028 -20.721  0.00  0.00    +0.038 C 
ATOM     27  C   UNL     1      34.949 -16.343 -21.101  0.00  0.00    +0.051 C 
ATOM     28  C   UNL     1      34.708 -15.289 -20.218  0.00  0.00    +0.018 C 
ATOM     29  C   UNL     1      35.137 -17.273 -23.375  0.00  0.00    +0.006 C 
ATOM     30  C   UNL     1      35.437 -18.480 -22.877  0.00  0.00    +0.058 C 
ATOM     31  C   UNL     1      35.516 -18.711 -21.410  0.00  0.00    +0.250 C 
ATOM     32  H   UNL     1      35.310 -17.740 -19.625  0.00  0.00    +0.155 HD
ENDBRANCH  20  23
ENDBRANCH  19  20
ENDBRANCH  18  19
ENDBRANCH  17  18
ENDBRANCH   3  17
TORSDOF 8
ENDMDL
MODEL 6
REMARK VINA RESULT:     -10.2      2.669      4.250
REMARK  Name = 9908900
REMARK  8 active torsions:
REMARK  status: ('A' for Active; 'I' for Inactive)
REMARK    1  A    between atoms: N_2  and  C_6
REMARK    2  A    between atoms: N_2  and  C_14
REMARK    3  A    between atoms: N_3  and  C_17
REMARK    4  A    between atoms: C_7  and  O_12
REMARK    5  A    between atoms: C_17  and  C_18
REMARK    6  A    between atoms: C_18  and  C_19
REMARK    7  A    between atoms: C_19  and  O_20
REMARK    8  A    between atoms: O_20  and  C_23
REMARK                            x       y       z     vdW  Elec       q    Type
REMARK                         _______ _______ _______ _____ _____    ______ ____
ROOT
ATOM      1  O   UNL     1      33.955 -24.917 -13.982  0.00  0.00    -0.253 OA
ATOM      2  N   UNL     1      35.880 -23.705 -14.503  0.00  0.00    -0.265 N 
ATOM      3  N   UNL     1      33.733 -22.785 -14.825  0.00  0.00    -0.289 N 
ATOM      4  C   UNL     1      34.479 -23.882 -14.405  0.00  0.00    +0.304 C 
ATOM      5  H   UNL     1      34.206 -21.987 -15.153  0.00  0.00    +0.151 HD
ENDROOT
BRANCH   2   6
ATOM      6  C   UNL     1      36.850 -24.312 -13.617  0.00  0.00    +0.103 C 
ATOM      7  C   UNL     1      36.428 -24.143 -12.151  0.00  0.00    +0.129 C 
ATOM      8  C   UNL     1      37.036 -25.786 -13.985  0.00  0.00    +0.022 C 
ATOM      9  C   UNL     1      37.379 -24.876 -11.203  0.00  0.00    +0.031 C 
ATOM     10  C   UNL     1      37.990 -26.496 -13.030  0.00  0.00    +0.002 C 
ATOM     11  C   UNL     1      37.544 -26.342 -11.579  0.00  0.00    +0.003 C 
BRANCH   7  12
ATOM     12  O   UNL     1      36.440 -22.754 -11.824  0.00  0.00    -0.383 OA
ATOM     13  H   UNL     1      37.271 -22.534 -11.374  0.00  0.00    +0.210 HD
ENDBRANCH   7  12
ENDBRANCH   2   6
BRANCH   2  14
ATOM     14  C   UNL     1      36.394 -22.832 -15.553  0.00  0.00    +0.077 C 
ATOM     15  C   UNL     1      37.861 -22.761 -15.855  0.00  0.00    +0.022 C 
ATOM     16  C   UNL     1      37.169 -21.591 -15.219  0.00  0.00    +0.022 C 
ENDBRANCH   2  14
BRANCH   3  17
ATOM     17  C   UNL     1      32.288 -22.779 -14.797  0.00  0.00    +0.095 C 
BRANCH  17  18
ATOM     18  C   UNL     1      31.677 -23.040 -16.167  0.00  0.00    +0.069 C 
BRANCH  18  19
ATOM     19  C   UNL     1      32.724 -23.330 -17.236  0.00  0.00    +0.207 C 
BRANCH  19  20
ATOM     20  O   UNL     1      32.566 -22.397 -18.296  0.00  0.00    -0.475 OA
BRANCH  20  23
ATOM     21  O   UNL     1      38.191 -18.396 -21.563  0.00  0.00    -0.270 OA
ATOM     22  N   UNL     1      37.186 -19.952 -20.194  0.00  0.00    -0.280 N 
ATOM     23  C   UNL     1      33.704 -21.793 -18.763  0.00  0.00    +0.139 C 
ATOM     24  C   UNL     1      33.612 -20.777 -19.718  0.00  0.00    +0.038 C 
ATOM     25  C   UNL     1      34.772 -20.162 -20.197  0.00  0.00    +0.017 C 
ATOM     26  C   UNL     1      34.952 -22.196 -18.285  0.00  0.00    +0.038 C 
ATOM     27  C   UNL     1      36.019 -20.571 -19.711  0.00  0.00    +0.051 C 
ATOM     28  C   UNL     1      36.113 -21.586 -18.757  0.00  0.00    +0.018 C 
ATOM     29  C   UNL     1      34.717 -19.097 -21.195  0.00  0.00    +0.006 C 
ATOM     30  C   UNL     1      35.840 -18.520 -21.640  0.00  0.00    +0.058 C 
ATOM     31  C   UNL     1      37.175 -18.942 -21.137  0.00  0.00    +0.250 C 
ATOM     32  H   UNL     1      38.054 -20.253 -19.841  0.00  0.00    +0.155 HD
ENDBRANCH  20  23
ENDBRANCH  19  20
ENDBRANCH  18  19
ENDBRANCH  17  18
ENDBRANCH   3  17
TORSDOF 8
ENDMDL
MODEL 7
REMARK VINA RESULT:     -10.1      3.299     11.635
REMARK  Name = 9908900
REMARK  8 active torsions:
REMARK  status: ('A' for Active; 'I' for Inactive)
REMARK    1  A    between atoms: N_2  and  C_6
REMARK    2  A    between atoms: N_2  and  C_14
REMARK    3  A    between atoms: N_3  and  C_17
REMARK    4  A    between atoms: C_7  and  O_12
REMARK    5  A    between atoms: C_17  and  C_18
REMARK    6  A    between atoms: C_18  and  C_19
REMARK    7  A    between atoms: C_19  and  O_20
REMARK    8  A    between atoms: O_20  and  C_23
REMARK                            x       y       z     vdW  Elec       q    Type
REMARK                         _______ _______ _______ _____ _____    ______ ____
ROOT
ATOM      1  O   UNL     1      33.053 -14.507 -24.461  0.00  0.00    -0.253 OA
ATOM      2  N   UNL     1      33.481 -13.230 -22.555  0.00  0.00    -0.265 N 
ATOM      3  N   UNL     1      34.822 -15.090 -23.106  0.00  0.00    -0.289 N 
ATOM      4  C   UNL     1      33.734 -14.295 -23.452  0.00  0.00    +0.304 C 
ATOM      5  H   UNL     1      35.328 -14.873 -22.290  0.00  0.00    +0.151 HD
ENDROOT
BRANCH   2   6
ATOM      6  C   UNL     1      32.916 -11.953 -22.932  0.00  0.00    +0.103 C 
ATOM      7  C   UNL     1      32.036 -11.393 -21.806  0.00  0.00    +0.129 C 
ATOM      8  C   UNL     1      34.038 -10.981 -23.306  0.00  0.00    +0.022 C 
ATOM      9  C   UNL     1      31.522  -9.991 -22.136  0.00  0.00    +0.031 C 
ATOM     10  C   UNL     1      33.504  -9.592 -23.636  0.00  0.00    +0.002 C 
ATOM     11  C   UNL     1      32.653  -9.037 -22.497  0.00  0.00    +0.003 C 
BRANCH   7  12
ATOM     12  O   UNL     1      30.916 -12.258 -21.623  0.00  0.00    -0.383 OA
ATOM     13  H   UNL     1      30.567 -12.524 -22.487  0.00  0.00    +0.210 HD
ENDBRANCH   7  12
ENDBRANCH   2   6
BRANCH   2  14
ATOM     14  C   UNL     1      33.834 -13.413 -21.151  0.00  0.00    +0.077 C 
ATOM     15  C   UNL     1      34.307 -14.740 -20.636  0.00  0.00    +0.022 C 
ATOM     16  C   UNL     1      32.961 -14.214 -20.230  0.00  0.00    +0.022 C 
ENDBRANCH   2  14
BRANCH   3  17
ATOM     17  C   UNL     1      35.234 -16.224 -23.903  0.00  0.00    +0.095 C 
BRANCH  17  18
ATOM     18  C   UNL     1      34.831 -17.552 -23.277  0.00  0.00    +0.069 C 
BRANCH  18  19
ATOM     19  C   UNL     1      35.448 -17.769 -21.900  0.00  0.00    +0.207 C 
BRANCH  19  20
ATOM     20  O   UNL     1      35.771 -19.145 -21.755  0.00  0.00    -0.475 OA
BRANCH  20  23
ATOM     21  O   UNL     1      32.501 -23.535 -16.431  0.00  0.00    -0.270 OA
ATOM     22  N   UNL     1      32.651 -22.099 -18.225  0.00  0.00    -0.280 N 
ATOM     23  C   UNL     1      35.003 -19.872 -20.883  0.00  0.00    +0.139 C 
ATOM     24  C   UNL     1      35.614 -20.637 -19.888  0.00  0.00    +0.038 C 
ATOM     25  C   UNL     1      34.832 -21.380 -19.000  0.00  0.00    +0.017 C 
ATOM     26  C   UNL     1      33.611 -19.847 -20.996  0.00  0.00    +0.038 C 
ATOM     27  C   UNL     1      33.438 -21.349 -19.118  0.00  0.00    +0.051 C 
ATOM     28  C   UNL     1      32.824 -20.586 -20.113  0.00  0.00    +0.018 C 
ATOM     29  C   UNL     1      35.434 -22.192 -17.945  0.00  0.00    +0.006 C 
ATOM     30  C   UNL     1      34.666 -22.897 -17.104  0.00  0.00    +0.058 C 
ATOM     31  C   UNL     1      33.182 -22.878 -17.215  0.00  0.00    +0.250 C 
ATOM     32  H   UNL     1      31.672 -22.065 -18.323  0.00  0.00    +0.155 HD
ENDBRANCH  20  23
ENDBRANCH  19  20
ENDBRANCH  18  19
ENDBRANCH  17  18
ENDBRANCH   3  17
TORSDOF 8
ENDMDL
MODEL 8
REMARK VINA RESULT:     -10.0      2.657     11.772
REMARK  Name = 9908900
REMARK  8 active torsions:
REMARK  status: ('A' for Active; 'I' for Inactive)
REMARK    1  A    between atoms: N_2  and  C_6
REMARK    2  A    between atoms: N_2  and  C_14
REMARK    3  A    between atoms: N_3  and  C_17
REMARK    4  A    between atoms: C_7  and  O_12
REMARK    5  A    between atoms: C_17  and  C_18
REMARK    6  A    between atoms: C_18  and  C_19
REMARK    7  A    between atoms: C_19  and  O_20
REMARK    8  A    between atoms: O_20  and  C_23
REMARK                            x       y       z     vdW  Elec       q    Type
REMARK                         _______ _______ _______ _____ _____    ______ ____
ROOT
ATOM      1  O   UNL     1      34.762 -13.855 -21.032  0.00  0.00    -0.253 OA
ATOM      2  N   UNL     1      33.858 -13.940 -23.183  0.00  0.00    -0.265 N 
ATOM      3  N   UNL     1      34.682 -15.881 -22.125  0.00  0.00    -0.289 N 
ATOM      4  C   UNL     1      34.459 -14.510 -22.035  0.00  0.00    +0.304 C 
ATOM      5  H   UNL     1      34.420 -16.351 -22.949  0.00  0.00    +0.151 HD
ENDROOT
BRANCH   2   6
ATOM      6  C   UNL     1      32.966 -12.802 -23.166  0.00  0.00    +0.103 C 
ATOM      7  C   UNL     1      32.460 -12.529 -21.743  0.00  0.00    +0.129 C 
ATOM      8  C   UNL     1      33.674 -11.580 -23.757  0.00  0.00    +0.022 C 
ATOM      9  C   UNL     1      31.607 -11.260 -21.681  0.00  0.00    +0.031 C 
ATOM     10  C   UNL     1      32.806 -10.329 -23.690  0.00  0.00    +0.002 C 
ATOM     11  C   UNL     1      32.332 -10.055 -22.265  0.00  0.00    +0.003 C 
BRANCH   7  12
ATOM     12  O   UNL     1      31.664 -13.634 -21.316  0.00  0.00    -0.383 OA
ATOM     13  H   UNL     1      30.868 -13.306 -20.871  0.00  0.00    +0.210 HD
ENDBRANCH   7  12
ENDBRANCH   2   6
BRANCH   2  14
ATOM     14  C   UNL     1      34.131 -14.552 -24.480  0.00  0.00    +0.077 C 
ATOM     15  C   UNL     1      33.104 -14.545 -25.573  0.00  0.00    +0.022 C 
ATOM     16  C   UNL     1      33.463 -15.832 -24.889  0.00  0.00    +0.022 C 
ENDBRANCH   2  14
BRANCH   3  17
ATOM     17  C   UNL     1      35.285 -16.637 -21.051  0.00  0.00    +0.095 C 
BRANCH  17  18
ATOM     18  C   UNL     1      35.774 -18.005 -21.505  0.00  0.00    +0.069 C 
BRANCH  18  19
ATOM     19  C   UNL     1      34.909 -19.146 -20.984  0.00  0.00    +0.207 C 
BRANCH  19  20
ATOM     20  O   UNL     1      35.746 -20.253 -20.679  0.00  0.00    -0.475 OA
BRANCH  20  23
ATOM     21  O   UNL     1      34.985 -24.223 -14.200  0.00  0.00    -0.270 OA
ATOM     22  N   UNL     1      34.388 -23.272 -16.211  0.00  0.00    -0.280 N 
ATOM     23  C   UNL     1      35.412 -20.996 -19.576  0.00  0.00    +0.139 C 
ATOM     24  C   UNL     1      36.366 -21.240 -18.586  0.00  0.00    +0.038 C 
ATOM     25  C   UNL     1      36.027 -21.999 -17.462  0.00  0.00    +0.017 C 
ATOM     26  C   UNL     1      34.119 -21.508 -19.448  0.00  0.00    +0.038 C 
ATOM     27  C   UNL     1      34.728 -22.507 -17.341  0.00  0.00    +0.051 C 
ATOM     28  C   UNL     1      33.773 -22.265 -18.330  0.00  0.00    +0.018 C 
ATOM     29  C   UNL     1      36.996 -22.276 -16.406  0.00  0.00    +0.006 C 
ATOM     30  C   UNL     1      36.650 -23.006 -15.337  0.00  0.00    +0.058 C 
ATOM     31  C   UNL     1      35.276 -23.556 -15.190  0.00  0.00    +0.250 C 
ATOM     32  H   UNL     1      33.470 -23.622 -16.142  0.00  0.00    +0.155 HD
ENDBRANCH  20  23
ENDBRANCH  19  20
ENDBRANCH  18  19
ENDBRANCH  17  18
ENDBRANCH   3  17
TORSDOF 8
ENDMDL
MODEL 9
REMARK VINA RESULT:      -9.8      2.126      3.552
REMARK  Name = 9908900
REMARK  8 active torsions:
REMARK  status: ('A' for Active; 'I' for Inactive)
REMARK    1  A    between atoms: N_2  and  C_6
REMARK    2  A    between atoms: N_2  and  C_14
REMARK    3  A    between atoms: N_3  and  C_17
REMARK    4  A    between atoms: C_7  and  O_12
REMARK    5  A    between atoms: C_17  and  C_18
REMARK    6  A    between atoms: C_18  and  C_19
REMARK    7  A    between atoms: C_19  and  O_20
REMARK    8  A    between atoms: O_20  and  C_23
REMARK                            x       y       z     vdW  Elec       q    Type
REMARK                         _______ _______ _______ _____ _____    ______ ____
ROOT
ATOM      1  O   UNL     1      33.332 -24.126 -17.721  0.00  0.00    -0.253 OA
ATOM      2  N   UNL     1      33.831 -23.120 -15.674  0.00  0.00    -0.265 N 
ATOM      3  N   UNL     1      34.786 -22.339 -17.684  0.00  0.00    -0.289 N 
ATOM      4  C   UNL     1      33.938 -23.261 -17.079  0.00  0.00    +0.304 C 
ATOM      5  H   UNL     1      35.243 -21.674 -17.121  0.00  0.00    +0.151 HD
ENDROOT
BRANCH   2   6
ATOM      6  C   UNL     1      32.648 -23.436 -14.903  0.00  0.00    +0.103 C 
ATOM      7  C   UNL     1      31.442 -23.660 -15.825  0.00  0.00    +0.129 C 
ATOM      8  C   UNL     1      32.917 -24.656 -14.019  0.00  0.00    +0.022 C 
ATOM      9  C   UNL     1      30.207 -24.108 -15.040  0.00  0.00    +0.031 C 
ATOM     10  C   UNL     1      31.675 -25.082 -13.242  0.00  0.00    +0.002 C 
ATOM     11  C   UNL     1      30.492 -25.328 -14.173  0.00  0.00    +0.003 C 
BRANCH   7  12
ATOM     12  O   UNL     1      31.137 -22.437 -16.493  0.00  0.00    -0.383 OA
ATOM     13  H   UNL     1      30.176 -22.309 -16.513  0.00  0.00    +0.210 HD
ENDBRANCH   7  12
ENDBRANCH   2   6
BRANCH   2  14
ATOM     14  C   UNL     1      34.980 -22.597 -14.944  0.00  0.00    +0.077 C 
ATOM     15  C   UNL     1      36.317 -23.275 -15.011  0.00  0.00    +0.022 C 
ATOM     16  C   UNL     1      35.521 -23.309 -13.738  0.00  0.00    +0.022 C 
ENDBRANCH   2  14
BRANCH   3  17
ATOM     17  C   UNL     1      35.020 -22.327 -19.110  0.00  0.00    +0.095 C 
BRANCH  17  18
ATOM     18  C   UNL     1      35.910 -21.171 -19.544  0.00  0.00    +0.069 C 
BRANCH  18  19
ATOM     19  C   UNL     1      35.149 -20.089 -20.301  0.00  0.00    +0.207 C 
BRANCH  19  20
ATOM     20  O   UNL     1      36.034 -19.011 -20.573  0.00  0.00    -0.475 OA
BRANCH  20  23
ATOM     21  O   UNL     1      33.425 -12.861 -24.272  0.00  0.00    -0.270 OA
ATOM     22  N   UNL     1      34.154 -15.024 -23.962  0.00  0.00    -0.280 N 
ATOM     23  C   UNL     1      35.572 -18.027 -21.408  0.00  0.00    +0.139 C 
ATOM     24  C   UNL     1      35.279 -16.761 -20.896  0.00  0.00    +0.038 C 
ATOM     25  C   UNL     1      34.806 -15.758 -21.746  0.00  0.00    +0.017 C 
ATOM     26  C   UNL     1      35.394 -18.295 -22.767  0.00  0.00    +0.038 C 
ATOM     27  C   UNL     1      34.631 -16.034 -23.107  0.00  0.00    +0.051 C 
ATOM     28  C   UNL     1      34.923 -17.299 -23.620  0.00  0.00    +0.018 C 
ATOM     29  C   UNL     1      34.488 -14.421 -21.250  0.00  0.00    +0.006 C 
ATOM     30  C   UNL     1      34.036 -13.474 -22.081  0.00  0.00    +0.058 C 
ATOM     31  C   UNL     1      33.842 -13.748 -23.531  0.00  0.00    +0.250 C 
ATOM     32  H   UNL     1      34.037 -15.236 -24.916  0.00  0.00    +0.155 HD
ENDBRANCH  20  23
ENDBRANCH  19  20
ENDBRANCH  18  19
ENDBRANCH  17  18
ENDBRANCH   3  17
TORSDOF 8
ENDMDL
