MODEL 1
REMARK VINA RESULT:     -11.4      0.000      0.000
REMARK  Name = 24764434
REMARK  8 active torsions:
REMARK  status: ('A' for Active; 'I' for Inactive)
REMARK    1  A    between atoms: C_1  and  N_4
REMARK    2  A    between atoms: C_1  and  C_17
REMARK    3  A    between atoms: C_1  and  C_28
REMARK    4  A    between atoms: C_11  and  C_14
REMARK    5  A    between atoms: C_14  and  O_15
REMARK    6  A    between atoms: C_17  and  C_18
REMARK    7  A    between atoms: C_28  and  C_30
REMARK    8  A    between atoms: C_30  and  O_31
REMARK                            x       y       z     vdW  Elec       q    Type
REMARK                         _______ _______ _______ _____ _____    ______ ____
ROOT
ATOM      1  C   UNL     1      34.593 -23.300 -16.053  0.00  0.00    +0.098 C 
ENDROOT
BRANCH   1   4
ATOM      2  O   UNL     1      37.069 -21.875 -16.907  0.00  0.00    -0.269 OA
ATOM      3  O   UNL     1      32.683 -22.569 -18.224  0.00  0.00    -0.269 OA
ATOM      4  N   UNL     1      34.808 -22.461 -17.215  0.00  0.00    -0.224 N 
ATOM      5  C   UNL     1      36.010 -21.847 -17.503  0.00  0.00    +0.255 C 
ATOM      6  C   UNL     1      33.837 -22.191 -18.155  0.00  0.00    +0.255 C 
ATOM      7  C   UNL     1      35.784 -21.104 -18.742  0.00  0.00    +0.059 C 
ATOM      8  C   UNL     1      34.471 -21.311 -19.136  0.00  0.00    +0.058 C 
ATOM      9  C   UNL     1      36.649 -20.311 -19.470  0.00  0.00    +0.011 C 
ATOM     10  C   UNL     1      33.952 -20.738 -20.280  0.00  0.00    +0.005 C 
ATOM     11  C   UNL     1      36.145 -19.719 -20.632  0.00  0.00    +0.076 C 
ATOM     12  C   UNL     1      34.809 -19.931 -21.032  0.00  0.00    +0.007 C 
BRANCH  11  14
ATOM     13  O   UNL     1      38.211 -18.676 -21.236  0.00  0.00    -0.245 OA
ATOM     14  C   UNL     1      37.009 -18.874 -21.441  0.00  0.00    +0.338 C 
BRANCH  14  15
ATOM     15  O   UNL     1      36.348 -18.303 -22.485  0.00  0.00    -0.477 OA
ATOM     16  H   UNL     1      35.779 -18.820 -23.019  0.00  0.00    +0.295 HD
ENDBRANCH  14  15
ENDBRANCH  11  14
ENDBRANCH   1   4
BRANCH   1  17
ATOM     17  C   UNL     1      33.567 -22.660 -15.091  0.00  0.00    +0.047 C 
BRANCH  17  18
ATOM     18  C   UNL     1      32.529 -23.598 -14.521  0.00  0.00    -0.020 C 
ATOM     19  C   UNL     1      31.196 -23.589 -14.963  0.00  0.00    -0.004 C 
ATOM     20  C   UNL     1      32.945 -24.486 -13.528  0.00  0.00    -0.004 C 
ATOM     21  C   UNL     1      30.271 -24.493 -14.389  0.00  0.00    -0.000 C 
ATOM     22  C   UNL     1      30.761 -22.702 -15.961  0.00  0.00    -0.000 C 
ATOM     23  C   UNL     1      32.036 -25.375 -12.964  0.00  0.00    -0.000 C 
ATOM     24  C   UNL     1      30.707 -25.380 -13.390  0.00  0.00    -0.000 C 
ATOM     25  C   UNL     1      28.938 -24.485 -14.829  0.00  0.00    -0.000 C 
ATOM     26  C   UNL     1      29.432 -22.707 -16.387  0.00  0.00    -0.000 C 
ATOM     27  C   UNL     1      28.523 -23.597 -15.822  0.00  0.00    -0.000 C 
ENDBRANCH  17  18
ENDBRANCH   1  17
BRANCH   1  28
ATOM     28  C   UNL     1      35.938 -23.661 -15.407  0.00  0.00    +0.130 C 
BRANCH  28  30
ATOM     29  O   UNL     1      35.664 -26.079 -15.386  0.00  0.00    -0.250 OA
ATOM     30  C   UNL     1      35.961 -25.047 -14.801  0.00  0.00    +0.316 C 
BRANCH  30  31
ATOM     31  O   UNL     1      36.395 -25.025 -13.514  0.00  0.00    -0.480 OA
ATOM     32  H   UNL     1      36.898 -25.740 -13.177  0.00  0.00    +0.295 HD
ENDBRANCH  30  31
ENDBRANCH  28  30
ENDBRANCH   1  28
TORSDOF 8
ENDMDL
MODEL 2
REMARK VINA RESULT:     -10.9      0.662      1.882
REMARK  Name = 24764434
REMARK  8 active torsions:
REMARK  status: ('A' for Active; 'I' for Inactive)
REMARK    1  A    between atoms: C_1  and  N_4
REMARK    2  A    between atoms: C_1  and  C_17
REMARK    3  A    between atoms: C_1  and  C_28
REMARK    4  A    between atoms: C_11  and  C_14
REMARK    5  A    between atoms: C_14  and  O_15
REMARK    6  A    between atoms: C_17  and  C_18
REMARK    7  A    between atoms: C_28  and  C_30
REMARK    8  A    between atoms: C_30  and  O_31
REMARK                            x       y       z     vdW  Elec       q    Type
REMARK                         _______ _______ _______ _____ _____    ______ ____
ROOT
ATOM      1  C   UNL     1      34.522 -23.429 -15.848  0.00  0.00    +0.098 C 
ENDROOT
BRANCH   1   4
ATOM      2  O   UNL     1      32.875 -22.614 -18.197  0.00  0.00    -0.269 OA
ATOM      3  O   UNL     1      37.112 -22.060 -16.409  0.00  0.00    -0.269 OA
ATOM      4  N   UNL     1      34.889 -22.594 -16.974  0.00  0.00    -0.224 N 
ATOM      5  C   UNL     1      34.032 -22.288 -18.012  0.00  0.00    +0.255 C 
ATOM      6  C   UNL     1      36.131 -22.016 -17.126  0.00  0.00    +0.255 C 
ATOM      7  C   UNL     1      34.802 -21.441 -18.922  0.00  0.00    +0.059 C 
ATOM      8  C   UNL     1      36.071 -21.276 -18.387  0.00  0.00    +0.058 C 
ATOM      9  C   UNL     1      34.432 -20.859 -20.117  0.00  0.00    +0.011 C 
ATOM     10  C   UNL     1      37.037 -20.519 -19.018  0.00  0.00    +0.005 C 
ATOM     11  C   UNL     1      35.395 -20.088 -20.775  0.00  0.00    +0.076 C 
ATOM     12  C   UNL     1      36.685 -19.921 -20.231  0.00  0.00    +0.007 C 
BRANCH  11  14
ATOM     13  O   UNL     1      34.011 -19.609 -22.668  0.00  0.00    -0.245 OA
ATOM     14  C   UNL     1      35.063 -19.449 -22.039  0.00  0.00    +0.338 C 
BRANCH  14  15
ATOM     15  O   UNL     1      36.053 -18.627 -22.482  0.00  0.00    -0.477 OA
ATOM     16  H   UNL     1      36.668 -18.265 -21.875  0.00  0.00    +0.295 HD
ENDBRANCH  14  15
ENDBRANCH  11  14
ENDBRANCH   1   4
BRANCH   1  17
ATOM     17  C   UNL     1      33.441 -22.747 -14.981  0.00  0.00    +0.047 C 
BRANCH  17  18
ATOM     18  C   UNL     1      32.353 -23.654 -14.457  0.00  0.00    -0.020 C 
ATOM     19  C   UNL     1      31.044 -23.617 -14.965  0.00  0.00    -0.004 C 
ATOM     20  C   UNL     1      32.696 -24.542 -13.437  0.00  0.00    -0.004 C 
ATOM     21  C   UNL     1      30.069 -24.493 -14.432  0.00  0.00    -0.000 C 
ATOM     22  C   UNL     1      30.682 -22.729 -15.992  0.00  0.00    -0.000 C 
ATOM     23  C   UNL     1      31.737 -25.404 -12.912  0.00  0.00    -0.000 C 
ATOM     24  C   UNL     1      30.432 -25.381 -13.405  0.00  0.00    -0.000 C 
ATOM     25  C   UNL     1      28.761 -24.456 -14.939  0.00  0.00    -0.000 C 
ATOM     26  C   UNL     1      29.377 -22.706 -16.485  0.00  0.00    -0.000 C 
ATOM     27  C   UNL     1      28.418 -23.568 -15.960  0.00  0.00    -0.000 C 
ENDBRANCH  17  18
ENDBRANCH   1  17
BRANCH   1  28
ATOM     28  C   UNL     1      35.780 -23.860 -15.081  0.00  0.00    +0.130 C 
BRANCH  28  30
ATOM     29  O   UNL     1      35.746 -26.255 -15.511  0.00  0.00    -0.250 OA
ATOM     30  C   UNL     1      35.787 -25.328 -14.715  0.00  0.00    +0.316 C 
BRANCH  30  31
ATOM     31  O   UNL     1      35.885 -25.510 -13.372  0.00  0.00    -0.480 OA
ATOM     32  H   UNL     1      36.193 -26.327 -13.032  0.00  0.00    +0.295 HD
ENDBRANCH  30  31
ENDBRANCH  28  30
ENDBRANCH   1  28
TORSDOF 8
ENDMDL
MODEL 3
REMARK VINA RESULT:     -10.9      3.358      7.270
REMARK  Name = 24764434
REMARK  8 active torsions:
REMARK  status: ('A' for Active; 'I' for Inactive)
REMARK    1  A    between atoms: C_1  and  N_4
REMARK    2  A    between atoms: C_1  and  C_17
REMARK    3  A    between atoms: C_1  and  C_28
REMARK    4  A    between atoms: C_11  and  C_14
REMARK    5  A    between atoms: C_14  and  O_15
REMARK    6  A    between atoms: C_17  and  C_18
REMARK    7  A    between atoms: C_28  and  C_30
REMARK    8  A    between atoms: C_30  and  O_31
REMARK                            x       y       z     vdW  Elec       q    Type
REMARK                         _______ _______ _______ _____ _____    ______ ____
ROOT
ATOM      1  C   UNL     1      34.362 -23.831 -14.833  0.00  0.00    +0.098 C 
ENDROOT
BRANCH   1   4
ATOM      2  O   UNL     1      32.728 -23.463 -17.301  0.00  0.00    -0.269 OA
ATOM      3  O   UNL     1      32.326 -23.461 -12.686  0.00  0.00    -0.269 OA
ATOM      4  N   UNL     1      32.949 -23.538 -14.956  0.00  0.00    -0.224 N 
ATOM      5  C   UNL     1      32.301 -23.384 -16.165  0.00  0.00    +0.255 C 
ATOM      6  C   UNL     1      32.102 -23.382 -13.879  0.00  0.00    +0.255 C 
ATOM      7  C   UNL     1      30.907 -23.093 -15.830  0.00  0.00    +0.059 C 
ATOM      8  C   UNL     1      30.787 -23.092 -14.449  0.00  0.00    +0.058 C 
ATOM      9  C   UNL     1      29.830 -22.850 -16.658  0.00  0.00    +0.011 C 
ATOM     10  C   UNL     1      29.582 -22.849 -13.821  0.00  0.00    +0.005 C 
ATOM     11  C   UNL     1      28.599 -22.600 -16.044  0.00  0.00    +0.076 C 
ATOM     12  C   UNL     1      28.477 -22.599 -14.639  0.00  0.00    +0.007 C 
BRANCH  11  14
ATOM     13  O   UNL     1      26.793 -21.277 -16.888  0.00  0.00    -0.245 OA
ATOM     14  C   UNL     1      27.427 -22.337 -16.864  0.00  0.00    +0.338 C 
BRANCH  14  15
ATOM     15  O   UNL     1      27.080 -23.406 -17.633  0.00  0.00    -0.477 OA
ATOM     16  H   UNL     1      26.793 -23.276 -18.514  0.00  0.00    +0.295 HD
ENDBRANCH  14  15
ENDBRANCH  11  14
ENDBRANCH   1   4
BRANCH   1  17
ATOM     17  C   UNL     1      34.642 -24.697 -13.586  0.00  0.00    +0.047 C 
BRANCH  17  18
ATOM     18  C   UNL     1      35.939 -24.412 -12.867  0.00  0.00    -0.020 C 
ATOM     19  C   UNL     1      37.153 -24.999 -13.261  0.00  0.00    -0.004 C 
ATOM     20  C   UNL     1      35.891 -23.534 -11.784  0.00  0.00    -0.004 C 
ATOM     21  C   UNL     1      38.335 -24.692 -12.546  0.00  0.00    -0.000 C 
ATOM     22  C   UNL     1      37.219 -25.886 -14.349  0.00  0.00    -0.000 C 
ATOM     23  C   UNL     1      37.054 -23.231 -11.080  0.00  0.00    -0.000 C 
ATOM     24  C   UNL     1      38.268 -23.805 -11.458  0.00  0.00    -0.000 C 
ATOM     25  C   UNL     1      39.548 -25.278 -12.939  0.00  0.00    -0.000 C 
ATOM     26  C   UNL     1      38.434 -26.459 -14.726  0.00  0.00    -0.000 C 
ATOM     27  C   UNL     1      39.596 -26.156 -14.023  0.00  0.00    -0.000 C 
ENDBRANCH  17  18
ENDBRANCH   1  17
BRANCH   1  28
ATOM     28  C   UNL     1      35.178 -22.532 -14.907  0.00  0.00    +0.130 C 
BRANCH  28  30
ATOM     29  O   UNL     1      37.416 -22.582 -15.861  0.00  0.00    -0.250 OA
ATOM     30  C   UNL     1      36.205 -22.529 -16.018  0.00  0.00    +0.316 C 
BRANCH  30  31
ATOM     31  O   UNL     1      35.618 -22.500 -17.243  0.00  0.00    -0.480 OA
ATOM     32  H   UNL     1      36.143 -22.573 -18.015  0.00  0.00    +0.295 HD
ENDBRANCH  30  31
ENDBRANCH  28  30
ENDBRANCH   1  28
TORSDOF 8
ENDMDL
MODEL 4
REMARK VINA RESULT:     -10.8      8.251     12.699
REMARK  Name = 24764434
REMARK  8 active torsions:
REMARK  status: ('A' for Active; 'I' for Inactive)
REMARK    1  A    between atoms: C_1  and  N_4
REMARK    2  A    between atoms: C_1  and  C_17
REMARK    3  A    between atoms: C_1  and  C_28
REMARK    4  A    between atoms: C_11  and  C_14
REMARK    5  A    between atoms: C_14  and  O_15
REMARK    6  A    between atoms: C_17  and  C_18
REMARK    7  A    between atoms: C_28  and  C_30
REMARK    8  A    between atoms: C_30  and  O_31
REMARK                            x       y       z     vdW  Elec       q    Type
REMARK                         _______ _______ _______ _____ _____    ______ ____
ROOT
ATOM      1  C   UNL     1      33.706 -12.023 -22.624  0.00  0.00    +0.098 C 
ENDROOT
BRANCH   1   4
ATOM      2  O   UNL     1      34.682 -13.683 -20.347  0.00  0.00    -0.269 OA
ATOM      3  O   UNL     1      33.633 -14.009 -24.847  0.00  0.00    -0.269 OA
ATOM      4  N   UNL     1      34.062 -13.427 -22.606  0.00  0.00    -0.224 N 
ATOM      5  C   UNL     1      34.509 -14.089 -21.481  0.00  0.00    +0.255 C 
ATOM      6  C   UNL     1      33.991 -14.250 -23.710  0.00  0.00    +0.255 C 
ATOM      7  C   UNL     1      34.758 -15.465 -21.906  0.00  0.00    +0.059 C 
ATOM      8  C   UNL     1      34.444 -15.563 -23.253  0.00  0.00    +0.058 C 
ATOM      9  C   UNL     1      35.218 -16.547 -21.183  0.00  0.00    +0.011 C 
ATOM     10  C   UNL     1      34.573 -16.748 -23.949  0.00  0.00    +0.005 C 
ATOM     11  C   UNL     1      35.357 -17.758 -21.867  0.00  0.00    +0.076 C 
ATOM     12  C   UNL     1      35.038 -17.857 -23.237  0.00  0.00    +0.007 C 
BRANCH  11  14
ATOM     13  O   UNL     1      35.301 -20.048 -21.174  0.00  0.00    -0.245 OA
ATOM     14  C   UNL     1      35.836 -18.934 -21.157  0.00  0.00    +0.338 C 
BRANCH  14  15
ATOM     15  O   UNL     1      36.971 -18.686 -20.448  0.00  0.00    -0.477 OA
ATOM     16  H   UNL     1      37.054 -17.892 -19.960  0.00  0.00    +0.295 HD
ENDBRANCH  14  15
ENDBRANCH  11  14
ENDBRANCH   1   4
BRANCH   1  17
ATOM     17  C   UNL     1      32.235 -11.818 -22.200  0.00  0.00    +0.047 C 
BRANCH  17  18
ATOM     18  C   UNL     1      32.016 -10.913 -21.010  0.00  0.00    -0.020 C 
ATOM     19  C   UNL     1      31.792  -9.534 -21.156  0.00  0.00    -0.004 C 
ATOM     20  C   UNL     1      32.043 -11.501 -19.745  0.00  0.00    -0.004 C 
ATOM     21  C   UNL     1      31.593  -8.740 -20.002  0.00  0.00    -0.000 C 
ATOM     22  C   UNL     1      31.763  -8.926 -22.422  0.00  0.00    -0.000 C 
ATOM     23  C   UNL     1      31.847 -10.720 -18.610  0.00  0.00    -0.000 C 
ATOM     24  C   UNL     1      31.624  -9.348 -18.735  0.00  0.00    -0.000 C 
ATOM     25  C   UNL     1      31.370  -7.362 -20.146  0.00  0.00    -0.000 C 
ATOM     26  C   UNL     1      31.539  -7.555 -22.547  0.00  0.00    -0.000 C 
ATOM     27  C   UNL     1      31.343  -6.774 -21.411  0.00  0.00    -0.000 C 
ENDBRANCH  17  18
ENDBRANCH   1  17
BRANCH   1  28
ATOM     28  C   UNL     1      34.073 -11.404 -23.981  0.00  0.00    +0.130 C 
BRANCH  28  30
ATOM     29  O   UNL     1      34.598  -9.157 -23.207  0.00  0.00    -0.250 OA
ATOM     30  C   UNL     1      34.902 -10.144 -23.862  0.00  0.00    +0.316 C 
BRANCH  30  31
ATOM     31  O   UNL     1      36.070 -10.245 -24.549  0.00  0.00    -0.480 OA
ATOM     32  H   UNL     1      36.097 -10.029 -25.460  0.00  0.00    +0.295 HD
ENDBRANCH  30  31
ENDBRANCH  28  30
ENDBRANCH   1  28
TORSDOF 8
ENDMDL
MODEL 5
REMARK VINA RESULT:     -10.7      9.912     14.620
REMARK  Name = 24764434
REMARK  8 active torsions:
REMARK  status: ('A' for Active; 'I' for Inactive)
REMARK    1  A    between atoms: C_1  and  N_4
REMARK    2  A    between atoms: C_1  and  C_17
REMARK    3  A    between atoms: C_1  and  C_28
REMARK    4  A    between atoms: C_11  and  C_14
REMARK    5  A    between atoms: C_14  and  O_15
REMARK    6  A    between atoms: C_17  and  C_18
REMARK    7  A    between atoms: C_28  and  C_30
REMARK    8  A    between atoms: C_30  and  O_31
REMARK                            x       y       z     vdW  Elec       q    Type
REMARK                         _______ _______ _______ _____ _____    ______ ____
ROOT
ATOM      1  C   UNL     1      31.617 -10.322 -21.253  0.00  0.00    +0.098 C 
ENDROOT
BRANCH   1   4
ATOM      2  O   UNL     1      32.448 -12.601 -19.519  0.00  0.00    -0.269 OA
ATOM      3  O   UNL     1      32.693 -11.146 -23.910  0.00  0.00    -0.269 OA
ATOM      4  N   UNL     1      32.360 -11.515 -21.607  0.00  0.00    -0.224 N 
ATOM      5  C   UNL     1      32.691 -12.506 -20.707  0.00  0.00    +0.255 C 
ATOM      6  C   UNL     1      32.813 -11.784 -22.881  0.00  0.00    +0.255 C 
ATOM      7  C   UNL     1      33.436 -13.503 -21.475  0.00  0.00    +0.059 C 
ATOM      8  C   UNL     1      33.510 -13.067 -22.789  0.00  0.00    +0.058 C 
ATOM      9  C   UNL     1      34.004 -14.693 -21.066  0.00  0.00    +0.011 C 
ATOM     10  C   UNL     1      34.155 -13.799 -23.766  0.00  0.00    +0.005 C 
ATOM     11  C   UNL     1      34.663 -15.451 -22.039  0.00  0.00    +0.076 C 
ATOM     12  C   UNL     1      34.738 -15.007 -23.375  0.00  0.00    +0.007 C 
BRANCH  11  14
ATOM     13  O   UNL     1      35.326 -17.181 -20.525  0.00  0.00    -0.245 OA
ATOM     14  C   UNL     1      35.280 -16.715 -21.669  0.00  0.00    +0.338 C 
BRANCH  14  15
ATOM     15  O   UNL     1      35.821 -17.362 -22.737  0.00  0.00    -0.477 OA
ATOM     16  H   UNL     1      35.728 -17.005 -23.598  0.00  0.00    +0.295 HD
ENDBRANCH  14  15
ENDBRANCH  11  14
ENDBRANCH   1   4
BRANCH   1  17
ATOM     17  C   UNL     1      32.503  -9.063 -21.367  0.00  0.00    +0.047 C 
BRANCH  17  18
ATOM     18  C   UNL     1      32.236  -8.179 -22.563  0.00  0.00    -0.020 C 
ATOM     19  C   UNL     1      33.259  -7.456 -23.198  0.00  0.00    -0.004 C 
ATOM     20  C   UNL     1      30.920  -8.103 -23.021  0.00  0.00    -0.004 C 
ATOM     21  C   UNL     1      32.944  -6.645 -24.314  0.00  0.00    -0.000 C 
ATOM     22  C   UNL     1      34.589  -7.521 -22.749  0.00  0.00    -0.000 C 
ATOM     23  C   UNL     1      30.610  -7.305 -24.119  0.00  0.00    -0.000 C 
ATOM     24  C   UNL     1      31.614  -6.580 -24.762  0.00  0.00    -0.000 C 
ATOM     25  C   UNL     1      33.967  -5.923 -24.948  0.00  0.00    -0.000 C 
ATOM     26  C   UNL     1      35.593  -6.797 -23.392  0.00  0.00    -0.000 C 
ATOM     27  C   UNL     1      35.282  -5.999 -24.490  0.00  0.00    -0.000 C 
ENDBRANCH  17  18
ENDBRANCH   1  17
BRANCH   1  28
ATOM     28  C   UNL     1      30.941 -10.509 -19.887  0.00  0.00    +0.130 C 
BRANCH  28  30
ATOM     29  O   UNL     1      31.054  -8.369 -18.734  0.00  0.00    -0.250 OA
ATOM     30  C   UNL     1      31.424  -9.529 -18.840  0.00  0.00    +0.316 C 
BRANCH  30  31
ATOM     31  O   UNL     1      32.308 -10.105 -17.983  0.00  0.00    -0.480 OA
ATOM     32  H   UNL     1      32.185 -10.022 -17.059  0.00  0.00    +0.295 HD
ENDBRANCH  30  31
ENDBRANCH  28  30
ENDBRANCH   1  28
TORSDOF 8
ENDMDL
MODEL 6
REMARK VINA RESULT:     -10.7      3.551      7.199
REMARK  Name = 24764434
REMARK  8 active torsions:
REMARK  status: ('A' for Active; 'I' for Inactive)
REMARK    1  A    between atoms: C_1  and  N_4
REMARK    2  A    between atoms: C_1  and  C_17
REMARK    3  A    between atoms: C_1  and  C_28
REMARK    4  A    between atoms: C_11  and  C_14
REMARK    5  A    between atoms: C_14  and  O_15
REMARK    6  A    between atoms: C_17  and  C_18
REMARK    7  A    between atoms: C_28  and  C_30
REMARK    8  A    between atoms: C_30  and  O_31
REMARK                            x       y       z     vdW  Elec       q    Type
REMARK                         _______ _______ _______ _____ _____    ______ ____
ROOT
ATOM      1  C   UNL     1      33.368 -24.656 -14.096  0.00  0.00    +0.098 C 
ENDROOT
BRANCH   1   4
ATOM      2  O   UNL     1      35.409 -26.018 -15.791  0.00  0.00    -0.269 OA
ATOM      3  O   UNL     1      34.987 -23.820 -11.735  0.00  0.00    -0.269 OA
ATOM      4  N   UNL     1      34.778 -24.867 -13.835  0.00  0.00    -0.224 N 
ATOM      5  C   UNL     1      35.627 -25.521 -14.703  0.00  0.00    +0.255 C 
ATOM      6  C   UNL     1      35.418 -24.434 -12.694  0.00  0.00    +0.255 C 
ATOM      7  C   UNL     1      36.936 -25.517 -14.050  0.00  0.00    +0.059 C 
ATOM      8  C   UNL     1      36.810 -24.860 -12.836  0.00  0.00    +0.058 C 
ATOM      9  C   UNL     1      38.140 -26.040 -14.476  0.00  0.00    +0.011 C 
ATOM     10  C   UNL     1      37.881 -24.689 -11.983  0.00  0.00    +0.005 C 
ATOM     11  C   UNL     1      39.240 -25.880 -13.628  0.00  0.00    +0.076 C 
ATOM     12  C   UNL     1      39.111 -25.211 -12.393  0.00  0.00    +0.007 C 
BRANCH  11  14
ATOM     13  O   UNL     1      41.332 -26.987 -13.275  0.00  0.00    -0.245 OA
ATOM     14  C   UNL     1      40.536 -26.409 -14.023  0.00  0.00    +0.338 C 
BRANCH  14  15
ATOM     15  O   UNL     1      40.801 -26.204 -15.342  0.00  0.00    -0.477 OA
ATOM     16  H   UNL     1      41.563 -25.724 -15.598  0.00  0.00    +0.295 HD
ENDBRANCH  14  15
ENDBRANCH  11  14
ENDBRANCH   1   4
BRANCH   1  17
ATOM     17  C   UNL     1      33.102 -23.211 -14.572  0.00  0.00    +0.047 C 
BRANCH  17  18
ATOM     18  C   UNL     1      33.582 -22.882 -15.966  0.00  0.00    -0.020 C 
ATOM     19  C   UNL     1      34.890 -22.438 -16.218  0.00  0.00    -0.004 C 
ATOM     20  C   UNL     1      32.669 -23.034 -17.010  0.00  0.00    -0.004 C 
ATOM     21  C   UNL     1      35.279 -22.145 -17.547  0.00  0.00    -0.000 C 
ATOM     22  C   UNL     1      35.822 -22.278 -15.179  0.00  0.00    -0.000 C 
ATOM     23  C   UNL     1      33.050 -22.747 -18.318  0.00  0.00    -0.000 C 
ATOM     24  C   UNL     1      34.347 -22.305 -18.586  0.00  0.00    -0.000 C 
ATOM     25  C   UNL     1      36.587 -21.702 -17.798  0.00  0.00    -0.000 C 
ATOM     26  C   UNL     1      37.118 -21.837 -15.447  0.00  0.00    -0.000 C 
ATOM     27  C   UNL     1      37.500 -21.550 -16.755  0.00  0.00    -0.000 C 
ENDBRANCH  17  18
ENDBRANCH   1  17
BRANCH   1  28
ATOM     28  C   UNL     1      32.536 -25.094 -12.882  0.00  0.00    +0.130 C 
BRANCH  28  30
ATOM     29  O   UNL     1      30.550 -25.544 -14.213  0.00  0.00    -0.250 OA
ATOM     30  C   UNL     1      31.052 -25.165 -13.165  0.00  0.00    +0.316 C 
BRANCH  30  31
ATOM     31  O   UNL     1      30.317 -24.790 -12.085  0.00  0.00    -0.480 OA
ATOM     32  H   UNL     1      29.381 -24.809 -12.126  0.00  0.00    +0.295 HD
ENDBRANCH  30  31
ENDBRANCH  28  30
ENDBRANCH   1  28
TORSDOF 8
ENDMDL
MODEL 7
REMARK VINA RESULT:     -10.6      3.339      7.028
REMARK  Name = 24764434
REMARK  8 active torsions:
REMARK  status: ('A' for Active; 'I' for Inactive)
REMARK    1  A    between atoms: C_1  and  N_4
REMARK    2  A    between atoms: C_1  and  C_17
REMARK    3  A    between atoms: C_1  and  C_28
REMARK    4  A    between atoms: C_11  and  C_14
REMARK    5  A    between atoms: C_14  and  O_15
REMARK    6  A    between atoms: C_17  and  C_18
REMARK    7  A    between atoms: C_28  and  C_30
REMARK    8  A    between atoms: C_30  and  O_31
REMARK                            x       y       z     vdW  Elec       q    Type
REMARK                         _______ _______ _______ _____ _____    ______ ____
ROOT
ATOM      1  C   UNL     1      34.063 -23.764 -13.374  0.00  0.00    +0.098 C 
ENDROOT
BRANCH   1   4
ATOM      2  O   UNL     1      32.350 -21.482 -14.240  0.00  0.00    -0.269 OA
ATOM      3  O   UNL     1      32.182 -26.067 -13.605  0.00  0.00    -0.269 OA
ATOM      4  N   UNL     1      32.674 -23.771 -13.789  0.00  0.00    -0.224 N 
ATOM      5  C   UNL     1      31.983 -22.639 -14.167  0.00  0.00    +0.255 C 
ATOM      6  C   UNL     1      31.899 -24.909 -13.850  0.00  0.00    +0.255 C 
ATOM      7  C   UNL     1      30.632 -23.093 -14.493  0.00  0.00    +0.059 C 
ATOM      8  C   UNL     1      30.581 -24.465 -14.302  0.00  0.00    +0.058 C 
ATOM      9  C   UNL     1      29.534 -22.374 -14.922  0.00  0.00    +0.011 C 
ATOM     10  C   UNL     1      29.431 -25.193 -14.531  0.00  0.00    +0.005 C 
ATOM     11  C   UNL     1      28.357 -23.090 -15.160  0.00  0.00    +0.076 C 
ATOM     12  C   UNL     1      28.306 -24.486 -14.966  0.00  0.00    +0.007 C 
BRANCH  11  14
ATOM     13  O   UNL     1      26.069 -22.400 -15.050  0.00  0.00    -0.245 OA
ATOM     14  C   UNL     1      27.168 -22.387 -15.615  0.00  0.00    +0.338 C 
BRANCH  14  15
ATOM     15  O   UNL     1      27.385 -21.686 -16.761  0.00  0.00    -0.477 OA
ATOM     16  H   UNL     1      27.929 -22.044 -17.433  0.00  0.00    +0.295 HD
ENDBRANCH  14  15
ENDBRANCH  11  14
ENDBRANCH   1   4
BRANCH   1  17
ATOM     17  C   UNL     1      34.970 -24.372 -14.465  0.00  0.00    +0.047 C 
BRANCH  17  18
ATOM     18  C   UNL     1      35.709 -23.380 -15.332  0.00  0.00    -0.020 C 
ATOM     19  C   UNL     1      35.177 -22.911 -16.544  0.00  0.00    -0.004 C 
ATOM     20  C   UNL     1      36.954 -22.939 -14.882  0.00  0.00    -0.004 C 
ATOM     21  C   UNL     1      35.919 -21.981 -17.311  0.00  0.00    -0.000 C 
ATOM     22  C   UNL     1      33.926 -23.344 -17.012  0.00  0.00    -0.000 C 
ATOM     23  C   UNL     1      37.683 -22.025 -15.636  0.00  0.00    -0.000 C 
ATOM     24  C   UNL     1      37.171 -21.548 -16.843  0.00  0.00    -0.000 C 
ATOM     25  C   UNL     1      35.388 -21.512 -18.523  0.00  0.00    -0.000 C 
ATOM     26  C   UNL     1      33.413 -22.867 -18.219  0.00  0.00    -0.000 C 
ATOM     27  C   UNL     1      34.143 -21.952 -18.973  0.00  0.00    -0.000 C 
ENDBRANCH  17  18
ENDBRANCH   1  17
BRANCH   1  28
ATOM     28  C   UNL     1      34.202 -24.414 -11.989  0.00  0.00    +0.130 C 
BRANCH  28  30
ATOM     29  O   UNL     1      36.245 -23.200 -11.464  0.00  0.00    -0.250 OA
ATOM     30  C   UNL     1      35.565 -24.211 -11.365  0.00  0.00    +0.316 C 
BRANCH  30  31
ATOM     31  O   UNL     1      35.945 -25.289 -10.630  0.00  0.00    -0.480 OA
ATOM     32  H   UNL     1      35.420 -26.064 -10.630  0.00  0.00    +0.295 HD
ENDBRANCH  30  31
ENDBRANCH  28  30
ENDBRANCH   1  28
TORSDOF 8
ENDMDL
MODEL 8
REMARK VINA RESULT:     -10.6      9.925     14.648
REMARK  Name = 24764434
REMARK  8 active torsions:
REMARK  status: ('A' for Active; 'I' for Inactive)
REMARK    1  A    between atoms: C_1  and  N_4
REMARK    2  A    between atoms: C_1  and  C_17
REMARK    3  A    between atoms: C_1  and  C_28
REMARK    4  A    between atoms: C_11  and  C_14
REMARK    5  A    between atoms: C_14  and  O_15
REMARK    6  A    between atoms: C_17  and  C_18
REMARK    7  A    between atoms: C_28  and  C_30
REMARK    8  A    between atoms: C_30  and  O_31
REMARK                            x       y       z     vdW  Elec       q    Type
REMARK                         _______ _______ _______ _____ _____    ______ ____
ROOT
ATOM      1  C   UNL     1      31.659 -10.311 -21.192  0.00  0.00    +0.098 C 
ENDROOT
BRANCH   1   4
ATOM      2  O   UNL     1      32.597 -11.500 -23.761  0.00  0.00    -0.269 OA
ATOM      3  O   UNL     1      32.506 -12.376 -19.213  0.00  0.00    -0.269 OA
ATOM      4  N   UNL     1      32.340 -11.570 -21.421  0.00  0.00    -0.224 N 
ATOM      5  C   UNL     1      32.723 -12.017 -22.668  0.00  0.00    +0.255 C 
ATOM      6  C   UNL     1      32.677 -12.451 -20.416  0.00  0.00    +0.255 C 
ATOM      7  C   UNL     1      33.358 -13.315 -22.443  0.00  0.00    +0.059 C 
ATOM      8  C   UNL     1      33.331 -13.578 -21.082  0.00  0.00    +0.058 C 
ATOM      9  C   UNL     1      33.916 -14.197 -23.346  0.00  0.00    +0.011 C 
ATOM     10  C   UNL     1      33.861 -14.736 -20.550  0.00  0.00    +0.005 C 
ATOM     11  C   UNL     1      34.459 -15.378 -22.830  0.00  0.00    +0.076 C 
ATOM     12  C   UNL     1      34.431 -15.645 -21.446  0.00  0.00    +0.007 C 
BRANCH  11  14
ATOM     13  O   UNL     1      34.989 -16.317 -24.966  0.00  0.00    -0.245 OA
ATOM     14  C   UNL     1      35.063 -16.346 -23.733  0.00  0.00    +0.338 C 
BRANCH  14  15
ATOM     15  O   UNL     1      35.742 -17.321 -23.071  0.00  0.00    -0.477 OA
ATOM     16  H   UNL     1      35.275 -18.009 -22.641  0.00  0.00    +0.295 HD
ENDBRANCH  14  15
ENDBRANCH  11  14
ENDBRANCH   1   4
BRANCH   1  17
ATOM     17  C   UNL     1      32.613  -9.117 -21.413  0.00  0.00    +0.047 C 
BRANCH  17  18
ATOM     18  C   UNL     1      32.298  -8.237 -22.600  0.00  0.00    -0.020 C 
ATOM     19  C   UNL     1      33.286  -7.477 -23.246  0.00  0.00    -0.004 C 
ATOM     20  C   UNL     1      30.973  -8.203 -23.038  0.00  0.00    -0.004 C 
ATOM     21  C   UNL     1      32.927  -6.671 -24.353  0.00  0.00    -0.000 C 
ATOM     22  C   UNL     1      34.624  -7.499 -22.818  0.00  0.00    -0.000 C 
ATOM     23  C   UNL     1      30.619  -7.411 -24.126  0.00  0.00    -0.000 C 
ATOM     24  C   UNL     1      31.588  -6.649 -24.781  0.00  0.00    -0.000 C 
ATOM     25  C   UNL     1      33.914  -5.912 -24.999  0.00  0.00    -0.000 C 
ATOM     26  C   UNL     1      35.592  -6.738 -23.473  0.00  0.00    -0.000 C 
ATOM     27  C   UNL     1      35.238  -5.946 -24.562  0.00  0.00    -0.000 C 
ENDBRANCH  17  18
ENDBRANCH   1  17
BRANCH   1  28
ATOM     28  C   UNL     1      30.963 -10.330 -19.824  0.00  0.00    +0.130 C 
BRANCH  28  30
ATOM     29  O   UNL     1      31.170  -8.121 -18.823  0.00  0.00    -0.250 OA
ATOM     30  C   UNL     1      31.504  -9.297 -18.860  0.00  0.00    +0.316 C 
BRANCH  30  31
ATOM     31  O   UNL     1      32.397  -9.840 -17.992  0.00  0.00    -0.480 OA
ATOM     32  H   UNL     1      33.010 -10.482 -18.291  0.00  0.00    +0.295 HD
ENDBRANCH  30  31
ENDBRANCH  28  30
ENDBRANCH   1  28
TORSDOF 8
ENDMDL
MODEL 9
REMARK VINA RESULT:     -10.6     11.520     15.928
REMARK  Name = 24764434
REMARK  8 active torsions:
REMARK  status: ('A' for Active; 'I' for Inactive)
REMARK    1  A    between atoms: C_1  and  N_4
REMARK    2  A    between atoms: C_1  and  C_17
REMARK    3  A    between atoms: C_1  and  C_28
REMARK    4  A    between atoms: C_11  and  C_14
REMARK    5  A    between atoms: C_14  and  O_15
REMARK    6  A    between atoms: C_17  and  C_18
REMARK    7  A    between atoms: C_28  and  C_30
REMARK    8  A    between atoms: C_30  and  O_31
REMARK                            x       y       z     vdW  Elec       q    Type
REMARK                         _______ _______ _______ _____ _____    ______ ____
ROOT
ATOM      1  C   UNL     1      31.719  -8.733 -21.757  0.00  0.00    +0.098 C 
ENDROOT
BRANCH   1   4
ATOM      2  O   UNL     1      33.378  -9.938 -23.922  0.00  0.00    -0.269 OA
ATOM      3  O   UNL     1      31.228 -11.079 -19.980  0.00  0.00    -0.269 OA
ATOM      4  N   UNL     1      32.162 -10.104 -21.911  0.00  0.00    -0.224 N 
ATOM      5  C   UNL     1      32.930 -10.546 -22.969  0.00  0.00    +0.255 C 
ATOM      6  C   UNL     1      31.864 -11.110 -21.017  0.00  0.00    +0.255 C 
ATOM      7  C   UNL     1      33.136 -11.975 -22.736  0.00  0.00    +0.059 C 
ATOM      8  C   UNL     1      32.492 -12.317 -21.556  0.00  0.00    +0.058 C 
ATOM      9  C   UNL     1      33.828 -12.904 -23.487  0.00  0.00    +0.011 C 
ATOM     10  C   UNL     1      32.506 -13.605 -21.063  0.00  0.00    +0.005 C 
ATOM     11  C   UNL     1      33.855 -14.217 -23.007  0.00  0.00    +0.076 C 
ATOM     12  C   UNL     1      33.200 -14.564 -21.807  0.00  0.00    +0.007 C 
BRANCH  11  14
ATOM     13  O   UNL     1      34.259 -15.655 -24.876  0.00  0.00    -0.245 OA
ATOM     14  C   UNL     1      34.569 -15.241 -23.754  0.00  0.00    +0.338 C 
BRANCH  14  15
ATOM     15  O   UNL     1      35.651 -15.717 -23.080  0.00  0.00    -0.477 OA
ATOM     16  H   UNL     1      35.765 -15.514 -22.173  0.00  0.00    +0.295 HD
ENDBRANCH  14  15
ENDBRANCH  11  14
ENDBRANCH   1   4
BRANCH   1  17
ATOM     17  C   UNL     1      31.085  -8.205 -23.062  0.00  0.00    +0.047 C 
BRANCH  17  18
ATOM     18  C   UNL     1      31.644  -6.903 -23.583  0.00  0.00    -0.020 C 
ATOM     19  C   UNL     1      31.306  -5.665 -23.011  0.00  0.00    -0.004 C 
ATOM     20  C   UNL     1      32.521  -6.971 -24.666  0.00  0.00    -0.004 C 
ATOM     21  C   UNL     1      31.864  -4.480 -23.545  0.00  0.00    -0.000 C 
ATOM     22  C   UNL     1      30.424  -5.579 -21.920  0.00  0.00    -0.000 C 
ATOM     23  C   UNL     1      33.071  -5.805 -25.192  0.00  0.00    -0.000 C 
ATOM     24  C   UNL     1      32.745  -4.566 -24.636  0.00  0.00    -0.000 C 
ATOM     25  C   UNL     1      31.526  -3.243 -22.974  0.00  0.00    -0.000 C 
ATOM     26  C   UNL     1      30.099  -4.341 -21.365  0.00  0.00    -0.000 C 
ATOM     27  C   UNL     1      30.649  -3.175 -21.891  0.00  0.00    -0.000 C 
ENDBRANCH  17  18
ENDBRANCH   1  17
BRANCH   1  28
ATOM     28  C   UNL     1      32.862  -7.869 -21.205  0.00  0.00    +0.130 C 
BRANCH  28  30
ATOM     29  O   UNL     1      31.935  -8.129 -18.970  0.00  0.00    -0.250 OA
ATOM     30  C   UNL     1      32.798  -7.673 -19.707  0.00  0.00    +0.316 C 
BRANCH  30  31
ATOM     31  O   UNL     1      33.853  -6.949 -19.249  0.00  0.00    -0.480 OA
ATOM     32  H   UNL     1      34.268  -7.183 -18.443  0.00  0.00    +0.295 HD
ENDBRANCH  30  31
ENDBRANCH  28  30
ENDBRANCH   1  28
TORSDOF 8
ENDMDL
