MODEL 1
REMARK VINA RESULT:     -11.9      0.000      0.000
REMARK  Name = 24883488
REMARK  8 active torsions:
REMARK  status: ('A' for Active; 'I' for Inactive)
REMARK    1  A    between atoms: N_2  and  C_11
REMARK    2  A    between atoms: C_3  and  C_19
REMARK    3  A    between atoms: C_19  and  C_20
REMARK    4  A    between atoms: C_20  and  C_23
REMARK    5  A    between atoms: N_22  and  C_25
REMARK    6  A    between atoms: C_27  and  O_31
REMARK    7  A    between atoms: O_31  and  C_32
REMARK    8  A    between atoms: C_32  and  C_34
REMARK                            x       y       z     vdW  Elec       q    Type
REMARK                         _______ _______ _______ _____ _____    ______ ____
ROOT
ATOM      1  O   UNL     1      34.121 -18.450 -24.182  0.00  0.00    -0.275 OA
ATOM      2  N   UNL     1      35.566 -17.515 -22.575  0.00  0.00    -0.284 N 
ATOM      3  C   UNL     1      34.819 -17.533 -23.760  0.00  0.00    +0.227 C 
ATOM      4  H   UNL     1      36.089 -16.697 -22.411  0.00  0.00    +0.155 HD
ENDROOT
BRANCH   2  11
ATOM      5  O   UNL     1      32.308 -20.663 -20.215  0.00  0.00    -0.282 OA
ATOM      6  O   UNL     1      37.080 -21.823 -18.126  0.00  0.00    -0.270 OA
ATOM      7  O   UNL     1      32.521 -22.547 -18.359  0.00  0.00    -0.266 OA
ATOM      8  N   UNL     1      34.811 -22.187 -18.236  0.00  0.00    -0.246 N 
ATOM      9  C   UNL     1      34.623 -20.182 -20.202  0.00  0.00    +0.049 C 
ATOM     10  C   UNL     1      35.862 -20.498 -19.646  0.00  0.00    +0.057 C 
ATOM     11  C   UNL     1      35.663 -18.507 -21.599  0.00  0.00    +0.050 C 
ATOM     12  C   UNL     1      34.520 -19.186 -21.179  0.00  0.00    +0.018 C 
ATOM     13  C   UNL     1      37.006 -19.813 -20.071  0.00  0.00    +0.006 C 
ATOM     14  C   UNL     1      36.904 -18.819 -21.047  0.00  0.00    +0.015 C 
ATOM     15  C   UNL     1      33.417 -20.896 -19.762  0.00  0.00    +0.249 C 
ATOM     16  C   UNL     1      35.986 -21.547 -18.612  0.00  0.00    +0.252 C 
ATOM     17  C   UNL     1      33.533 -21.962 -18.714  0.00  0.00    +0.291 C 
ATOM     18  H   UNL     1      34.899 -22.885 -17.547  0.00  0.00    +0.158 HD
ENDBRANCH   2  11
BRANCH   3  19
ATOM     19  C   UNL     1      34.978 -16.253 -24.563  0.00  0.00    +0.095 C 
BRANCH  19  20
ATOM     20  C   UNL     1      33.732 -15.376 -24.460  0.00  0.00    +0.095 C 
BRANCH  20  23
ATOM     21  O   UNL     1      34.872 -14.310 -22.649  0.00  0.00    -0.275 OA
ATOM     22  N   UNL     1      32.649 -13.702 -23.107  0.00  0.00    -0.284 N 
ATOM     23  C   UNL     1      33.830 -14.412 -23.289  0.00  0.00    +0.227 C 
ATOM     24  H   UNL     1      31.920 -13.905 -23.738  0.00  0.00    +0.155 HD
BRANCH  22  25
ATOM     25  C   UNL     1      32.369 -12.725 -22.125  0.00  0.00    +0.053 C 
ATOM     26  C   UNL     1      32.239 -11.385 -22.492  0.00  0.00    +0.052 C 
ATOM     27  C   UNL     1      31.964 -10.420 -21.523  0.00  0.00    +0.140 C 
ATOM     28  C   UNL     1      32.225 -13.099 -20.790  0.00  0.00    +0.015 C 
ATOM     29  C   UNL     1      31.819 -10.796 -20.186  0.00  0.00    +0.037 C 
ATOM     30  C   UNL     1      31.949 -12.135 -19.820  0.00  0.00    +0.004 C 
BRANCH  27  31
ATOM     31  O   UNL     1      31.836  -9.113 -21.879  0.00  0.00    -0.472 OA
BRANCH  31  32
ATOM     32  C   UNL     1      31.898  -8.146 -20.833  0.00  0.00    +0.243 C 
BRANCH  32  34
ATOM     33  F   UNL     1      33.647  -7.074 -19.716  0.00  0.00    -0.230 F 
ATOM     34  C   UNL     1      33.187  -7.366 -20.964  0.00  0.00    +0.240 C 
ENDBRANCH  32  34
ENDBRANCH  31  32
ENDBRANCH  27  31
ENDBRANCH  22  25
ENDBRANCH  20  23
ENDBRANCH  19  20
ENDBRANCH   3  19
TORSDOF 8
ENDMDL
MODEL 2
REMARK VINA RESULT:     -11.8      1.647      2.073
REMARK  Name = 24883488
REMARK  8 active torsions:
REMARK  status: ('A' for Active; 'I' for Inactive)
REMARK    1  A    between atoms: N_2  and  C_11
REMARK    2  A    between atoms: C_3  and  C_19
REMARK    3  A    between atoms: C_19  and  C_20
REMARK    4  A    between atoms: C_20  and  C_23
REMARK    5  A    between atoms: N_22  and  C_25
REMARK    6  A    between atoms: C_27  and  O_31
REMARK    7  A    between atoms: O_31  and  C_32
REMARK    8  A    between atoms: C_32  and  C_34
REMARK                            x       y       z     vdW  Elec       q    Type
REMARK                         _______ _______ _______ _____ _____    ______ ____
ROOT
ATOM      1  O   UNL     1      34.924 -16.039 -21.408  0.00  0.00    -0.275 OA
ATOM      2  N   UNL     1      35.740 -17.995 -22.433  0.00  0.00    -0.284 N 
ATOM      3  C   UNL     1      35.340 -16.654 -22.385  0.00  0.00    +0.227 C 
ATOM      4  H   UNL     1      36.023 -18.328 -23.315  0.00  0.00    +0.155 HD
ENDROOT
BRANCH   2  11
ATOM      5  O   UNL     1      32.369 -21.000 -20.044  0.00  0.00    -0.282 OA
ATOM      6  O   UNL     1      37.028 -21.995 -17.638  0.00  0.00    -0.270 OA
ATOM      7  O   UNL     1      32.488 -22.757 -18.060  0.00  0.00    -0.266 OA
ATOM      8  N   UNL     1      34.769 -22.378 -17.841  0.00  0.00    -0.246 N 
ATOM      9  C   UNL     1      34.680 -20.507 -19.942  0.00  0.00    +0.049 C 
ATOM     10  C   UNL     1      35.889 -20.779 -19.302  0.00  0.00    +0.057 C 
ATOM     11  C   UNL     1      35.789 -18.921 -21.390  0.00  0.00    +0.050 C 
ATOM     12  C   UNL     1      34.626 -19.577 -20.987  0.00  0.00    +0.018 C 
ATOM     13  C   UNL     1      37.052 -20.117 -19.711  0.00  0.00    +0.006 C 
ATOM     14  C   UNL     1      37.000 -19.190 -20.755  0.00  0.00    +0.015 C 
ATOM     15  C   UNL     1      33.454 -21.197 -19.520  0.00  0.00    +0.249 C 
ATOM     16  C   UNL     1      35.961 -21.758 -18.197  0.00  0.00    +0.252 C 
ATOM     17  C   UNL     1      33.517 -22.191 -18.399  0.00  0.00    +0.291 C 
ATOM     18  H   UNL     1      34.822 -23.029 -17.105  0.00  0.00    +0.158 HD
ENDBRANCH   2  11
BRANCH   3  19
ATOM     19  C   UNL     1      35.430 -15.976 -23.742  0.00  0.00    +0.095 C 
BRANCH  19  20
ATOM     20  C   UNL     1      34.107 -16.071 -24.498  0.00  0.00    +0.095 C 
BRANCH  20  23
ATOM     21  O   UNL     1      32.829 -14.391 -25.621  0.00  0.00    -0.275 OA
ATOM     22  N   UNL     1      33.565 -13.982 -23.427  0.00  0.00    -0.284 N 
ATOM     23  C   UNL     1      33.429 -14.714 -24.600  0.00  0.00    +0.227 C 
ATOM     24  H   UNL     1      34.066 -14.417 -22.699  0.00  0.00    +0.155 HD
BRANCH  22  25
ATOM     25  C   UNL     1      33.069 -12.687 -23.153  0.00  0.00    +0.053 C 
ATOM     26  C   UNL     1      32.244 -12.474 -22.049  0.00  0.00    +0.052 C 
ATOM     27  C   UNL     1      31.754 -11.196 -21.779  0.00  0.00    +0.140 C 
ATOM     28  C   UNL     1      33.405 -11.621 -23.988  0.00  0.00    +0.015 C 
ATOM     29  C   UNL     1      32.091 -10.130 -22.615  0.00  0.00    +0.037 C 
ATOM     30  C   UNL     1      32.917 -10.343 -23.719  0.00  0.00    +0.004 C 
BRANCH  27  31
ATOM     31  O   UNL     1      30.949 -10.988 -20.702  0.00  0.00    -0.472 OA
BRANCH  31  32
ATOM     32  C   UNL     1      31.263  -9.878 -19.862  0.00  0.00    +0.243 C 
BRANCH  32  34
ATOM     33  F   UNL     1      32.099 -11.662 -18.606  0.00  0.00    -0.230 F 
ATOM     34  C   UNL     1      31.617 -10.394 -18.485  0.00  0.00    +0.240 C 
ENDBRANCH  32  34
ENDBRANCH  31  32
ENDBRANCH  27  31
ENDBRANCH  22  25
ENDBRANCH  20  23
ENDBRANCH  19  20
ENDBRANCH   3  19
TORSDOF 8
ENDMDL
MODEL 3
REMARK VINA RESULT:     -11.8      4.464      7.543
REMARK  Name = 24883488
REMARK  8 active torsions:
REMARK  status: ('A' for Active; 'I' for Inactive)
REMARK    1  A    between atoms: N_2  and  C_11
REMARK    2  A    between atoms: C_3  and  C_19
REMARK    3  A    between atoms: C_19  and  C_20
REMARK    4  A    between atoms: C_20  and  C_23
REMARK    5  A    between atoms: N_22  and  C_25
REMARK    6  A    between atoms: C_27  and  O_31
REMARK    7  A    between atoms: O_31  and  C_32
REMARK    8  A    between atoms: C_32  and  C_34
REMARK                            x       y       z     vdW  Elec       q    Type
REMARK                         _______ _______ _______ _____ _____    ______ ____
ROOT
ATOM      1  O   UNL     1      33.815 -24.151 -17.520  0.00  0.00    -0.275 OA
ATOM      2  N   UNL     1      35.037 -22.312 -16.705  0.00  0.00    -0.284 N 
ATOM      3  C   UNL     1      34.131 -22.966 -17.548  0.00  0.00    +0.227 C 
ATOM      4  H   UNL     1      35.186 -21.357 -16.893  0.00  0.00    +0.155 HD
ENDROOT
BRANCH   2  11
ATOM      5  O   UNL     1      33.897 -24.138 -12.073  0.00  0.00    -0.282 OA
ATOM      6  O   UNL     1      39.203 -24.568 -12.438  0.00  0.00    -0.270 OA
ATOM      7  O   UNL     1      35.288 -25.142 -10.050  0.00  0.00    -0.266 OA
ATOM      8  N   UNL     1      37.259 -24.855 -11.243  0.00  0.00    -0.246 N 
ATOM      9  C   UNL     1      35.815 -23.784 -13.409  0.00  0.00    +0.049 C 
ATOM     10  C   UNL     1      37.202 -23.904 -13.488  0.00  0.00    +0.057 C 
ATOM     11  C   UNL     1      35.757 -22.840 -15.633  0.00  0.00    +0.050 C 
ATOM     12  C   UNL     1      35.089 -23.252 -14.480  0.00  0.00    +0.018 C 
ATOM     13  C   UNL     1      37.868 -23.489 -14.647  0.00  0.00    +0.006 C 
ATOM     14  C   UNL     1      37.144 -22.959 -15.718  0.00  0.00    +0.015 C 
ATOM     15  C   UNL     1      35.109 -24.218 -12.196  0.00  0.00    +0.249 C 
ATOM     16  C   UNL     1      37.982 -24.463 -12.364  0.00  0.00    +0.252 C 
ATOM     17  C   UNL     1      35.891 -24.786 -11.051  0.00  0.00    +0.291 C 
ATOM     18  H   UNL     1      37.783 -25.227 -10.498  0.00  0.00    +0.158 HD
ENDBRANCH   2  11
BRANCH   3  19
ATOM     19  C   UNL     1      33.551 -22.039 -18.604  0.00  0.00    +0.095 C 
BRANCH  19  20
ATOM     20  C   UNL     1      34.655 -21.367 -19.418  0.00  0.00    +0.095 C 
BRANCH  20  23
ATOM     21  O   UNL     1      32.882 -20.100 -20.400  0.00  0.00    -0.275 OA
ATOM     22  N   UNL     1      35.074 -19.789 -21.189  0.00  0.00    -0.284 N 
ATOM     23  C   UNL     1      34.083 -20.354 -20.395  0.00  0.00    +0.227 C 
ATOM     24  H   UNL     1      35.993 -20.104 -21.025  0.00  0.00    +0.155 HD
BRANCH  22  25
ATOM     25  C   UNL     1      34.920 -18.816 -22.202  0.00  0.00    +0.053 C 
ATOM     26  C   UNL     1      35.269 -17.488 -21.954  0.00  0.00    +0.052 C 
ATOM     27  C   UNL     1      35.116 -16.527 -22.954  0.00  0.00    +0.140 C 
ATOM     28  C   UNL     1      34.420 -19.183 -23.451  0.00  0.00    +0.015 C 
ATOM     29  C   UNL     1      34.616 -16.896 -24.204  0.00  0.00    +0.037 C 
ATOM     30  C   UNL     1      34.268 -18.224 -24.452  0.00  0.00    +0.004 C 
BRANCH  27  31
ATOM     31  O   UNL     1      35.456 -15.232 -22.712  0.00  0.00    -0.472 OA
BRANCH  31  32
ATOM     32  C   UNL     1      34.408 -14.266 -22.767  0.00  0.00    +0.243 C 
BRANCH  32  34
ATOM     33  F   UNL     1      34.839 -14.236 -20.472  0.00  0.00    -0.230 F 
ATOM     34  C   UNL     1      33.834 -14.088 -21.380  0.00  0.00    +0.240 C 
ENDBRANCH  32  34
ENDBRANCH  31  32
ENDBRANCH  27  31
ENDBRANCH  22  25
ENDBRANCH  20  23
ENDBRANCH  19  20
ENDBRANCH   3  19
TORSDOF 8
ENDMDL
MODEL 4
REMARK VINA RESULT:     -11.8      3.637      6.893
REMARK  Name = 24883488
REMARK  8 active torsions:
REMARK  status: ('A' for Active; 'I' for Inactive)
REMARK    1  A    between atoms: N_2  and  C_11
REMARK    2  A    between atoms: C_3  and  C_19
REMARK    3  A    between atoms: C_19  and  C_20
REMARK    4  A    between atoms: C_20  and  C_23
REMARK    5  A    between atoms: N_22  and  C_25
REMARK    6  A    between atoms: C_27  and  O_31
REMARK    7  A    between atoms: O_31  and  C_32
REMARK    8  A    between atoms: C_32  and  C_34
REMARK                            x       y       z     vdW  Elec       q    Type
REMARK                         _______ _______ _______ _____ _____    ______ ____
ROOT
ATOM      1  O   UNL     1      33.181 -22.055 -19.359  0.00  0.00    -0.275 OA
ATOM      2  N   UNL     1      34.629 -22.737 -17.632  0.00  0.00    -0.284 N 
ATOM      3  C   UNL     1      34.304 -22.222 -18.893  0.00  0.00    +0.227 C 
ATOM      4  H   UNL     1      35.590 -22.823 -17.438  0.00  0.00    +0.155 HD
ENDROOT
BRANCH   2  11
ATOM      5  O   UNL     1      29.587 -22.570 -16.827  0.00  0.00    -0.282 OA
ATOM      6  O   UNL     1      31.581 -24.963 -12.494  0.00  0.00    -0.270 OA
ATOM      7  O   UNL     1      27.964 -23.358 -14.882  0.00  0.00    -0.266 OA
ATOM      8  N   UNL     1      29.777 -24.165 -13.676  0.00  0.00    -0.246 N 
ATOM      9  C   UNL     1      31.528 -23.342 -15.720  0.00  0.00    +0.049 C 
ATOM     10  C   UNL     1      32.033 -23.969 -14.580  0.00  0.00    +0.057 C 
ATOM     11  C   UNL     1      33.764 -23.145 -16.616  0.00  0.00    +0.050 C 
ATOM     12  C   UNL     1      32.392 -22.928 -16.740  0.00  0.00    +0.018 C 
ATOM     13  C   UNL     1      33.411 -24.184 -14.462  0.00  0.00    +0.006 C 
ATOM     14  C   UNL     1      34.273 -23.772 -15.480  0.00  0.00    +0.015 C 
ATOM     15  C   UNL     1      30.084 -23.112 -15.853  0.00  0.00    +0.249 C 
ATOM     16  C   UNL     1      31.133 -24.410 -13.494  0.00  0.00    +0.252 C 
ATOM     17  C   UNL     1      29.163 -23.556 -14.756  0.00  0.00    +0.291 C 
ATOM     18  H   UNL     1      29.181 -24.461 -12.950  0.00  0.00    +0.158 HD
ENDBRANCH   2  11
BRANCH   3  19
ATOM     19  C   UNL     1      35.538 -21.894 -19.718  0.00  0.00    +0.095 C 
BRANCH  19  20
ATOM     20  C   UNL     1      36.285 -20.693 -19.144  0.00  0.00    +0.095 C 
BRANCH  20  23
ATOM     21  O   UNL     1      37.478 -18.944 -20.255  0.00  0.00    -0.275 OA
ATOM     22  N   UNL     1      35.305 -19.473 -20.977  0.00  0.00    -0.284 N 
ATOM     23  C   UNL     1      36.437 -19.590 -20.179  0.00  0.00    +0.227 C 
ATOM     24  H   UNL     1      34.570 -20.098 -20.780  0.00  0.00    +0.155 HD
BRANCH  22  25
ATOM     25  C   UNL     1      35.084 -18.565 -22.037  0.00  0.00    +0.053 C 
ATOM     26  C   UNL     1      35.315 -17.202 -21.848  0.00  0.00    +0.052 C 
ATOM     27  C   UNL     1      35.096 -16.305 -22.894  0.00  0.00    +0.140 C 
ATOM     28  C   UNL     1      34.635 -19.031 -23.272  0.00  0.00    +0.015 C 
ATOM     29  C   UNL     1      34.646 -16.773 -24.130  0.00  0.00    +0.037 C 
ATOM     30  C   UNL     1      34.416 -18.135 -24.319  0.00  0.00    +0.004 C 
BRANCH  27  31
ATOM     31  O   UNL     1      35.321 -14.976 -22.710  0.00  0.00    -0.472 OA
BRANCH  31  32
ATOM     32  C   UNL     1      34.178 -14.122 -22.689  0.00  0.00    +0.243 C 
BRANCH  32  34
ATOM     33  F   UNL     1      34.864 -14.078 -20.456  0.00  0.00    -0.230 F 
ATOM     34  C   UNL     1      33.776 -13.881 -21.251  0.00  0.00    +0.240 C 
ENDBRANCH  32  34
ENDBRANCH  31  32
ENDBRANCH  27  31
ENDBRANCH  22  25
ENDBRANCH  20  23
ENDBRANCH  19  20
ENDBRANCH   3  19
TORSDOF 8
ENDMDL
MODEL 5
REMARK VINA RESULT:     -11.4      4.547     10.735
REMARK  Name = 24883488
REMARK  8 active torsions:
REMARK  status: ('A' for Active; 'I' for Inactive)
REMARK    1  A    between atoms: N_2  and  C_11
REMARK    2  A    between atoms: C_3  and  C_19
REMARK    3  A    between atoms: C_19  and  C_20
REMARK    4  A    between atoms: C_20  and  C_23
REMARK    5  A    between atoms: N_22  and  C_25
REMARK    6  A    between atoms: C_27  and  O_31
REMARK    7  A    between atoms: O_31  and  C_32
REMARK    8  A    between atoms: C_32  and  C_34
REMARK                            x       y       z     vdW  Elec       q    Type
REMARK                         _______ _______ _______ _____ _____    ______ ____
ROOT
ATOM      1  O   UNL     1      34.086 -19.995 -20.692  0.00  0.00    -0.275 OA
ATOM      2  N   UNL     1      35.911 -18.656 -21.340  0.00  0.00    -0.284 N 
ATOM      3  C   UNL     1      35.277 -19.703 -20.660  0.00  0.00    +0.227 C 
ATOM      4  H   UNL     1      36.876 -18.557 -21.173  0.00  0.00    +0.155 HD
ENDROOT
BRANCH   2  11
ATOM      5  O   UNL     1      34.754 -13.682 -21.196  0.00  0.00    -0.282 OA
ATOM      6  O   UNL     1      33.292 -15.281 -26.073  0.00  0.00    -0.270 OA
ATOM      7  O   UNL     1      33.685 -11.948 -22.895  0.00  0.00    -0.266 OA
ATOM      8  N   UNL     1      33.483 -13.618 -24.496  0.00  0.00    -0.246 N 
ATOM      9  C   UNL     1      34.614 -15.485 -22.719  0.00  0.00    +0.049 C 
ATOM     10  C   UNL     1      34.226 -15.886 -23.998  0.00  0.00    +0.057 C 
ATOM     11  C   UNL     1      35.349 -17.734 -22.223  0.00  0.00    +0.050 C 
ATOM     12  C   UNL     1      35.175 -16.407 -21.829  0.00  0.00    +0.018 C 
ATOM     13  C   UNL     1      34.403 -17.219 -24.388  0.00  0.00    +0.006 C 
ATOM     14  C   UNL     1      34.964 -18.139 -23.500  0.00  0.00    +0.015 C 
ATOM     15  C   UNL     1      34.432 -14.089 -22.301  0.00  0.00    +0.249 C 
ATOM     16  C   UNL     1      33.631 -14.924 -24.948  0.00  0.00    +0.252 C 
ATOM     17  C   UNL     1      33.828 -13.106 -23.258  0.00  0.00    +0.291 C 
ATOM     18  H   UNL     1      33.086 -12.981 -25.133  0.00  0.00    +0.158 HD
ENDBRANCH   2  11
BRANCH   3  19
ATOM     19  C   UNL     1      36.240 -20.489 -19.784  0.00  0.00    +0.095 C 
BRANCH  19  20
ATOM     20  C   UNL     1      35.719 -21.898 -19.514  0.00  0.00    +0.095 C 
BRANCH  20  23
ATOM     21  O   UNL     1      36.305 -21.756 -17.202  0.00  0.00    -0.275 OA
ATOM     22  N   UNL     1      34.254 -22.737 -17.795  0.00  0.00    -0.284 N 
ATOM     23  C   UNL     1      35.479 -22.125 -18.031  0.00  0.00    +0.227 C 
ATOM     24  H   UNL     1      33.711 -22.941 -18.591  0.00  0.00    +0.155 HD
BRANCH  22  25
ATOM     25  C   UNL     1      33.695 -23.101 -16.549  0.00  0.00    +0.053 C 
ATOM     26  C   UNL     1      32.331 -22.923 -16.318  0.00  0.00    +0.052 C 
ATOM     27  C   UNL     1      31.779 -23.282 -15.088  0.00  0.00    +0.140 C 
ATOM     28  C   UNL     1      34.507 -23.639 -15.551  0.00  0.00    +0.015 C 
ATOM     29  C   UNL     1      32.592 -23.820 -14.090  0.00  0.00    +0.037 C 
ATOM     30  C   UNL     1      33.956 -23.998 -14.321  0.00  0.00    +0.004 C 
BRANCH  27  31
ATOM     31  O   UNL     1      30.448 -23.109 -14.862  0.00  0.00    -0.472 OA
BRANCH  31  32
ATOM     32  C   UNL     1      29.556 -24.007 -15.520  0.00  0.00    +0.243 C 
BRANCH  32  34
ATOM     33  F   UNL     1      30.017 -26.004 -14.400  0.00  0.00    -0.230 F 
ATOM     34  C   UNL     1      29.070 -25.032 -14.520  0.00  0.00    +0.240 C 
ENDBRANCH  32  34
ENDBRANCH  31  32
ENDBRANCH  27  31
ENDBRANCH  22  25
ENDBRANCH  20  23
ENDBRANCH  19  20
ENDBRANCH   3  19
TORSDOF 8
ENDMDL
MODEL 6
REMARK VINA RESULT:     -11.4      4.984     11.255
REMARK  Name = 24883488
REMARK  8 active torsions:
REMARK  status: ('A' for Active; 'I' for Inactive)
REMARK    1  A    between atoms: N_2  and  C_11
REMARK    2  A    between atoms: C_3  and  C_19
REMARK    3  A    between atoms: C_19  and  C_20
REMARK    4  A    between atoms: C_20  and  C_23
REMARK    5  A    between atoms: N_22  and  C_25
REMARK    6  A    between atoms: C_27  and  O_31
REMARK    7  A    between atoms: O_31  and  C_32
REMARK    8  A    between atoms: C_32  and  C_34
REMARK                            x       y       z     vdW  Elec       q    Type
REMARK                         _______ _______ _______ _____ _____    ______ ____
ROOT
ATOM      1  O   UNL     1      37.874 -18.712 -20.941  0.00  0.00    -0.275 OA
ATOM      2  N   UNL     1      35.525 -18.875 -20.972  0.00  0.00    -0.284 N 
ATOM      3  C   UNL     1      36.819 -19.204 -20.551  0.00  0.00    +0.227 C 
ATOM      4  H   UNL     1      34.795 -19.396 -20.566  0.00  0.00    +0.155 HD
ENDROOT
BRANCH   2  11
ATOM      5  O   UNL     1      34.672 -13.839 -20.849  0.00  0.00    -0.282 OA
ATOM      6  O   UNL     1      33.740 -15.256 -25.909  0.00  0.00    -0.270 OA
ATOM      7  O   UNL     1      33.936 -12.010 -22.624  0.00  0.00    -0.266 OA
ATOM      8  N   UNL     1      33.834 -13.636 -24.278  0.00  0.00    -0.246 N 
ATOM      9  C   UNL     1      34.612 -15.603 -22.422  0.00  0.00    +0.049 C 
ATOM     10  C   UNL     1      34.365 -15.956 -23.749  0.00  0.00    +0.057 C 
ATOM     11  C   UNL     1      35.138 -17.903 -21.896  0.00  0.00    +0.050 C 
ATOM     12  C   UNL     1      34.998 -16.575 -21.492  0.00  0.00    +0.018 C 
ATOM     13  C   UNL     1      34.506 -17.291 -24.148  0.00  0.00    +0.006 C 
ATOM     14  C   UNL     1      34.892 -18.261 -23.220  0.00  0.00    +0.015 C 
ATOM     15  C   UNL     1      34.467 -14.206 -21.995  0.00  0.00    +0.249 C 
ATOM     16  C   UNL     1      33.955 -14.941 -24.742  0.00  0.00    +0.252 C 
ATOM     17  C   UNL     1      34.052 -13.169 -22.995  0.00  0.00    +0.291 C 
ATOM     18  H   UNL     1      33.561 -12.964 -24.944  0.00  0.00    +0.158 HD
ENDBRANCH   2  11
BRANCH   3  19
ATOM     19  C   UNL     1      36.825 -20.327 -19.527  0.00  0.00    +0.095 C 
BRANCH  19  20
ATOM     20  C   UNL     1      35.705 -21.328 -19.796  0.00  0.00    +0.095 C 
BRANCH  20  23
ATOM     21  O   UNL     1      34.580 -23.076 -18.616  0.00  0.00    -0.275 OA
ATOM     22  N   UNL     1      36.252 -21.851 -17.509  0.00  0.00    -0.284 N 
ATOM     23  C   UNL     1      35.427 -22.189 -18.575  0.00  0.00    +0.227 C 
ATOM     24  H   UNL     1      36.893 -21.121 -17.671  0.00  0.00    +0.155 HD
BRANCH  22  25
ATOM     25  C   UNL     1      36.281 -22.431 -16.220  0.00  0.00    +0.053 C 
ATOM     26  C   UNL     1      37.481 -22.917 -15.700  0.00  0.00    +0.052 C 
ATOM     27  C   UNL     1      37.510 -23.490 -14.429  0.00  0.00    +0.140 C 
ATOM     28  C   UNL     1      35.110 -22.517 -15.468  0.00  0.00    +0.015 C 
ATOM     29  C   UNL     1      36.338 -23.576 -13.676  0.00  0.00    +0.037 C 
ATOM     30  C   UNL     1      35.138 -23.089 -14.196  0.00  0.00    +0.004 C 
BRANCH  27  31
ATOM     31  O   UNL     1      38.680 -23.964 -13.921  0.00  0.00    -0.472 OA
BRANCH  31  32
ATOM     32  C   UNL     1      39.039 -25.302 -14.261  0.00  0.00    +0.243 C 
BRANCH  32  34
ATOM     33  F   UNL     1      40.871 -26.594 -13.603  0.00  0.00    -0.230 F 
ATOM     34  C   UNL     1      40.546 -25.427 -14.226  0.00  0.00    +0.240 C 
ENDBRANCH  32  34
ENDBRANCH  31  32
ENDBRANCH  27  31
ENDBRANCH  22  25
ENDBRANCH  20  23
ENDBRANCH  19  20
ENDBRANCH   3  19
TORSDOF 8
ENDMDL
MODEL 7
REMARK VINA RESULT:     -11.4      3.476      9.965
REMARK  Name = 24883488
REMARK  8 active torsions:
REMARK  status: ('A' for Active; 'I' for Inactive)
REMARK    1  A    between atoms: N_2  and  C_11
REMARK    2  A    between atoms: C_3  and  C_19
REMARK    3  A    between atoms: C_19  and  C_20
REMARK    4  A    between atoms: C_20  and  C_23
REMARK    5  A    between atoms: N_22  and  C_25
REMARK    6  A    between atoms: C_27  and  O_31
REMARK    7  A    between atoms: O_31  and  C_32
REMARK    8  A    between atoms: C_32  and  C_34
REMARK                            x       y       z     vdW  Elec       q    Type
REMARK                         _______ _______ _______ _____ _____    ______ ____
ROOT
ATOM      1  O   UNL     1      33.388 -15.675 -25.540  0.00  0.00    -0.275 OA
ATOM      2  N   UNL     1      34.217 -15.089 -23.415  0.00  0.00    -0.284 N 
ATOM      3  C   UNL     1      34.052 -15.913 -24.536  0.00  0.00    +0.227 C 
ATOM      4  H   UNL     1      34.769 -15.458 -22.689  0.00  0.00    +0.155 HD
ENDROOT
BRANCH   2  11
ATOM      5  O   UNL     1      31.894 -12.694 -19.546  0.00  0.00    -0.282 OA
ATOM      6  O   UNL     1      32.177  -9.049 -23.433  0.00  0.00    -0.270 OA
ATOM      7  O   UNL     1      30.915 -10.260 -19.155  0.00  0.00    -0.266 OA
ATOM      8  N   UNL     1      31.545  -9.645 -21.304  0.00  0.00    -0.246 N 
ATOM      9  C   UNL     1      32.593 -12.218 -21.754  0.00  0.00    +0.049 C 
ATOM     10  C   UNL     1      32.659 -11.253 -22.759  0.00  0.00    +0.057 C 
ATOM     11  C   UNL     1      33.697 -13.813 -23.197  0.00  0.00    +0.050 C 
ATOM     12  C   UNL     1      33.111 -13.500 -21.970  0.00  0.00    +0.018 C 
ATOM     13  C   UNL     1      33.248 -11.573 -23.988  0.00  0.00    +0.006 C 
ATOM     14  C   UNL     1      33.766 -12.852 -24.204  0.00  0.00    +0.015 C 
ATOM     15  C   UNL     1      31.978 -11.891 -20.462  0.00  0.00    +0.249 C 
ATOM     16  C   UNL     1      32.116  -9.895 -22.546  0.00  0.00    +0.252 C 
ATOM     17  C   UNL     1      31.423 -10.516 -20.236  0.00  0.00    +0.291 C 
ATOM     18  H   UNL     1      31.184  -8.739 -21.167  0.00  0.00    +0.158 HD
ENDBRANCH   2  11
BRANCH   3  19
ATOM     19  C   UNL     1      34.782 -17.238 -24.391  0.00  0.00    +0.095 C 
BRANCH  19  20
ATOM     20  C   UNL     1      35.312 -17.426 -22.971  0.00  0.00    +0.095 C 
BRANCH  20  23
ATOM     21  O   UNL     1      34.849 -19.757 -23.226  0.00  0.00    -0.275 OA
ATOM     22  N   UNL     1      34.989 -18.856 -21.060  0.00  0.00    -0.284 N 
ATOM     23  C   UNL     1      35.011 -18.821 -22.449  0.00  0.00    +0.227 C 
ATOM     24  H   UNL     1      35.165 -18.002 -20.602  0.00  0.00    +0.155 HD
BRANCH  22  25
ATOM     25  C   UNL     1      34.744 -19.971 -20.227  0.00  0.00    +0.053 C 
ATOM     26  C   UNL     1      35.799 -20.579 -19.546  0.00  0.00    +0.052 C 
ATOM     27  C   UNL     1      35.557 -21.680 -18.724  0.00  0.00    +0.140 C 
ATOM     28  C   UNL     1      33.447 -20.465 -20.086  0.00  0.00    +0.015 C 
ATOM     29  C   UNL     1      34.259 -22.173 -18.583  0.00  0.00    +0.037 C 
ATOM     30  C   UNL     1      33.204 -21.566 -19.264  0.00  0.00    +0.004 C 
BRANCH  27  31
ATOM     31  O   UNL     1      36.586 -22.273 -18.059  0.00  0.00    -0.472 OA
BRANCH  31  32
ATOM     32  C   UNL     1      36.996 -21.673 -16.831  0.00  0.00    +0.243 C 
BRANCH  32  34
ATOM     33  F   UNL     1      35.324 -22.543 -15.451  0.00  0.00    -0.230 F 
ATOM     34  C   UNL     1      36.663 -22.613 -15.694  0.00  0.00    +0.240 C 
ENDBRANCH  32  34
ENDBRANCH  31  32
ENDBRANCH  27  31
ENDBRANCH  22  25
ENDBRANCH  20  23
ENDBRANCH  19  20
ENDBRANCH   3  19
TORSDOF 8
ENDMDL
MODEL 8
REMARK VINA RESULT:     -11.3      1.574      1.747
REMARK  Name = 24883488
REMARK  8 active torsions:
REMARK  status: ('A' for Active; 'I' for Inactive)
REMARK    1  A    between atoms: N_2  and  C_11
REMARK    2  A    between atoms: C_3  and  C_19
REMARK    3  A    between atoms: C_19  and  C_20
REMARK    4  A    between atoms: C_20  and  C_23
REMARK    5  A    between atoms: N_22  and  C_25
REMARK    6  A    between atoms: C_27  and  O_31
REMARK    7  A    between atoms: O_31  and  C_32
REMARK    8  A    between atoms: C_32  and  C_34
REMARK                            x       y       z     vdW  Elec       q    Type
REMARK                         _______ _______ _______ _____ _____    ______ ____
ROOT
ATOM      1  O   UNL     1      35.022 -15.924 -21.425  0.00  0.00    -0.275 OA
ATOM      2  N   UNL     1      35.680 -17.913 -22.499  0.00  0.00    -0.284 N 
ATOM      3  C   UNL     1      35.348 -16.555 -22.426  0.00  0.00    +0.227 C 
ATOM      4  H   UNL     1      35.892 -18.256 -23.397  0.00  0.00    +0.155 HD
ENDROOT
BRANCH   2  11
ATOM      5  O   UNL     1      32.363 -20.968 -20.098  0.00  0.00    -0.282 OA
ATOM      6  O   UNL     1      37.052 -21.925 -17.737  0.00  0.00    -0.270 OA
ATOM      7  O   UNL     1      32.518 -22.735 -18.125  0.00  0.00    -0.266 OA
ATOM      8  N   UNL     1      34.796 -22.331 -17.923  0.00  0.00    -0.246 N 
ATOM      9  C   UNL     1      34.668 -20.450 -20.013  0.00  0.00    +0.049 C 
ATOM     10  C   UNL     1      35.886 -20.713 -19.385  0.00  0.00    +0.057 C 
ATOM     11  C   UNL     1      35.747 -18.844 -21.462  0.00  0.00    +0.050 C 
ATOM     12  C   UNL     1      34.595 -19.516 -21.052  0.00  0.00    +0.018 C 
ATOM     13  C   UNL     1      37.038 -20.035 -19.801  0.00  0.00    +0.006 C 
ATOM     14  C   UNL     1      36.967 -19.103 -20.838  0.00  0.00    +0.015 C 
ATOM     15  C   UNL     1      33.454 -21.156 -19.584  0.00  0.00    +0.249 C 
ATOM     16  C   UNL     1      35.978 -21.696 -18.286  0.00  0.00    +0.252 C 
ATOM     17  C   UNL     1      33.538 -22.155 -18.469  0.00  0.00    +0.291 C 
ATOM     18  H   UNL     1      34.863 -22.986 -17.191  0.00  0.00    +0.158 HD
ENDBRANCH   2  11
BRANCH   3  19
ATOM     19  C   UNL     1      35.387 -15.877 -23.785  0.00  0.00    +0.095 C 
BRANCH  19  20
ATOM     20  C   UNL     1      34.020 -15.917 -24.464  0.00  0.00    +0.095 C 
BRANCH  20  23
ATOM     21  O   UNL     1      32.854 -14.067 -25.430  0.00  0.00    -0.275 OA
ATOM     22  N   UNL     1      33.328 -14.035 -23.128  0.00  0.00    -0.284 N 
ATOM     23  C   UNL     1      33.338 -14.559 -24.415  0.00  0.00    +0.227 C 
ATOM     24  H   UNL     1      33.750 -14.588 -22.431  0.00  0.00    +0.155 HD
BRANCH  22  25
ATOM     25  C   UNL     1      32.786 -12.802 -22.701  0.00  0.00    +0.053 C 
ATOM     26  C   UNL     1      33.082 -11.630 -23.398  0.00  0.00    +0.052 C 
ATOM     27  C   UNL     1      32.546 -10.413 -22.976  0.00  0.00    +0.140 C 
ATOM     28  C   UNL     1      31.954 -12.756 -21.582  0.00  0.00    +0.015 C 
ATOM     29  C   UNL     1      31.714 -10.368 -21.857  0.00  0.00    +0.037 C 
ATOM     30  C   UNL     1      31.418 -11.540 -21.160  0.00  0.00    +0.004 C 
BRANCH  27  31
ATOM     31  O   UNL     1      32.835  -9.269 -23.655  0.00  0.00    -0.472 OA
BRANCH  31  32
ATOM     32  C   UNL     1      32.512  -8.036 -23.016  0.00  0.00    +0.243 C 
BRANCH  32  34
ATOM     33  F   UNL     1      30.302  -7.972 -23.770  0.00  0.00    -0.230 F 
ATOM     34  C   UNL     1      31.487  -7.305 -23.854  0.00  0.00    +0.240 C 
ENDBRANCH  32  34
ENDBRANCH  31  32
ENDBRANCH  27  31
ENDBRANCH  22  25
ENDBRANCH  20  23
ENDBRANCH  19  20
ENDBRANCH   3  19
TORSDOF 8
ENDMDL
MODEL 9
REMARK VINA RESULT:     -11.3      1.998      3.250
REMARK  Name = 24883488
REMARK  8 active torsions:
REMARK  status: ('A' for Active; 'I' for Inactive)
REMARK    1  A    between atoms: N_2  and  C_11
REMARK    2  A    between atoms: C_3  and  C_19
REMARK    3  A    between atoms: C_19  and  C_20
REMARK    4  A    between atoms: C_20  and  C_23
REMARK    5  A    between atoms: N_22  and  C_25
REMARK    6  A    between atoms: C_27  and  O_31
REMARK    7  A    between atoms: O_31  and  C_32
REMARK    8  A    between atoms: C_32  and  C_34
REMARK                            x       y       z     vdW  Elec       q    Type
REMARK                         _______ _______ _______ _____ _____    ______ ____
ROOT
ATOM      1  O   UNL     1      34.818 -16.979 -20.773  0.00  0.00    -0.275 OA
ATOM      2  N   UNL     1      34.995 -19.148 -21.670  0.00  0.00    -0.284 N 
ATOM      3  C   UNL     1      35.136 -17.755 -21.669  0.00  0.00    +0.227 C 
ATOM      4  H   UNL     1      35.284 -19.608 -22.492  0.00  0.00    +0.155 HD
ENDROOT
BRANCH   2  11
ATOM      5  O   UNL     1      37.007 -21.876 -17.848  0.00  0.00    -0.282 OA
ATOM      6  O   UNL     1      31.742 -22.655 -17.456  0.00  0.00    -0.270 OA
ATOM      7  O   UNL     1      36.035 -23.429 -15.929  0.00  0.00    -0.266 OA
ATOM      8  N   UNL     1      33.876 -23.046 -16.692  0.00  0.00    -0.246 N 
ATOM      9  C   UNL     1      34.871 -21.393 -18.741  0.00  0.00    +0.049 C 
ATOM     10  C   UNL     1      33.497 -21.607 -18.623  0.00  0.00    +0.057 C 
ATOM     11  C   UNL     1      34.498 -19.968 -20.657  0.00  0.00    +0.050 C 
ATOM     12  C   UNL     1      35.375 -20.574 -19.757  0.00  0.00    +0.018 C 
ATOM     13  C   UNL     1      32.622 -20.997 -19.530  0.00  0.00    +0.006 C 
ATOM     14  C   UNL     1      33.124 -20.178 -20.543  0.00  0.00    +0.015 C 
ATOM     15  C   UNL     1      35.796 -22.029 -17.794  0.00  0.00    +0.249 C 
ATOM     16  C   UNL     1      32.951 -22.470 -17.556  0.00  0.00    +0.252 C 
ATOM     17  C   UNL     1      35.252 -22.907 -16.708  0.00  0.00    +0.291 C 
ATOM     18  H   UNL     1      33.507 -23.620 -15.982  0.00  0.00    +0.158 HD
ENDBRANCH   2  11
BRANCH   3  19
ATOM     19  C   UNL     1      35.721 -17.232 -22.971  0.00  0.00    +0.095 C 
BRANCH  19  20
ATOM     20  C   UNL     1      34.702 -17.308 -24.105  0.00  0.00    +0.095 C 
BRANCH  20  23
ATOM     21  O   UNL     1      33.492 -15.715 -25.413  0.00  0.00    -0.275 OA
ATOM     22  N   UNL     1      34.113 -15.146 -23.220  0.00  0.00    -0.284 N 
ATOM     23  C   UNL     1      34.036 -15.962 -24.342  0.00  0.00    +0.227 C 
ATOM     24  H   UNL     1      34.574 -15.527 -22.437  0.00  0.00    +0.155 HD
BRANCH  22  25
ATOM     25  C   UNL     1      33.609 -13.835 -23.068  0.00  0.00    +0.053 C 
ATOM     26  C   UNL     1      32.643 -13.566 -22.098  0.00  0.00    +0.052 C 
ATOM     27  C   UNL     1      32.145 -12.272 -21.948  0.00  0.00    +0.140 C 
ATOM     28  C   UNL     1      34.076 -12.809 -23.888  0.00  0.00    +0.015 C 
ATOM     29  C   UNL     1      32.614 -11.245 -22.770  0.00  0.00    +0.037 C 
ATOM     30  C   UNL     1      33.579 -11.514 -23.740  0.00  0.00    +0.004 C 
BRANCH  27  31
ATOM     31  O   UNL     1      31.202 -12.009 -21.002  0.00  0.00    -0.472 OA
BRANCH  31  32
ATOM     32  C   UNL     1      31.023 -10.645 -20.627  0.00  0.00    +0.243 C 
BRANCH  32  34
ATOM     33  F   UNL     1      32.078 -11.632 -18.791  0.00  0.00    -0.230 F 
ATOM     34  C   UNL     1      31.584 -10.443 -19.237  0.00  0.00    +0.240 C 
ENDBRANCH  32  34
ENDBRANCH  31  32
ENDBRANCH  27  31
ENDBRANCH  22  25
ENDBRANCH  20  23
ENDBRANCH  19  20
ENDBRANCH   3  19
TORSDOF 8
ENDMDL
