MODEL 1
REMARK VINA RESULT:     -12.2      0.000      0.000
REMARK  Name = 5288710
REMARK  3 active torsions:
REMARK  status: ('A' for Active; 'I' for Inactive)
REMARK    1  A    between atoms: C_6  and  N_18
REMARK    2  A    between atoms: C_9  and  C_15
REMARK    3  A    between atoms: N_18  and  C_29
REMARK                            x       y       z     vdW  Elec       q    Type
REMARK                         _______ _______ _______ _____ _____    ______ ____
ROOT
ATOM      1  O   UNL     1      34.938 -23.947 -15.642  0.00  0.00    -0.270 OA
ATOM      2  N   UNL     1      32.987 -24.074 -14.317  0.00  0.00    -0.280 N 
ATOM      3  C   UNL     1      31.451 -23.164 -15.767  0.00  0.00    +0.019 C 
ATOM      4  C   UNL     1      32.761 -23.178 -16.411  0.00  0.00    +0.069 C 
ATOM      5  C   UNL     1      31.645 -23.719 -14.500  0.00  0.00    +0.051 C 
ATOM      6  C   UNL     1      33.093 -22.752 -17.632  0.00  0.00    +0.066 C 
ATOM      7  C   UNL     1      33.749 -23.774 -15.451  0.00  0.00    +0.251 C 
ATOM      8  C   UNL     1      30.198 -22.740 -16.169  0.00  0.00    +0.005 C 
ATOM      9  C   UNL     1      29.140 -22.885 -15.266  0.00  0.00    +0.036 C 
ATOM     10  C   UNL     1      30.614 -23.872 -13.593  0.00  0.00    +0.015 C 
ATOM     11  C   UNL     1      29.345 -23.445 -13.990  0.00  0.00    +0.004 C 
ATOM     12  H   UNL     1      33.347 -24.482 -13.497  0.00  0.00    +0.155 HD
ENDROOT
BRANCH   9  15
ATOM     13  O   UNL     1      27.681 -21.997 -16.917  0.00  0.00    -0.431 OA
ATOM     14  N   UNL     1      25.668 -21.877 -15.893  0.00  0.00    -0.203 NA
ATOM     15  C   UNL     1      27.816 -22.452 -15.645  0.00  0.00    +0.166 C 
ATOM     16  C   UNL     1      26.603 -22.381 -15.025  0.00  0.00    +0.140 C 
ATOM     17  C   UNL     1      26.361 -21.671 -16.989  0.00  0.00    +0.285 C 
ENDBRANCH   9  15
BRANCH   6  18
ATOM     18  N   UNL     1      34.312 -22.771 -18.214  0.00  0.00    -0.311 N 
ATOM     19  H   UNL     1      34.812 -23.615 -18.128  0.00  0.00    +0.152 HD
BRANCH  18  29
ATOM     20  S   UNL     1      35.512 -18.033 -22.123  0.00  0.00    -0.002 S 
ATOM     21  O   UNL     1      35.719 -18.519 -23.473  0.00  0.00    -0.172 OA
ATOM     22  O   UNL     1      35.295 -16.627 -21.847  0.00  0.00    -0.172 OA
ATOM     23  C   UNL     1      34.171 -18.963 -21.398  0.00  0.00    +0.177 C 
ATOM     24  C   UNL     1      36.871 -18.602 -21.114  0.00  0.00    +0.177 C 
ATOM     25  C   UNL     1      34.879 -19.902 -20.482  0.00  0.00    +0.000 C 
ATOM     26  C   UNL     1      36.259 -19.718 -20.336  0.00  0.00    -0.001 C 
ATOM     27  C   UNL     1      34.228 -20.913 -19.777  0.00  0.00    +0.012 C 
ATOM     28  C   UNL     1      36.991 -20.544 -19.486  0.00  0.00    -0.002 C 
ATOM     29  C   UNL     1      34.962 -21.743 -18.929  0.00  0.00    +0.048 C 
ATOM     30  C   UNL     1      36.340 -21.559 -18.784  0.00  0.00    +0.014 C 
ENDBRANCH  18  29
ENDBRANCH   6  18
TORSDOF 3
ENDMDL
MODEL 2
REMARK VINA RESULT:     -11.5      5.776     10.033
REMARK  Name = 5288710
REMARK  3 active torsions:
REMARK  status: ('A' for Active; 'I' for Inactive)
REMARK    1  A    between atoms: C_6  and  N_18
REMARK    2  A    between atoms: C_9  and  C_15
REMARK    3  A    between atoms: N_18  and  C_29
REMARK                            x       y       z     vdW  Elec       q    Type
REMARK                         _______ _______ _______ _____ _____    ______ ____
ROOT
ATOM      1  O   UNL     1      35.008 -16.677 -24.832  0.00  0.00    -0.270 OA
ATOM      2  N   UNL     1      33.781 -14.658 -24.864  0.00  0.00    -0.280 N 
ATOM      3  C   UNL     1      33.688 -14.202 -22.612  0.00  0.00    +0.019 C 
ATOM      4  C   UNL     1      34.425 -15.445 -22.814  0.00  0.00    +0.069 C 
ATOM      5  C   UNL     1      33.321 -13.767 -23.889  0.00  0.00    +0.051 C 
ATOM      6  C   UNL     1      34.980 -16.243 -21.898  0.00  0.00    +0.066 C 
ATOM      7  C   UNL     1      34.475 -15.727 -24.288  0.00  0.00    +0.251 C 
ATOM      8  C   UNL     1      33.339 -13.474 -21.490  0.00  0.00    +0.005 C 
ATOM      9  C   UNL     1      32.610 -12.296 -21.677  0.00  0.00    +0.036 C 
ATOM     10  C   UNL     1      32.602 -12.605 -24.096  0.00  0.00    +0.015 C 
ATOM     11  C   UNL     1      32.245 -11.865 -22.967  0.00  0.00    +0.004 C 
ATOM     12  H   UNL     1      33.636 -14.546 -25.832  0.00  0.00    +0.155 HD
ENDROOT
BRANCH   9  15
ATOM     13  O   UNL     1      31.778 -10.253 -20.794  0.00  0.00    -0.431 OA
ATOM     14  N   UNL     1      31.718 -10.582 -18.557  0.00  0.00    -0.203 NA
ATOM     15  C   UNL     1      32.224 -11.508 -20.531  0.00  0.00    +0.166 C 
ATOM     16  C   UNL     1      32.189 -11.709 -19.181  0.00  0.00    +0.140 C 
ATOM     17  C   UNL     1      31.493  -9.761 -19.557  0.00  0.00    +0.285 C 
ENDBRANCH   9  15
BRANCH   6  18
ATOM     18  N   UNL     1      35.659 -17.392 -22.102  0.00  0.00    -0.311 N 
ATOM     19  H   UNL     1      36.185 -17.436 -22.932  0.00  0.00    +0.152 HD
BRANCH  18  29
ATOM     20  S   UNL     1      34.086 -22.437 -18.748  0.00  0.00    -0.002 S 
ATOM     21  O   UNL     1      33.581 -22.051 -17.445  0.00  0.00    -0.172 OA
ATOM     22  O   UNL     1      33.913 -23.780 -19.263  0.00  0.00    -0.172 OA
ATOM     23  C   UNL     1      33.447 -21.284 -19.953  0.00  0.00    +0.177 C 
ATOM     24  C   UNL     1      35.823 -22.028 -18.813  0.00  0.00    +0.177 C 
ATOM     25  C   UNL     1      34.626 -20.418 -20.239  0.00  0.00    +0.000 C 
ATOM     26  C   UNL     1      35.841 -20.798 -19.656  0.00  0.00    -0.001 C 
ATOM     27  C   UNL     1      34.562 -19.289 -21.053  0.00  0.00    +0.012 C 
ATOM     28  C   UNL     1      36.994 -20.050 -19.886  0.00  0.00    -0.002 C 
ATOM     29  C   UNL     1      35.716 -18.538 -21.280  0.00  0.00    +0.048 C 
ATOM     30  C   UNL     1      36.928 -18.918 -20.698  0.00  0.00    +0.014 C 
ENDBRANCH  18  29
ENDBRANCH   6  18
TORSDOF 3
ENDMDL
MODEL 3
REMARK VINA RESULT:     -10.9      3.517      8.962
REMARK  Name = 5288710
REMARK  3 active torsions:
REMARK  status: ('A' for Active; 'I' for Inactive)
REMARK    1  A    between atoms: C_6  and  N_18
REMARK    2  A    between atoms: C_9  and  C_15
REMARK    3  A    between atoms: N_18  and  C_29
REMARK                            x       y       z     vdW  Elec       q    Type
REMARK                         _______ _______ _______ _____ _____    ______ ____
ROOT
ATOM      1  O   UNL     1      36.321 -22.275 -17.440  0.00  0.00    -0.270 OA
ATOM      2  N   UNL     1      37.163 -20.542 -18.807  0.00  0.00    -0.280 N 
ATOM      3  C   UNL     1      35.437 -20.336 -20.312  0.00  0.00    +0.019 C 
ATOM      4  C   UNL     1      35.107 -21.385 -19.353  0.00  0.00    +0.069 C 
ATOM      5  C   UNL     1      36.694 -19.858 -19.934  0.00  0.00    +0.051 C 
ATOM      6  C   UNL     1      34.010 -22.145 -19.293  0.00  0.00    +0.066 C 
ATOM      7  C   UNL     1      36.244 -21.506 -18.380  0.00  0.00    +0.251 C 
ATOM      8  C   UNL     1      34.778 -19.804 -21.404  0.00  0.00    +0.005 C 
ATOM      9  C   UNL     1      35.411 -18.778 -22.113  0.00  0.00    +0.036 C 
ATOM     10  C   UNL     1      37.337 -18.845 -20.619  0.00  0.00    +0.015 C 
ATOM     11  C   UNL     1      36.678 -18.303 -21.724  0.00  0.00    +0.004 C 
ATOM     12  H   UNL     1      38.028 -20.367 -18.371  0.00  0.00    +0.155 HD
ENDROOT
BRANCH   9  15
ATOM     13  O   UNL     1      34.952 -16.866 -23.445  0.00  0.00    -0.431 OA
ATOM     14  N   UNL     1      33.620 -17.634 -25.105  0.00  0.00    -0.203 NA
ATOM     15  C   UNL     1      34.757 -18.196 -23.261  0.00  0.00    +0.166 C 
ATOM     16  C   UNL     1      33.954 -18.663 -24.261  0.00  0.00    +0.140 C 
ATOM     17  C   UNL     1      34.237 -16.603 -24.574  0.00  0.00    +0.285 C 
ENDBRANCH   9  15
BRANCH   6  18
ATOM     18  N   UNL     1      33.719 -23.113 -18.398  0.00  0.00    -0.311 N 
ATOM     19  H   UNL     1      34.139 -23.988 -18.565  0.00  0.00    +0.152 HD
BRANCH  18  29
ATOM     20  S   UNL     1      31.512 -23.633 -12.565  0.00  0.00    -0.002 S 
ATOM     21  O   UNL     1      30.986 -24.964 -12.331  0.00  0.00    -0.172 OA
ATOM     22  O   UNL     1      31.767 -22.715 -11.474  0.00  0.00    -0.172 OA
ATOM     23  C   UNL     1      33.006 -23.790 -13.531  0.00  0.00    +0.177 C 
ATOM     24  C   UNL     1      30.454 -22.821 -13.752  0.00  0.00    +0.177 C 
ATOM     25  C   UNL     1      32.562 -23.379 -14.893  0.00  0.00    +0.000 C 
ATOM     26  C   UNL     1      31.258 -22.883 -15.006  0.00  0.00    -0.001 C 
ATOM     27  C   UNL     1      33.383 -23.455 -16.016  0.00  0.00    +0.012 C 
ATOM     28  C   UNL     1      30.772 -22.463 -16.243  0.00  0.00    -0.002 C 
ATOM     29  C   UNL     1      32.895 -23.037 -17.255  0.00  0.00    +0.048 C 
ATOM     30  C   UNL     1      31.593 -22.543 -17.368  0.00  0.00    +0.014 C 
ENDBRANCH  18  29
ENDBRANCH   6  18
TORSDOF 3
ENDMDL
MODEL 4
REMARK VINA RESULT:     -10.7      6.437     10.632
REMARK  Name = 5288710
REMARK  3 active torsions:
REMARK  status: ('A' for Active; 'I' for Inactive)
REMARK    1  A    between atoms: C_6  and  N_18
REMARK    2  A    between atoms: C_9  and  C_15
REMARK    3  A    between atoms: N_18  and  C_29
REMARK                            x       y       z     vdW  Elec       q    Type
REMARK                         _______ _______ _______ _____ _____    ______ ____
ROOT
ATOM      1  O   UNL     1      33.845 -15.161 -25.512  0.00  0.00    -0.270 OA
ATOM      2  N   UNL     1      34.038 -17.465 -25.028  0.00  0.00    -0.280 N 
ATOM      3  C   UNL     1      34.884 -17.362 -22.892  0.00  0.00    +0.019 C 
ATOM      4  C   UNL     1      34.687 -16.005 -23.390  0.00  0.00    +0.069 C 
ATOM      5  C   UNL     1      34.474 -18.209 -23.926  0.00  0.00    +0.051 C 
ATOM      6  C   UNL     1      34.933 -14.847 -22.772  0.00  0.00    +0.066 C 
ATOM      7  C   UNL     1      34.135 -16.092 -24.783  0.00  0.00    +0.251 C 
ATOM      8  C   UNL     1      35.356 -17.880 -21.700  0.00  0.00    +0.005 C 
ATOM      9  C   UNL     1      35.408 -19.271 -21.568  0.00  0.00    +0.036 C 
ATOM     10  C   UNL     1      34.517 -19.585 -23.816  0.00  0.00    +0.015 C 
ATOM     11  C   UNL     1      34.993 -20.116 -22.614  0.00  0.00    +0.004 C 
ATOM     12  H   UNL     1      33.705 -17.858 -25.867  0.00  0.00    +0.155 HD
ENDROOT
BRANCH   9  15
ATOM     13  O   UNL     1      36.994 -19.263 -19.799  0.00  0.00    -0.431 OA
ATOM     14  N   UNL     1      36.372 -20.984 -18.469  0.00  0.00    -0.203 NA
ATOM     15  C   UNL     1      35.896 -19.851 -20.339  0.00  0.00    +0.166 C 
ATOM     16  C   UNL     1      35.518 -20.889 -19.538  0.00  0.00    +0.140 C 
ATOM     17  C   UNL     1      37.218 -20.001 -18.676  0.00  0.00    +0.285 C 
ENDBRANCH   9  15
BRANCH   6  18
ATOM     18  N   UNL     1      34.745 -13.597 -23.247  0.00  0.00    -0.311 N 
ATOM     19  H   UNL     1      35.392 -13.296 -23.926  0.00  0.00    +0.152 HD
BRANCH  18  29
ATOM     20  S   UNL     1      31.364  -8.354 -22.741  0.00  0.00    -0.002 S 
ATOM     21  O   UNL     1      31.936  -7.467 -21.746  0.00  0.00    -0.172 OA
ATOM     22  O   UNL     1      30.359  -7.897 -23.678  0.00  0.00    -0.172 OA
ATOM     23  C   UNL     1      32.704  -9.089 -23.664  0.00  0.00    +0.177 C 
ATOM     24  C   UNL     1      30.734  -9.797 -21.898  0.00  0.00    +0.177 C 
ATOM     25  C   UNL     1      32.770 -10.470 -23.107  0.00  0.00    +0.000 C 
ATOM     26  C   UNL     1      31.764 -10.833 -22.204  0.00  0.00    -0.001 C 
ATOM     27  C   UNL     1      33.761 -11.386 -23.457  0.00  0.00    +0.012 C 
ATOM     28  C   UNL     1      31.745 -12.111 -21.650  0.00  0.00    -0.002 C 
ATOM     29  C   UNL     1      33.744 -12.664 -22.899  0.00  0.00    +0.048 C 
ATOM     30  C   UNL     1      32.740 -13.026 -21.998  0.00  0.00    +0.014 C 
ENDBRANCH  18  29
ENDBRANCH   6  18
TORSDOF 3
ENDMDL
MODEL 5
REMARK VINA RESULT:     -10.6      3.396      6.777
REMARK  Name = 5288710
REMARK  3 active torsions:
REMARK  status: ('A' for Active; 'I' for Inactive)
REMARK    1  A    between atoms: C_6  and  N_18
REMARK    2  A    between atoms: C_9  and  C_15
REMARK    3  A    between atoms: N_18  and  C_29
REMARK                            x       y       z     vdW  Elec       q    Type
REMARK                         _______ _______ _______ _____ _____    ______ ____
ROOT
ATOM      1  O   UNL     1      32.101 -22.779 -15.030  0.00  0.00    -0.270 OA
ATOM      2  N   UNL     1      33.468 -23.591 -13.283  0.00  0.00    -0.280 N 
ATOM      3  C   UNL     1      35.386 -24.070 -14.457  0.00  0.00    +0.019 C 
ATOM      4  C   UNL     1      34.386 -23.541 -15.378  0.00  0.00    +0.069 C 
ATOM      5  C   UNL     1      34.777 -24.079 -13.199  0.00  0.00    +0.051 C 
ATOM      6  C   UNL     1      34.490 -23.340 -16.695  0.00  0.00    +0.066 C 
ATOM      7  C   UNL     1      33.142 -23.235 -14.595  0.00  0.00    +0.251 C 
ATOM      8  C   UNL     1      36.687 -24.510 -14.615  0.00  0.00    +0.005 C 
ATOM      9  C   UNL     1      37.366 -24.962 -13.478  0.00  0.00    +0.036 C 
ATOM     10  C   UNL     1      35.429 -24.520 -12.064  0.00  0.00    +0.015 C 
ATOM     11  C   UNL     1      36.744 -24.967 -12.215  0.00  0.00    +0.004 C 
ATOM     12  H   UNL     1      32.855 -23.510 -12.517  0.00  0.00    +0.155 HD
ENDROOT
BRANCH   9  15
ATOM     13  O   UNL     1      39.559 -24.653 -14.337  0.00  0.00    -0.431 OA
ATOM     14  N   UNL     1      40.724 -26.438 -13.580  0.00  0.00    -0.203 NA
ATOM     15  C   UNL     1      38.725 -25.431 -13.601  0.00  0.00    +0.166 C 
ATOM     16  C   UNL     1      39.426 -26.509 -13.142  0.00  0.00    +0.140 C 
ATOM     17  C   UNL     1      40.742 -25.325 -14.277  0.00  0.00    +0.285 C 
ENDBRANCH   9  15
BRANCH   6  18
ATOM     18  N   UNL     1      33.553 -22.849 -17.535  0.00  0.00    -0.311 N 
ATOM     19  H   UNL     1      32.646 -23.216 -17.424  0.00  0.00    +0.152 HD
BRANCH  18  29
ATOM     20  S   UNL     1      35.969 -18.615 -21.460  0.00  0.00    -0.002 S 
ATOM     21  O   UNL     1      36.120 -17.331 -20.802  0.00  0.00    -0.172 OA
ATOM     22  O   UNL     1      36.609 -18.899 -22.728  0.00  0.00    -0.172 OA
ATOM     23  C   UNL     1      36.429 -19.890 -20.298  0.00  0.00    +0.177 C 
ATOM     24  C   UNL     1      34.223 -18.952 -21.622  0.00  0.00    +0.177 C 
ATOM     25  C   UNL     1      35.111 -20.444 -19.877  0.00  0.00    +0.000 C 
ATOM     26  C   UNL     1      33.982 -19.965 -20.553  0.00  0.00    -0.001 C 
ATOM     27  C   UNL     1      34.972 -21.403 -18.875  0.00  0.00    +0.012 C 
ATOM     28  C   UNL     1      32.715 -20.444 -20.230  0.00  0.00    -0.002 C 
ATOM     29  C   UNL     1      33.702 -21.880 -18.549  0.00  0.00    +0.048 C 
ATOM     30  C   UNL     1      32.577 -21.401 -19.225  0.00  0.00    +0.014 C 
ENDBRANCH  18  29
ENDBRANCH   6  18
TORSDOF 3
ENDMDL
MODEL 6
REMARK VINA RESULT:     -10.6      4.140      6.808
REMARK  Name = 5288710
REMARK  3 active torsions:
REMARK  status: ('A' for Active; 'I' for Inactive)
REMARK    1  A    between atoms: C_6  and  N_18
REMARK    2  A    between atoms: C_9  and  C_15
REMARK    3  A    between atoms: N_18  and  C_29
REMARK                            x       y       z     vdW  Elec       q    Type
REMARK                         _______ _______ _______ _____ _____    ______ ____
ROOT
ATOM      1  O   UNL     1      33.260 -19.651 -21.600  0.00  0.00    -0.270 OA
ATOM      2  N   UNL     1      32.877 -21.194 -19.853  0.00  0.00    -0.280 N 
ATOM      3  C   UNL     1      34.961 -21.233 -18.881  0.00  0.00    +0.019 C 
ATOM      4  C   UNL     1      34.983 -20.314 -20.014  0.00  0.00    +0.069 C 
ATOM      5  C   UNL     1      33.659 -21.739 -18.828  0.00  0.00    +0.051 C 
ATOM      6  C   UNL     1      36.002 -19.583 -20.474  0.00  0.00    +0.066 C 
ATOM      7  C   UNL     1      33.617 -20.302 -20.635  0.00  0.00    +0.251 C 
ATOM      8  C   UNL     1      35.912 -21.633 -17.961  0.00  0.00    +0.005 C 
ATOM      9  C   UNL     1      35.527 -22.556 -16.984  0.00  0.00    +0.036 C 
ATOM     10  C   UNL     1      33.257 -22.650 -17.871  0.00  0.00    +0.015 C 
ATOM     11  C   UNL     1      34.213 -23.060 -16.938  0.00  0.00    +0.004 C 
ATOM     12  H   UNL     1      31.928 -21.411 -20.003  0.00  0.00    +0.155 HD
ENDROOT
BRANCH   9  15
ATOM     13  O   UNL     1      36.215 -24.180 -15.391  0.00  0.00    -0.431 OA
ATOM     14  N   UNL     1      38.169 -23.385 -14.575  0.00  0.00    -0.203 NA
ATOM     15  C   UNL     1      36.491 -23.001 -16.005  0.00  0.00    +0.166 C 
ATOM     16  C   UNL     1      37.670 -22.519 -15.515  0.00  0.00    +0.140 C 
ATOM     17  C   UNL     1      37.270 -24.342 -14.546  0.00  0.00    +0.285 C 
ENDBRANCH   9  15
BRANCH   6  18
ATOM     18  N   UNL     1      36.007 -18.736 -21.525  0.00  0.00    -0.311 N 
ATOM     19  H   UNL     1      36.470 -19.060 -22.332  0.00  0.00    +0.152 HD
BRANCH  18  29
ATOM     20  S   UNL     1      33.556 -13.427 -23.755  0.00  0.00    -0.002 S 
ATOM     21  O   UNL     1      34.600 -12.532 -24.215  0.00  0.00    -0.172 OA
ATOM     22  O   UNL     1      32.164 -13.210 -24.096  0.00  0.00    -0.172 OA
ATOM     23  C   UNL     1      34.001 -15.089 -24.233  0.00  0.00    +0.177 C 
ATOM     24  C   UNL     1      33.687 -13.564 -21.980  0.00  0.00    +0.177 C 
ATOM     25  C   UNL     1      34.471 -15.686 -22.951  0.00  0.00    +0.000 C 
ATOM     26  C   UNL     1      34.311 -14.907 -21.798  0.00  0.00    -0.001 C 
ATOM     27  C   UNL     1      35.032 -16.958 -22.864  0.00  0.00    +0.012 C 
ATOM     28  C   UNL     1      34.711 -15.399 -20.558  0.00  0.00    -0.002 C 
ATOM     29  C   UNL     1      35.436 -17.449 -21.622  0.00  0.00    +0.048 C 
ATOM     30  C   UNL     1      35.276 -16.672 -20.472  0.00  0.00    +0.014 C 
ENDBRANCH  18  29
ENDBRANCH   6  18
TORSDOF 3
ENDMDL
MODEL 7
REMARK VINA RESULT:     -10.5      2.656      5.381
REMARK  Name = 5288710
REMARK  3 active torsions:
REMARK  status: ('A' for Active; 'I' for Inactive)
REMARK    1  A    between atoms: C_6  and  N_18
REMARK    2  A    between atoms: C_9  and  C_15
REMARK    3  A    between atoms: N_18  and  C_29
REMARK                            x       y       z     vdW  Elec       q    Type
REMARK                         _______ _______ _______ _____ _____    ______ ____
ROOT
ATOM      1  O   UNL     1      31.571 -22.411 -17.497  0.00  0.00    -0.270 OA
ATOM      2  N   UNL     1      31.636 -23.138 -15.250  0.00  0.00    -0.280 N 
ATOM      3  C   UNL     1      33.890 -23.528 -15.013  0.00  0.00    +0.019 C 
ATOM      4  C   UNL     1      33.629 -23.058 -16.370  0.00  0.00    +0.069 C 
ATOM      5  C   UNL     1      32.646 -23.557 -14.377  0.00  0.00    +0.051 C 
ATOM      6  C   UNL     1      34.499 -22.863 -17.365  0.00  0.00    +0.066 C 
ATOM      7  C   UNL     1      32.155 -22.810 -16.506  0.00  0.00    +0.251 C 
ATOM      8  C   UNL     1      35.037 -23.902 -14.339  0.00  0.00    +0.005 C 
ATOM      9  C   UNL     1      34.908 -24.309 -13.008  0.00  0.00    +0.036 C 
ATOM     10  C   UNL     1      32.496 -23.955 -13.062  0.00  0.00    +0.015 C 
ATOM     11  C   UNL     1      33.651 -24.336 -12.375  0.00  0.00    +0.004 C 
ATOM     12  H   UNL     1      30.682 -23.081 -15.010  0.00  0.00    +0.155 HD
ENDROOT
BRANCH   9  15
ATOM     13  O   UNL     1      36.889 -25.616 -12.880  0.00  0.00    -0.431 OA
ATOM     14  N   UNL     1      37.783 -25.099 -10.867  0.00  0.00    -0.203 NA
ATOM     15  C   UNL     1      36.082 -24.710 -12.269  0.00  0.00    +0.166 C 
ATOM     16  C   UNL     1      36.619 -24.396 -11.055  0.00  0.00    +0.140 C 
ATOM     17  C   UNL     1      37.889 -25.798 -11.974  0.00  0.00    +0.285 C 
ENDBRANCH   9  15
BRANCH   6  18
ATOM     18  N   UNL     1      34.242 -22.428 -18.617  0.00  0.00    -0.311 N 
ATOM     19  H   UNL     1      33.511 -22.890 -19.088  0.00  0.00    +0.152 HD
BRANCH  18  29
ATOM     20  S   UNL     1      35.339 -17.523 -22.347  0.00  0.00    -0.002 S 
ATOM     21  O   UNL     1      35.360 -17.930 -23.739  0.00  0.00    -0.172 OA
ATOM     22  O   UNL     1      35.256 -16.129 -21.964  0.00  0.00    -0.172 OA
ATOM     23  C   UNL     1      34.023 -18.412 -21.530  0.00  0.00    +0.177 C 
ATOM     24  C   UNL     1      36.757 -18.246 -21.537  0.00  0.00    +0.177 C 
ATOM     25  C   UNL     1      34.759 -19.455 -20.759  0.00  0.00    +0.000 C 
ATOM     26  C   UNL     1      36.156 -19.370 -20.763  0.00  0.00    -0.001 C 
ATOM     27  C   UNL     1      34.119 -20.467 -20.046  0.00  0.00    +0.012 C 
ATOM     28  C   UNL     1      36.917 -20.298 -20.054  0.00  0.00    -0.002 C 
ATOM     29  C   UNL     1      34.881 -21.398 -19.340  0.00  0.00    +0.048 C 
ATOM     30  C   UNL     1      36.276 -21.314 -19.343  0.00  0.00    +0.014 C 
ENDBRANCH  18  29
ENDBRANCH   6  18
TORSDOF 3
ENDMDL
MODEL 8
REMARK VINA RESULT:     -10.5      3.439      5.787
REMARK  Name = 5288710
REMARK  3 active torsions:
REMARK  status: ('A' for Active; 'I' for Inactive)
REMARK    1  A    between atoms: C_6  and  N_18
REMARK    2  A    between atoms: C_9  and  C_15
REMARK    3  A    between atoms: N_18  and  C_29
REMARK                            x       y       z     vdW  Elec       q    Type
REMARK                         _______ _______ _______ _____ _____    ______ ____
ROOT
ATOM      1  O   UNL     1      32.657 -21.697 -19.997  0.00  0.00    -0.270 OA
ATOM      2  N   UNL     1      32.443 -22.461 -17.772  0.00  0.00    -0.280 N 
ATOM      3  C   UNL     1      34.657 -22.530 -17.151  0.00  0.00    +0.019 C 
ATOM      4  C   UNL     1      34.565 -22.071 -18.533  0.00  0.00    +0.069 C 
ATOM      5  C   UNL     1      33.340 -22.752 -16.738  0.00  0.00    +0.051 C 
ATOM      6  C   UNL     1      35.554 -21.730 -19.365  0.00  0.00    +0.066 C 
ATOM      7  C   UNL     1      33.116 -22.032 -18.921  0.00  0.00    +0.251 C 
ATOM      8  C   UNL     1      35.715 -22.753 -16.290  0.00  0.00    +0.005 C 
ATOM      9  C   UNL     1      35.422 -23.205 -15.000  0.00  0.00    +0.036 C 
ATOM     10  C   UNL     1      33.029 -23.198 -15.468  0.00  0.00    +0.015 C 
ATOM     11  C   UNL     1      34.093 -23.426 -14.592  0.00  0.00    +0.004 C 
ATOM     12  H   UNL     1      31.465 -22.547 -17.700  0.00  0.00    +0.155 HD
ENDROOT
BRANCH   9  15
ATOM     13  O   UNL     1      36.260 -23.107 -12.779  0.00  0.00    -0.431 OA
ATOM     14  N   UNL     1      38.349 -23.964 -12.920  0.00  0.00    -0.203 NA
ATOM     15  C   UNL     1      36.499 -23.451 -14.070  0.00  0.00    +0.166 C 
ATOM     16  C   UNL     1      37.758 -23.969 -14.158  0.00  0.00    +0.140 C 
ATOM     17  C   UNL     1      37.419 -23.446 -12.150  0.00  0.00    +0.285 C 
ENDBRANCH   9  15
BRANCH   6  18
ATOM     18  N   UNL     1      35.453 -21.306 -20.643  0.00  0.00    -0.311 N 
ATOM     19  H   UNL     1      35.408 -22.014 -21.325  0.00  0.00    +0.152 HD
BRANCH  18  29
ATOM     20  S   UNL     1      34.487 -16.292 -24.262  0.00  0.00    -0.002 S 
ATOM     21  O   UNL     1      35.536 -16.165 -25.256  0.00  0.00    -0.172 OA
ATOM     22  O   UNL     1      33.254 -15.538 -24.359  0.00  0.00    -0.172 OA
ATOM     23  C   UNL     1      34.079 -18.024 -24.106  0.00  0.00    +0.177 C 
ATOM     24  C   UNL     1      35.207 -15.993 -22.656  0.00  0.00    +0.177 C 
ATOM     25  C   UNL     1      34.736 -18.403 -22.823  0.00  0.00    +0.000 C 
ATOM     26  C   UNL     1      35.313 -17.366 -22.082  0.00  0.00    -0.001 C 
ATOM     27  C   UNL     1      34.779 -19.712 -22.348  0.00  0.00    +0.012 C 
ATOM     28  C   UNL     1      35.934 -17.635 -20.864  0.00  0.00    -0.002 C 
ATOM     29  C   UNL     1      35.403 -19.983 -21.130  0.00  0.00    +0.048 C 
ATOM     30  C   UNL     1      35.979 -18.947 -20.390  0.00  0.00    +0.014 C 
ENDBRANCH  18  29
ENDBRANCH   6  18
TORSDOF 3
ENDMDL
MODEL 9
REMARK VINA RESULT:     -10.4      2.414      3.881
REMARK  Name = 5288710
REMARK  3 active torsions:
REMARK  status: ('A' for Active; 'I' for Inactive)
REMARK    1  A    between atoms: C_6  and  N_18
REMARK    2  A    between atoms: C_9  and  C_15
REMARK    3  A    between atoms: N_18  and  C_29
REMARK                            x       y       z     vdW  Elec       q    Type
REMARK                         _______ _______ _______ _____ _____    ______ ____
ROOT
ATOM      1  O   UNL     1      37.236 -21.268 -18.991  0.00  0.00    -0.270 OA
ATOM      2  N   UNL     1      36.275 -22.258 -17.073  0.00  0.00    -0.280 N 
ATOM      3  C   UNL     1      34.055 -22.234 -17.672  0.00  0.00    +0.019 C 
ATOM      4  C   UNL     1      34.843 -21.648 -18.751  0.00  0.00    +0.069 C 
ATOM      5  C   UNL     1      34.973 -22.587 -16.679  0.00  0.00    +0.051 C 
ATOM      6  C   UNL     1      34.422 -21.157 -19.919  0.00  0.00    +0.066 C 
ATOM      7  C   UNL     1      36.288 -21.672 -18.343  0.00  0.00    +0.251 C 
ATOM      8  C   UNL     1      32.703 -22.467 -17.499  0.00  0.00    +0.005 C 
ATOM      9  C   UNL     1      32.291 -23.064 -16.304  0.00  0.00    +0.036 C 
ATOM     10  C   UNL     1      34.588 -23.178 -15.492  0.00  0.00    +0.015 C 
ATOM     11  C   UNL     1      33.224 -23.417 -15.309  0.00  0.00    +0.004 C 
ATOM     12  H   UNL     1      37.078 -22.419 -16.527  0.00  0.00    +0.155 HD
ENDROOT
BRANCH   9  15
ATOM     13  O   UNL     1      30.024 -22.468 -16.688  0.00  0.00    -0.431 OA
ATOM     14  N   UNL     1      28.828 -24.009 -15.542  0.00  0.00    -0.203 NA
ATOM     15  C   UNL     1      30.888 -23.323 -16.084  0.00  0.00    +0.166 C 
ATOM     16  C   UNL     1      30.170 -24.254 -15.392  0.00  0.00    +0.140 C 
ATOM     17  C   UNL     1      28.805 -22.947 -16.314  0.00  0.00    +0.285 C 
ENDBRANCH   9  15
BRANCH   6  18
ATOM     18  N   UNL     1      35.165 -20.617 -20.909  0.00  0.00    -0.311 N 
ATOM     19  H   UNL     1      35.908 -21.173 -21.236  0.00  0.00    +0.152 HD
BRANCH  18  29
ATOM     20  S   UNL     1      34.304 -14.504 -21.941  0.00  0.00    -0.002 S 
ATOM     21  O   UNL     1      32.895 -14.167 -21.890  0.00  0.00    -0.172 OA
ATOM     22  O   UNL     1      35.331 -13.483 -21.905  0.00  0.00    -0.172 OA
ATOM     23  C   UNL     1      34.639 -15.686 -20.645  0.00  0.00    +0.177 C 
ATOM     24  C   UNL     1      34.578 -15.528 -23.378  0.00  0.00    +0.177 C 
ATOM     25  C   UNL     1      34.754 -16.971 -21.392  0.00  0.00    +0.000 C 
ATOM     26  C   UNL     1      34.723 -16.891 -22.789  0.00  0.00    -0.001 C 
ATOM     27  C   UNL     1      34.903 -18.206 -20.764  0.00  0.00    +0.012 C 
ATOM     28  C   UNL     1      34.841 -18.045 -23.561  0.00  0.00    -0.002 C 
ATOM     29  C   UNL     1      35.017 -19.362 -21.537  0.00  0.00    +0.048 C 
ATOM     30  C   UNL     1      34.986 -19.281 -22.931  0.00  0.00    +0.014 C 
ENDBRANCH  18  29
ENDBRANCH   6  18
TORSDOF 3
ENDMDL
