MODEL 1
REMARK VINA RESULT:     -10.3      0.000      0.000
REMARK  Name = 68942
REMARK  1 active torsions:
REMARK  status: ('A' for Active; 'I' for Inactive)
REMARK    1  A    between atoms: C_3  and  C_13
REMARK                            x       y       z     vdW  Elec       q    Type
REMARK                         _______ _______ _______ _____ _____    ______ ____
ROOT
ATOM      1  O   UNL     1      35.825 -17.020 -20.248  0.00  0.00    -0.291 OA
ATOM      2  O   UNL     1      34.935 -20.030 -23.807  0.00  0.00    -0.291 OA
ATOM      3  C   UNL     1      35.669 -18.992 -21.703  0.00  0.00    +0.146 C 
ATOM      4  C   UNL     1      35.537 -17.527 -21.315  0.00  0.00    +0.184 C 
ATOM      5  C   UNL     1      35.089 -19.045 -23.109  0.00  0.00    +0.184 C 
ATOM      6  C   UNL     1      34.989 -16.799 -22.461  0.00  0.00    +0.038 C 
ATOM      7  C   UNL     1      34.728 -17.682 -23.505  0.00  0.00    +0.038 C 
ATOM      8  C   UNL     1      34.728 -15.447 -22.573  0.00  0.00    +0.003 C 
ATOM      9  C   UNL     1      34.195 -17.252 -24.704  0.00  0.00    +0.003 C 
ATOM     10  C   UNL     1      34.191 -14.992 -23.780  0.00  0.00    +0.000 C 
ATOM     11  C   UNL     1      33.927 -15.887 -24.836  0.00  0.00    +0.000 C 
ENDROOT
BRANCH   3  13
ATOM     12  F   UNL     1      32.901 -22.369 -18.163  0.00  0.00    -0.204 F 
ATOM     13  C   UNL     1      34.936 -19.884 -20.766  0.00  0.00    -0.008 C 
ATOM     14  C   UNL     1      33.548 -19.785 -20.642  0.00  0.00    -0.001 C 
ATOM     15  C   UNL     1      35.633 -20.828 -20.006  0.00  0.00    -0.001 C 
ATOM     16  C   UNL     1      32.862 -20.624 -19.763  0.00  0.00    +0.029 C 
ATOM     17  C   UNL     1      34.946 -21.666 -19.128  0.00  0.00    +0.029 C 
ATOM     18  C   UNL     1      33.560 -21.564 -19.007  0.00  0.00    +0.140 C 
ENDBRANCH   3  13
TORSDOF 1
ENDMDL
MODEL 2
REMARK VINA RESULT:     -10.0      2.685      5.941
REMARK  Name = 68942
REMARK  1 active torsions:
REMARK  status: ('A' for Active; 'I' for Inactive)
REMARK    1  A    between atoms: C_3  and  C_13
REMARK                            x       y       z     vdW  Elec       q    Type
REMARK                         _______ _______ _______ _____ _____    ______ ____
ROOT
ATOM      1  O   UNL     1      33.327 -19.794 -21.863  0.00  0.00    -0.291 OA
ATOM      2  O   UNL     1      37.819 -18.760 -20.731  0.00  0.00    -0.291 OA
ATOM      3  C   UNL     1      35.626 -18.929 -21.829  0.00  0.00    +0.146 C 
ATOM      4  C   UNL     1      34.439 -19.764 -21.372  0.00  0.00    +0.184 C 
ATOM      5  C   UNL     1      36.704 -19.243 -20.802  0.00  0.00    +0.184 C 
ATOM      6  C   UNL     1      34.856 -20.550 -20.207  0.00  0.00    +0.038 C 
ATOM      7  C   UNL     1      36.173 -20.247 -19.876  0.00  0.00    +0.038 C 
ATOM      8  C   UNL     1      34.118 -21.465 -19.483  0.00  0.00    +0.003 C 
ATOM      9  C   UNL     1      36.809 -20.845 -18.805  0.00  0.00    +0.003 C 
ATOM     10  C   UNL     1      34.745 -22.082 -18.397  0.00  0.00    +0.000 C 
ATOM     11  C   UNL     1      36.078 -21.775 -18.062  0.00  0.00    +0.000 C 
ENDROOT
BRANCH   3  13
ATOM     12  F   UNL     1      34.401 -13.446 -21.985  0.00  0.00    -0.204 F 
ATOM     13  C   UNL     1      35.303 -17.479 -21.871  0.00  0.00    -0.008 C 
ATOM     14  C   UNL     1      35.221 -16.813 -23.096  0.00  0.00    -0.001 C 
ATOM     15  C   UNL     1      35.079 -16.775 -20.684  0.00  0.00    -0.001 C 
ATOM     16  C   UNL     1      34.917 -15.451 -23.134  0.00  0.00    +0.029 C 
ATOM     17  C   UNL     1      34.774 -15.415 -20.723  0.00  0.00    +0.029 C 
ATOM     18  C   UNL     1      34.693 -14.753 -21.948  0.00  0.00    +0.140 C 
ENDBRANCH   3  13
TORSDOF 1
ENDMDL
MODEL 3
REMARK VINA RESULT:      -8.8      3.428      7.238
REMARK  Name = 68942
REMARK  1 active torsions:
REMARK  status: ('A' for Active; 'I' for Inactive)
REMARK    1  A    between atoms: C_3  and  C_13
REMARK                            x       y       z     vdW  Elec       q    Type
REMARK                         _______ _______ _______ _____ _____    ______ ____
ROOT
ATOM      1  O   UNL     1      32.948 -22.586 -19.563  0.00  0.00    -0.291 OA
ATOM      2  O   UNL     1      37.093 -21.904 -17.354  0.00  0.00    -0.291 OA
ATOM      3  C   UNL     1      35.313 -22.197 -19.024  0.00  0.00    +0.146 C 
ATOM      4  C   UNL     1      33.851 -22.517 -18.751  0.00  0.00    +0.184 C 
ATOM      5  C   UNL     1      35.941 -22.173 -17.638  0.00  0.00    +0.184 C 
ATOM      6  C   UNL     1      33.692 -22.731 -17.311  0.00  0.00    +0.038 C 
ATOM      7  C   UNL     1      34.908 -22.531 -16.663  0.00  0.00    +0.038 C 
ATOM      8  C   UNL     1      32.547 -23.072 -16.616  0.00  0.00    +0.003 C 
ATOM      9  C   UNL     1      35.031 -22.662 -15.294  0.00  0.00    +0.003 C 
ATOM     10  C   UNL     1      32.653 -23.210 -15.230  0.00  0.00    +0.000 C 
ATOM     11  C   UNL     1      33.884 -23.008 -14.575  0.00  0.00    +0.000 C 
ENDROOT
BRANCH   3  13
ATOM     12  F   UNL     1      35.930 -17.293 -21.701  0.00  0.00    -0.204 F 
ATOM     13  C   UNL     1      35.476 -20.899 -19.731  0.00  0.00    -0.008 C 
ATOM     14  C   UNL     1      36.746 -20.333 -19.874  0.00  0.00    -0.001 C 
ATOM     15  C   UNL     1      34.361 -20.241 -20.256  0.00  0.00    -0.001 C 
ATOM     16  C   UNL     1      36.898 -19.115 -20.539  0.00  0.00    +0.029 C 
ATOM     17  C   UNL     1      34.515 -19.024 -20.921  0.00  0.00    +0.029 C 
ATOM     18  C   UNL     1      35.784 -18.461 -21.062  0.00  0.00    +0.140 C 
ENDBRANCH   3  13
TORSDOF 1
ENDMDL
MODEL 4
REMARK VINA RESULT:      -8.8      9.079     10.972
REMARK  Name = 68942
REMARK  1 active torsions:
REMARK  status: ('A' for Active; 'I' for Inactive)
REMARK    1  A    between atoms: C_3  and  C_13
REMARK                            x       y       z     vdW  Elec       q    Type
REMARK                         _______ _______ _______ _____ _____    ______ ____
ROOT
ATOM      1  O   UNL     1      34.908 -24.258 -16.043  0.00  0.00    -0.291 OA
ATOM      2  O   UNL     1      34.454 -23.623 -11.362  0.00  0.00    -0.291 OA
ATOM      3  C   UNL     1      34.248 -23.484 -13.807  0.00  0.00    +0.146 C 
ATOM      4  C   UNL     1      35.056 -24.261 -14.836  0.00  0.00    +0.184 C 
ATOM      5  C   UNL     1      34.827 -23.941 -12.476  0.00  0.00    +0.184 C 
ATOM      6  C   UNL     1      36.069 -25.043 -14.124  0.00  0.00    +0.038 C 
ATOM      7  C   UNL     1      35.936 -24.856 -12.751  0.00  0.00    +0.038 C 
ATOM      8  C   UNL     1      37.040 -25.871 -14.653  0.00  0.00    +0.003 C 
ATOM      9  C   UNL     1      36.767 -25.491 -11.848  0.00  0.00    +0.003 C 
ATOM     10  C   UNL     1      37.892 -26.520 -13.755  0.00  0.00    +0.000 C 
ATOM     11  C   UNL     1      37.756 -26.331 -12.365  0.00  0.00    +0.000 C 
ENDROOT
BRANCH   3  13
ATOM     12  F   UNL     1      28.748 -24.577 -14.195  0.00  0.00    -0.204 F 
ATOM     13  C   UNL     1      32.793 -23.772 -13.909  0.00  0.00    -0.008 C 
ATOM     14  C   UNL     1      31.922 -22.814 -14.434  0.00  0.00    -0.001 C 
ATOM     15  C   UNL     1      32.290 -25.004 -13.481  0.00  0.00    -0.001 C 
ATOM     16  C   UNL     1      30.557 -23.086 -14.530  0.00  0.00    +0.029 C 
ATOM     17  C   UNL     1      30.925 -25.275 -13.578  0.00  0.00    +0.029 C 
ATOM     18  C   UNL     1      30.058 -24.315 -14.103  0.00  0.00    +0.140 C 
ENDBRANCH   3  13
TORSDOF 1
ENDMDL
MODEL 5
REMARK VINA RESULT:      -8.7      7.546     10.482
REMARK  Name = 68942
REMARK  1 active torsions:
REMARK  status: ('A' for Active; 'I' for Inactive)
REMARK    1  A    between atoms: C_3  and  C_13
REMARK                            x       y       z     vdW  Elec       q    Type
REMARK                         _______ _______ _______ _____ _____    ______ ____
ROOT
ATOM      1  O   UNL     1      30.379 -10.807 -19.918  0.00  0.00    -0.291 OA
ATOM      2  O   UNL     1      32.864 -10.477 -23.947  0.00  0.00    -0.291 OA
ATOM      3  C   UNL     1      31.265 -10.144 -22.111  0.00  0.00    +0.146 C 
ATOM      4  C   UNL     1      31.111 -11.007 -20.868  0.00  0.00    +0.184 C 
ATOM      5  C   UNL     1      32.364 -10.841 -22.899  0.00  0.00    +0.184 C 
ATOM      6  C   UNL     1      32.016 -12.153 -20.993  0.00  0.00    +0.038 C 
ATOM      7  C   UNL     1      32.745 -12.056 -22.175  0.00  0.00    +0.038 C 
ATOM      8  C   UNL     1      32.190 -13.207 -20.118  0.00  0.00    +0.003 C 
ATOM      9  C   UNL     1      33.679 -13.008 -22.532  0.00  0.00    +0.003 C 
ATOM     10  C   UNL     1      33.131 -14.181 -20.462  0.00  0.00    +0.000 C 
ATOM     11  C   UNL     1      33.868 -14.082 -21.659  0.00  0.00    +0.000 C 
ENDROOT
BRANCH   3  13
ATOM     12  F   UNL     1      32.627  -4.843 -20.833  0.00  0.00    -0.204 F 
ATOM     13  C   UNL     1      31.626  -8.742 -21.774  0.00  0.00    -0.008 C 
ATOM     14  C   UNL     1      31.076  -7.681 -22.499  0.00  0.00    -0.001 C 
ATOM     15  C   UNL     1      32.516  -8.478 -20.729  0.00  0.00    -0.001 C 
ATOM     16  C   UNL     1      31.415  -6.365 -22.181  0.00  0.00    +0.029 C 
ATOM     17  C   UNL     1      32.853  -7.162 -20.412  0.00  0.00    +0.029 C 
ATOM     18  C   UNL     1      32.302  -6.106 -21.138  0.00  0.00    +0.140 C 
ENDBRANCH   3  13
TORSDOF 1
ENDMDL
MODEL 6
REMARK VINA RESULT:      -8.7      7.545     10.535
REMARK  Name = 68942
REMARK  1 active torsions:
REMARK  status: ('A' for Active; 'I' for Inactive)
REMARK    1  A    between atoms: C_3  and  C_13
REMARK                            x       y       z     vdW  Elec       q    Type
REMARK                         _______ _______ _______ _____ _____    ______ ____
ROOT
ATOM      1  O   UNL     1      30.412 -10.801 -19.902  0.00  0.00    -0.291 OA
ATOM      2  O   UNL     1      32.844 -10.472 -23.965  0.00  0.00    -0.291 OA
ATOM      3  C   UNL     1      31.269 -10.138 -22.107  0.00  0.00    +0.146 C 
ATOM      4  C   UNL     1      31.132 -11.001 -20.862  0.00  0.00    +0.184 C 
ATOM      5  C   UNL     1      32.358 -10.836 -22.910  0.00  0.00    +0.184 C 
ATOM      6  C   UNL     1      32.035 -12.147 -20.999  0.00  0.00    +0.038 C 
ATOM      7  C   UNL     1      32.748 -12.051 -22.191  0.00  0.00    +0.038 C 
ATOM      8  C   UNL     1      32.221 -13.200 -20.126  0.00  0.00    +0.003 C 
ATOM      9  C   UNL     1      33.678 -13.002 -22.559  0.00  0.00    +0.003 C 
ATOM     10  C   UNL     1      33.157 -14.175 -20.483  0.00  0.00    +0.000 C 
ATOM     11  C   UNL     1      33.879 -14.077 -21.689  0.00  0.00    +0.000 C 
ENDROOT
BRANCH   3  13
ATOM     12  F   UNL     1      32.653  -4.836 -20.859  0.00  0.00    -0.204 F 
ATOM     13  C   UNL     1      31.634  -8.736 -21.776  0.00  0.00    -0.008 C 
ATOM     14  C   UNL     1      32.518  -8.470 -20.727  0.00  0.00    -0.001 C 
ATOM     15  C   UNL     1      31.097  -7.678 -22.513  0.00  0.00    -0.001 C 
ATOM     16  C   UNL     1      32.861  -7.153 -20.417  0.00  0.00    +0.029 C 
ATOM     17  C   UNL     1      31.441  -6.362 -22.204  0.00  0.00    +0.029 C 
ATOM     18  C   UNL     1      32.323  -6.100 -21.155  0.00  0.00    +0.140 C 
ENDBRANCH   3  13
TORSDOF 1
ENDMDL
MODEL 7
REMARK VINA RESULT:      -8.7      4.119      6.362
REMARK  Name = 68942
REMARK  1 active torsions:
REMARK  status: ('A' for Active; 'I' for Inactive)
REMARK    1  A    between atoms: C_3  and  C_13
REMARK                            x       y       z     vdW  Elec       q    Type
REMARK                         _______ _______ _______ _____ _____    ______ ____
ROOT
ATOM      1  O   UNL     1      33.204 -14.313 -20.202  0.00  0.00    -0.291 OA
ATOM      2  O   UNL     1      34.431 -12.000 -24.160  0.00  0.00    -0.291 OA
ATOM      3  C   UNL     1      34.342 -13.516 -22.228  0.00  0.00    +0.146 C 
ATOM      4  C   UNL     1      33.302 -13.519 -21.118  0.00  0.00    +0.184 C 
ATOM      5  C   UNL     1      33.921 -12.353 -23.114  0.00  0.00    +0.184 C 
ATOM      6  C   UNL     1      32.403 -12.382 -21.333  0.00  0.00    +0.038 C 
ATOM      7  C   UNL     1      32.763 -11.703 -22.494  0.00  0.00    +0.038 C 
ATOM      8  C   UNL     1      31.332 -11.978 -20.560  0.00  0.00    +0.003 C 
ATOM      9  C   UNL     1      32.068 -10.593 -22.931  0.00  0.00    +0.003 C 
ATOM     10  C   UNL     1      30.617 -10.855 -20.986  0.00  0.00    +0.000 C 
ATOM     11  C   UNL     1      30.983 -10.169 -22.161  0.00  0.00    +0.000 C 
ENDROOT
BRANCH   3  13
ATOM     12  F   UNL     1      34.423 -18.380 -25.044  0.00  0.00    -0.204 F 
ATOM     13  C   UNL     1      34.365 -14.802 -22.973  0.00  0.00    -0.008 C 
ATOM     14  C   UNL     1      35.103 -15.884 -22.485  0.00  0.00    -0.001 C 
ATOM     15  C   UNL     1      33.646 -14.936 -24.164  0.00  0.00    -0.001 C 
ATOM     16  C   UNL     1      35.122 -17.091 -23.185  0.00  0.00    +0.029 C 
ATOM     17  C   UNL     1      33.666 -16.143 -24.863  0.00  0.00    +0.029 C 
ATOM     18  C   UNL     1      34.404 -17.221 -24.373  0.00  0.00    +0.140 C 
ENDBRANCH   3  13
TORSDOF 1
ENDMDL
MODEL 8
REMARK VINA RESULT:      -8.7      9.269     12.053
REMARK  Name = 68942
REMARK  1 active torsions:
REMARK  status: ('A' for Active; 'I' for Inactive)
REMARK    1  A    between atoms: C_3  and  C_13
REMARK                            x       y       z     vdW  Elec       q    Type
REMARK                         _______ _______ _______ _____ _____    ______ ____
ROOT
ATOM      1  O   UNL     1      31.881  -6.508 -20.365  0.00  0.00    -0.291 OA
ATOM      2  O   UNL     1      31.991 -10.103 -23.461  0.00  0.00    -0.291 OA
ATOM      3  C   UNL     1      31.855  -7.893 -22.393  0.00  0.00    +0.146 C 
ATOM      4  C   UNL     1      31.869  -7.599 -20.901  0.00  0.00    +0.184 C 
ATOM      5  C   UNL     1      31.924  -9.412 -22.462  0.00  0.00    +0.184 C 
ATOM      6  C   UNL     1      31.870  -8.878 -20.185  0.00  0.00    +0.038 C 
ATOM      7  C   UNL     1      31.902  -9.932 -21.093  0.00  0.00    +0.038 C 
ATOM      8  C   UNL     1      31.853  -9.095 -18.821  0.00  0.00    +0.003 C 
ATOM      9  C   UNL     1      31.919 -11.248 -20.676  0.00  0.00    +0.003 C 
ATOM     10  C   UNL     1      31.868 -10.422 -18.380  0.00  0.00    +0.000 C 
ATOM     11  C   UNL     1      31.900 -11.488 -19.300  0.00  0.00    +0.000 C 
ENDROOT
BRANCH   3  13
ATOM     12  F   UNL     1      36.172  -5.467 -25.052  0.00  0.00    -0.204 F 
ATOM     13  C   UNL     1      32.996  -7.252 -23.098  0.00  0.00    -0.008 C 
ATOM     14  C   UNL     1      32.763  -6.368 -24.154  0.00  0.00    -0.001 C 
ATOM     15  C   UNL     1      34.308  -7.530 -22.705  0.00  0.00    -0.001 C 
ATOM     16  C   UNL     1      33.835  -5.766 -24.814  0.00  0.00    +0.029 C 
ATOM     17  C   UNL     1      35.380  -6.927 -23.365  0.00  0.00    +0.029 C 
ATOM     18  C   UNL     1      35.143  -6.045 -24.419  0.00  0.00    +0.140 C 
ENDBRANCH   3  13
TORSDOF 1
ENDMDL
MODEL 9
REMARK VINA RESULT:      -8.6      3.578      6.236
REMARK  Name = 68942
REMARK  1 active torsions:
REMARK  status: ('A' for Active; 'I' for Inactive)
REMARK    1  A    between atoms: C_3  and  C_13
REMARK                            x       y       z     vdW  Elec       q    Type
REMARK                         _______ _______ _______ _____ _____    ______ ____
ROOT
ATOM      1  O   UNL     1      34.146 -15.185 -24.892  0.00  0.00    -0.291 OA
ATOM      2  O   UNL     1      35.295 -15.907 -20.344  0.00  0.00    -0.291 OA
ATOM      3  C   UNL     1      34.808 -14.919 -22.542  0.00  0.00    +0.146 C 
ATOM      4  C   UNL     1      34.464 -15.666 -23.821  0.00  0.00    +0.184 C 
ATOM      5  C   UNL     1      35.044 -16.030 -21.528  0.00  0.00    +0.184 C 
ATOM      6  C   UNL     1      34.575 -17.102 -23.555  0.00  0.00    +0.038 C 
ATOM      7  C   UNL     1      34.913 -17.314 -22.221  0.00  0.00    +0.038 C 
ATOM      8  C   UNL     1      34.383 -18.154 -24.430  0.00  0.00    +0.003 C 
ATOM      9  C   UNL     1      35.071 -18.585 -21.705  0.00  0.00    +0.003 C 
ATOM     10  C   UNL     1      34.540 -19.448 -23.926  0.00  0.00    +0.000 C 
ATOM     11  C   UNL     1      34.882 -19.661 -22.576  0.00  0.00    +0.000 C 
ENDROOT
BRANCH   3  13
ATOM     12  F   UNL     1      30.678 -11.458 -20.945  0.00  0.00    -0.204 F 
ATOM     13  C   UNL     1      33.715 -14.005 -22.120  0.00  0.00    -0.008 C 
ATOM     14  C   UNL     1      32.993 -14.265 -20.952  0.00  0.00    -0.001 C 
ATOM     15  C   UNL     1      33.406 -12.879 -22.888  0.00  0.00    -0.001 C 
ATOM     16  C   UNL     1      31.967 -13.405 -20.557  0.00  0.00    +0.029 C 
ATOM     17  C   UNL     1      32.381 -12.020 -22.492  0.00  0.00    +0.029 C 
ATOM     18  C   UNL     1      31.661 -12.283 -21.325  0.00  0.00    +0.140 C 
ENDBRANCH   3  13
TORSDOF 1
ENDMDL
