MODEL 1
REMARK VINA RESULT:     -13.1      0.000      0.000
REMARK  Name = 25145656
REMARK  4 active torsions:
REMARK  status: ('A' for Active; 'I' for Inactive)
REMARK    1  A    between atoms: C_5  and  C_22
REMARK    2  A    between atoms: C_8  and  C_11
REMARK    3  A    between atoms: C_14  and  C_19
REMARK    4  A    between atoms: C_22  and  C_24
REMARK                            x       y       z     vdW  Elec       q    Type
REMARK                         _______ _______ _______ _____ _____    ______ ____
ROOT
ATOM      1  N   UNL     1      34.311 -16.078 -23.600  0.00  0.00    -0.134 N 
ATOM      2  N   UNL     1      34.092 -14.867 -23.043  0.00  0.00    -0.168 NA
ATOM      3  N   UNL     1      34.314 -17.724 -25.088  0.00  0.00    -0.178 NA
ATOM      4  N   UNL     1      33.242 -15.634 -25.670  0.00  0.00    -0.200 NA
ATOM      5  C   UNL     1      34.966 -17.125 -23.008  0.00  0.00    +0.086 C 
ATOM      6  C   UNL     1      33.927 -16.481 -24.864  0.00  0.00    +0.114 C 
ATOM      7  C   UNL     1      34.955 -18.127 -23.946  0.00  0.00    +0.124 C 
ATOM      8  C   UNL     1      33.455 -14.033 -23.809  0.00  0.00    +0.103 C 
ATOM      9  C   UNL     1      33.000 -14.461 -25.183  0.00  0.00    +0.184 C 
ENDROOT
BRANCH   8  11
ATOM     10  F   UNL     1      31.027 -10.978 -20.924  0.00  0.00    -0.204 F 
ATOM     11  C   UNL     1      33.165 -12.660 -23.335  0.00  0.00    +0.019 C 
ATOM     12  C   UNL     1      32.215 -12.455 -22.334  0.00  0.00    +0.031 C 
ATOM     13  C   UNL     1      33.840 -11.573 -23.889  0.00  0.00    +0.002 C 
ATOM     14  C   UNL     1      32.616 -10.075 -22.441  0.00  0.00    +0.081 C 
ATOM     15  C   UNL     1      31.942 -11.163 -21.887  0.00  0.00    +0.144 C 
ATOM     16  C   UNL     1      33.566 -10.281 -23.442  0.00  0.00    +0.007 C 
BRANCH  14  19
ATOM     17  O   UNL     1      32.981  -8.234 -21.035  0.00  0.00    -0.270 OA
ATOM     18  N   UNL     1      31.332  -8.019 -22.651  0.00  0.00    -0.299 N 
ATOM     19  C   UNL     1      32.335  -8.726 -21.977  0.00  0.00    +0.248 C 
ATOM     20  C   UNL     1      30.954  -6.663 -22.325  0.00  0.00    +0.111 C 
ATOM     21  H   UNL     1      30.859  -8.469 -23.388  0.00  0.00    +0.150 HD
ENDBRANCH  14  19
ENDBRANCH   8  11
BRANCH   5  22
ATOM     22  C   UNL     1      35.538 -17.066 -21.606  0.00  0.00    +0.068 C 
BRANCH  22  24
ATOM     23  N   UNL     1      35.715 -22.070 -18.970  0.00  0.00    -0.248 NA
ATOM     24  C   UNL     1      35.575 -18.385 -20.912  0.00  0.00    -0.038 C 
ATOM     25  C   UNL     1      34.390 -19.055 -20.620  0.00  0.00    +0.050 C 
ATOM     26  C   UNL     1      34.420 -20.298 -19.966  0.00  0.00    -0.004 C 
ATOM     27  C   UNL     1      36.791 -18.953 -20.553  0.00  0.00    -0.028 C 
ATOM     28  C   UNL     1      35.651 -20.881 -19.598  0.00  0.00    +0.060 C 
ATOM     29  C   UNL     1      36.820 -20.189 -19.902  0.00  0.00    +0.071 C 
ATOM     30  C   UNL     1      33.243 -20.995 -19.661  0.00  0.00    -0.001 C 
ATOM     31  C   UNL     1      33.306 -22.222 -19.014  0.00  0.00    +0.020 C 
ATOM     32  C   UNL     1      34.556 -22.711 -18.694  0.00  0.00    +0.098 C 
ENDBRANCH  22  24
ENDBRANCH   5  22
TORSDOF 4
ENDMDL
MODEL 2
REMARK VINA RESULT:     -13.0      3.861      9.881
REMARK  Name = 25145656
REMARK  4 active torsions:
REMARK  status: ('A' for Active; 'I' for Inactive)
REMARK    1  A    between atoms: C_5  and  C_22
REMARK    2  A    between atoms: C_8  and  C_11
REMARK    3  A    between atoms: C_14  and  C_19
REMARK    4  A    between atoms: C_22  and  C_24
REMARK                            x       y       z     vdW  Elec       q    Type
REMARK                         _______ _______ _______ _____ _____    ______ ____
ROOT
ATOM      1  N   UNL     1      34.709 -17.171 -22.932  0.00  0.00    -0.134 N 
ATOM      2  N   UNL     1      34.890 -17.836 -21.770  0.00  0.00    -0.168 NA
ATOM      3  N   UNL     1      34.357 -16.793 -25.090  0.00  0.00    -0.178 NA
ATOM      4  N   UNL     1      34.505 -19.083 -24.322  0.00  0.00    -0.200 NA
ATOM      5  C   UNL     1      34.681 -15.811 -23.081  0.00  0.00    +0.086 C 
ATOM      6  C   UNL     1      34.510 -17.735 -24.177  0.00  0.00    +0.114 C 
ATOM      7  C   UNL     1      34.462 -15.603 -24.419  0.00  0.00    +0.124 C 
ATOM      8  C   UNL     1      34.865 -19.130 -21.884  0.00  0.00    +0.103 C 
ATOM      9  C   UNL     1      34.679 -19.768 -23.239  0.00  0.00    +0.184 C 
ENDROOT
BRANCH   8  11
ATOM     10  F   UNL     1      32.989 -21.955 -18.413  0.00  0.00    -0.204 F 
ATOM     11  C   UNL     1      35.029 -19.986 -20.687  0.00  0.00    +0.019 C 
ATOM     12  C   UNL     1      33.914 -20.581 -20.098  0.00  0.00    +0.031 C 
ATOM     13  C   UNL     1      36.299 -20.197 -20.149  0.00  0.00    +0.002 C 
ATOM     14  C   UNL     1      35.337 -21.599 -18.431  0.00  0.00    +0.081 C 
ATOM     15  C   UNL     1      34.068 -21.387 -18.971  0.00  0.00    +0.144 C 
ATOM     16  C   UNL     1      36.452 -21.003 -19.021  0.00  0.00    +0.007 C 
BRANCH  14  19
ATOM     17  O   UNL     1      34.675 -23.331 -16.996  0.00  0.00    -0.270 OA
ATOM     18  N   UNL     1      36.634 -22.209 -16.466  0.00  0.00    -0.299 N 
ATOM     19  C   UNL     1      35.502 -22.439 -17.257  0.00  0.00    +0.248 C 
ATOM     20  C   UNL     1      36.950 -22.976 -15.282  0.00  0.00    +0.111 C 
ATOM     21  H   UNL     1      37.248 -21.487 -16.729  0.00  0.00    +0.150 HD
ENDBRANCH  14  19
ENDBRANCH   8  11
BRANCH   5  22
ATOM     22  C   UNL     1      34.865 -14.842 -21.930  0.00  0.00    +0.068 C 
BRANCH  22  24
ATOM     23  N   UNL     1      31.020 -10.693 -21.773  0.00  0.00    -0.248 NA
ATOM     24  C   UNL     1      33.857 -13.744 -21.896  0.00  0.00    -0.038 C 
ATOM     25  C   UNL     1      33.963 -12.669 -22.773  0.00  0.00    +0.050 C 
ATOM     26  C   UNL     1      33.015 -11.633 -22.745  0.00  0.00    -0.004 C 
ATOM     27  C   UNL     1      32.806 -13.788 -20.988  0.00  0.00    -0.028 C 
ATOM     28  C   UNL     1      31.945 -11.670 -21.826  0.00  0.00    +0.060 C 
ATOM     29  C   UNL     1      31.863 -12.757 -20.960  0.00  0.00    +0.071 C 
ATOM     30  C   UNL     1      33.097 -10.539 -23.618  0.00  0.00    -0.001 C 
ATOM     31  C   UNL     1      32.145  -9.530 -23.564  0.00  0.00    +0.020 C 
ATOM     32  C   UNL     1      31.135  -9.655 -22.633  0.00  0.00    +0.098 C 
ENDBRANCH  22  24
ENDBRANCH   5  22
TORSDOF 4
ENDMDL
MODEL 3
REMARK VINA RESULT:     -12.3      3.890      9.783
REMARK  Name = 25145656
REMARK  4 active torsions:
REMARK  status: ('A' for Active; 'I' for Inactive)
REMARK    1  A    between atoms: C_5  and  C_22
REMARK    2  A    between atoms: C_8  and  C_11
REMARK    3  A    between atoms: C_14  and  C_19
REMARK    4  A    between atoms: C_22  and  C_24
REMARK                            x       y       z     vdW  Elec       q    Type
REMARK                         _______ _______ _______ _____ _____    ______ ____
ROOT
ATOM      1  N   UNL     1      34.740 -17.316 -22.912  0.00  0.00    -0.134 N 
ATOM      2  N   UNL     1      34.909 -17.962 -21.738  0.00  0.00    -0.168 NA
ATOM      3  N   UNL     1      34.401 -16.972 -25.078  0.00  0.00    -0.178 NA
ATOM      4  N   UNL     1      34.524 -19.250 -24.269  0.00  0.00    -0.200 NA
ATOM      5  C   UNL     1      34.725 -15.958 -23.084  0.00  0.00    +0.086 C 
ATOM      6  C   UNL     1      34.542 -17.900 -24.148  0.00  0.00    +0.114 C 
ATOM      7  C   UNL     1      34.514 -15.771 -24.427  0.00  0.00    +0.124 C 
ATOM      8  C   UNL     1      34.873 -19.257 -21.830  0.00  0.00    +0.103 C 
ATOM      9  C   UNL     1      34.687 -19.917 -23.175  0.00  0.00    +0.184 C 
ENDROOT
BRANCH   8  11
ATOM     10  F   UNL     1      32.956 -22.017 -18.328  0.00  0.00    -0.204 F 
ATOM     11  C   UNL     1      35.023 -20.094 -20.617  0.00  0.00    +0.019 C 
ATOM     12  C   UNL     1      33.901 -20.675 -20.028  0.00  0.00    +0.031 C 
ATOM     13  C   UNL     1      36.287 -20.301 -20.065  0.00  0.00    +0.002 C 
ATOM     14  C   UNL     1      35.306 -21.670 -18.333  0.00  0.00    +0.081 C 
ATOM     15  C   UNL     1      34.042 -21.463 -18.886  0.00  0.00    +0.144 C 
ATOM     16  C   UNL     1      36.428 -21.089 -18.923  0.00  0.00    +0.007 C 
BRANCH  14  19
ATOM     17  O   UNL     1      34.634 -23.387 -16.883  0.00  0.00    -0.270 OA
ATOM     18  N   UNL     1      36.573 -22.240 -16.335  0.00  0.00    -0.299 N 
ATOM     19  C   UNL     1      35.458 -22.492 -17.143  0.00  0.00    +0.248 C 
ATOM     20  C   UNL     1      36.875 -22.986 -15.135  0.00  0.00    +0.111 C 
ATOM     21  H   UNL     1      37.185 -21.515 -16.599  0.00  0.00    +0.150 HD
ENDBRANCH  14  19
ENDBRANCH   8  11
BRANCH   5  22
ATOM     22  C   UNL     1      34.913 -14.971 -21.949  0.00  0.00    +0.068 C 
BRANCH  22  24
ATOM     23  N   UNL     1      31.810 -10.270 -22.484  0.00  0.00    -0.248 NA
ATOM     24  C   UNL     1      34.091 -13.734 -22.081  0.00  0.00    -0.038 C 
ATOM     25  C   UNL     1      33.200 -13.375 -21.075  0.00  0.00    +0.050 C 
ATOM     26  C   UNL     1      32.424 -12.211 -21.194  0.00  0.00    -0.004 C 
ATOM     27  C   UNL     1      34.210 -12.932 -23.210  0.00  0.00    -0.028 C 
ATOM     28  C   UNL     1      32.539 -11.391 -22.338  0.00  0.00    +0.060 C 
ATOM     29  C   UNL     1      33.439 -11.774 -23.329  0.00  0.00    +0.071 C 
ATOM     30  C   UNL     1      31.519 -11.825 -20.196  0.00  0.00    -0.001 C 
ATOM     31  C   UNL     1      30.766 -10.669 -20.345  0.00  0.00    +0.020 C 
ATOM     32  C   UNL     1      30.948  -9.933 -21.497  0.00  0.00    +0.098 C 
ENDBRANCH  22  24
ENDBRANCH   5  22
TORSDOF 4
ENDMDL
MODEL 4
REMARK VINA RESULT:     -11.7      3.909      7.525
REMARK  Name = 25145656
REMARK  4 active torsions:
REMARK  status: ('A' for Active; 'I' for Inactive)
REMARK    1  A    between atoms: C_5  and  C_22
REMARK    2  A    between atoms: C_8  and  C_11
REMARK    3  A    between atoms: C_14  and  C_19
REMARK    4  A    between atoms: C_22  and  C_24
REMARK                            x       y       z     vdW  Elec       q    Type
REMARK                         _______ _______ _______ _____ _____    ______ ____
ROOT
ATOM      1  N   UNL     1      32.121  -9.166 -20.551  0.00  0.00    -0.134 N 
ATOM      2  N   UNL     1      32.506  -8.688 -21.754  0.00  0.00    -0.168 NA
ATOM      3  N   UNL     1      31.829  -9.312 -18.357  0.00  0.00    -0.178 NA
ATOM      4  N   UNL     1      33.056  -7.423 -19.242  0.00  0.00    -0.200 NA
ATOM      5  C   UNL     1      31.414 -10.319 -20.337  0.00  0.00    +0.086 C 
ATOM      6  C   UNL     1      32.357  -8.581 -19.322  0.00  0.00    +0.114 C 
ATOM      7  C   UNL     1      31.247 -10.386 -18.976  0.00  0.00    +0.124 C 
ATOM      8  C   UNL     1      33.159  -7.566 -21.700  0.00  0.00    +0.103 C 
ATOM      9  C   UNL     1      33.454  -6.924 -20.366  0.00  0.00    +0.184 C 
ENDROOT
BRANCH   8  11
ATOM     10  F   UNL     1      32.239  -5.229 -25.853  0.00  0.00    -0.204 F 
ATOM     11  C   UNL     1      33.625  -6.915 -22.947  0.00  0.00    +0.019 C 
ATOM     12  C   UNL     1      32.699  -6.366 -23.834  0.00  0.00    +0.031 C 
ATOM     13  C   UNL     1      34.988  -6.849 -23.232  0.00  0.00    +0.002 C 
ATOM     14  C   UNL     1      34.501  -5.688 -25.294  0.00  0.00    +0.081 C 
ATOM     15  C   UNL     1      33.137  -5.753 -25.007  0.00  0.00    +0.144 C 
ATOM     16  C   UNL     1      35.426  -6.236 -24.405  0.00  0.00    +0.007 C 
BRANCH  14  19
ATOM     17  O   UNL     1      35.357  -3.869 -26.501  0.00  0.00    -0.270 OA
ATOM     18  N   UNL     1      34.960  -5.826 -27.679  0.00  0.00    -0.299 N 
ATOM     19  C   UNL     1      34.962  -5.049 -26.515  0.00  0.00    +0.248 C 
ATOM     20  C   UNL     1      35.410  -5.343 -28.964  0.00  0.00    +0.111 C 
ATOM     21  H   UNL     1      34.633  -6.753 -27.620  0.00  0.00    +0.150 HD
ENDBRANCH  14  19
ENDBRANCH   8  11
BRANCH   5  22
ATOM     22  C   UNL     1      30.968 -11.244 -21.452  0.00  0.00    +0.068 C 
BRANCH  22  24
ATOM     23  N   UNL     1      34.789 -15.167 -22.874  0.00  0.00    -0.248 NA
ATOM     24  C   UNL     1      31.975 -12.281 -21.817  0.00  0.00    -0.038 C 
ATOM     25  C   UNL     1      32.470 -13.148 -20.847  0.00  0.00    +0.050 C 
ATOM     26  C   UNL     1      33.418 -14.127 -21.187  0.00  0.00    -0.004 C 
ATOM     27  C   UNL     1      32.426 -12.387 -23.127  0.00  0.00    -0.028 C 
ATOM     28  C   UNL     1      33.881 -14.241 -22.515  0.00  0.00    +0.060 C 
ATOM     29  C   UNL     1      33.369 -13.361 -23.464  0.00  0.00    +0.071 C 
ATOM     30  C   UNL     1      33.932 -15.014 -20.231  0.00  0.00    -0.001 C 
ATOM     31  C   UNL     1      34.870 -15.969 -20.599  0.00  0.00    +0.020 C 
ATOM     32  C   UNL     1      35.261 -16.004 -21.921  0.00  0.00    +0.098 C 
ENDBRANCH  22  24
ENDBRANCH   5  22
TORSDOF 4
ENDMDL
MODEL 5
REMARK VINA RESULT:     -11.5      4.312      7.538
REMARK  Name = 25145656
REMARK  4 active torsions:
REMARK  status: ('A' for Active; 'I' for Inactive)
REMARK    1  A    between atoms: C_5  and  C_22
REMARK    2  A    between atoms: C_8  and  C_11
REMARK    3  A    between atoms: C_14  and  C_19
REMARK    4  A    between atoms: C_22  and  C_24
REMARK                            x       y       z     vdW  Elec       q    Type
REMARK                         _______ _______ _______ _____ _____    ______ ____
ROOT
ATOM      1  N   UNL     1      32.152  -9.281 -20.561  0.00  0.00    -0.134 N 
ATOM      2  N   UNL     1      32.404  -8.884 -21.828  0.00  0.00    -0.168 NA
ATOM      3  N   UNL     1      32.050  -9.256 -18.345  0.00  0.00    -0.178 NA
ATOM      4  N   UNL     1      33.070  -7.378 -19.482  0.00  0.00    -0.200 NA
ATOM      5  C   UNL     1      31.544 -10.451 -20.195  0.00  0.00    +0.086 C 
ATOM      6  C   UNL     1      32.447  -8.580 -19.409  0.00  0.00    +0.114 C 
ATOM      7  C   UNL     1      31.493 -10.412 -18.824  0.00  0.00    +0.124 C 
ATOM      8  C   UNL     1      32.981  -7.724 -21.921  0.00  0.00    +0.103 C 
ATOM      9  C   UNL     1      33.341  -6.954 -20.673  0.00  0.00    +0.184 C 
ENDROOT
BRANCH   8  11
ATOM     10  F   UNL     1      36.069  -5.537 -24.960  0.00  0.00    -0.204 F 
ATOM     11  C   UNL     1      33.299  -7.155 -23.251  0.00  0.00    +0.019 C 
ATOM     12  C   UNL     1      34.557  -6.602 -23.489  0.00  0.00    +0.031 C 
ATOM     13  C   UNL     1      32.341  -7.173 -24.264  0.00  0.00    +0.002 C 
ATOM     14  C   UNL     1      33.899  -6.083 -25.755  0.00  0.00    +0.081 C 
ATOM     15  C   UNL     1      34.856  -6.066 -24.742  0.00  0.00    +0.144 C 
ATOM     16  C   UNL     1      32.641  -6.637 -25.516  0.00  0.00    +0.007 C 
BRANCH  14  19
ATOM     17  O   UNL     1      33.746  -4.423 -27.405  0.00  0.00    -0.270 OA
ATOM     18  N   UNL     1      35.054  -6.275 -27.888  0.00  0.00    -0.299 N 
ATOM     19  C   UNL     1      34.207  -5.526 -27.063  0.00  0.00    +0.248 C 
ATOM     20  C   UNL     1      35.472  -5.847 -29.204  0.00  0.00    +0.111 C 
ATOM     21  H   UNL     1      35.383  -7.142 -27.555  0.00  0.00    +0.150 HD
ENDBRANCH  14  19
ENDBRANCH   8  11
BRANCH   5  22
ATOM     22  C   UNL     1      31.072 -11.493 -21.189  0.00  0.00    +0.068 C 
BRANCH  22  24
ATOM     23  N   UNL     1      34.835 -15.617 -22.114  0.00  0.00    -0.248 NA
ATOM     24  C   UNL     1      32.062 -12.580 -21.443  0.00  0.00    -0.038 C 
ATOM     25  C   UNL     1      32.284 -13.035 -22.739  0.00  0.00    +0.050 C 
ATOM     26  C   UNL     1      33.215 -14.058 -22.983  0.00  0.00    -0.004 C 
ATOM     27  C   UNL     1      32.767 -13.143 -20.387  0.00  0.00    -0.028 C 
ATOM     28  C   UNL     1      33.936 -14.636 -21.916  0.00  0.00    +0.060 C 
ATOM     29  C   UNL     1      33.693 -14.161 -20.630  0.00  0.00    +0.071 C 
ATOM     30  C   UNL     1      33.460 -14.535 -24.278  0.00  0.00    -0.001 C 
ATOM     31  C   UNL     1      34.386 -15.548 -24.485  0.00  0.00    +0.020 C 
ATOM     32  C   UNL     1      35.041 -16.049 -23.380  0.00  0.00    +0.098 C 
ENDBRANCH  22  24
ENDBRANCH   5  22
TORSDOF 4
ENDMDL
MODEL 6
REMARK VINA RESULT:     -11.0      3.324      5.502
REMARK  Name = 25145656
REMARK  4 active torsions:
REMARK  status: ('A' for Active; 'I' for Inactive)
REMARK    1  A    between atoms: C_5  and  C_22
REMARK    2  A    between atoms: C_8  and  C_11
REMARK    3  A    between atoms: C_14  and  C_19
REMARK    4  A    between atoms: C_22  and  C_24
REMARK                            x       y       z     vdW  Elec       q    Type
REMARK                         _______ _______ _______ _____ _____    ______ ____
ROOT
ATOM      1  N   UNL     1      32.797 -11.557 -22.338  0.00  0.00    -0.134 N 
ATOM      2  N   UNL     1      33.257 -10.545 -23.106  0.00  0.00    -0.168 NA
ATOM      3  N   UNL     1      31.613 -12.652 -20.815  0.00  0.00    -0.178 NA
ATOM      4  N   UNL     1      31.256 -10.272 -21.072  0.00  0.00    -0.200 NA
ATOM      5  C   UNL     1      33.206 -12.862 -22.404  0.00  0.00    +0.086 C 
ATOM      6  C   UNL     1      31.828 -11.467 -21.358  0.00  0.00    +0.114 C 
ATOM      7  C   UNL     1      32.461 -13.517 -21.456  0.00  0.00    +0.124 C 
ATOM      8  C   UNL     1      32.704  -9.395 -22.863  0.00  0.00    +0.103 C 
ATOM      9  C   UNL     1      31.665  -9.268 -21.775  0.00  0.00    +0.184 C 
ENDROOT
BRANCH   8  11
ATOM     10  F   UNL     1      35.924  -5.939 -23.978  0.00  0.00    -0.204 F 
ATOM     11  C   UNL     1      33.097  -8.200 -23.645  0.00  0.00    +0.019 C 
ATOM     12  C   UNL     1      34.348  -7.617 -23.443  0.00  0.00    +0.031 C 
ATOM     13  C   UNL     1      32.218  -7.659 -24.582  0.00  0.00    +0.002 C 
ATOM     14  C   UNL     1      33.840  -5.950 -25.117  0.00  0.00    +0.081 C 
ATOM     15  C   UNL     1      34.719  -6.492 -24.180  0.00  0.00    +0.144 C 
ATOM     16  C   UNL     1      32.589  -6.534 -25.318  0.00  0.00    +0.007 C 
BRANCH  14  19
ATOM     17  O   UNL     1      35.084  -4.862 -26.780  0.00  0.00    -0.270 OA
ATOM     18  N   UNL     1      33.563  -3.579 -25.590  0.00  0.00    -0.299 N 
ATOM     19  C   UNL     1      34.222  -4.777 -25.887  0.00  0.00    +0.248 C 
ATOM     20  C   UNL     1      33.815  -2.335 -26.282  0.00  0.00    +0.111 C 
ATOM     21  H   UNL     1      32.892  -3.582 -24.870  0.00  0.00    +0.150 HD
ENDBRANCH  14  19
ENDBRANCH   8  11
BRANCH   5  22
ATOM     22  C   UNL     1      34.267 -13.356 -23.367  0.00  0.00    +0.068 C 
BRANCH  22  24
ATOM     23  N   UNL     1      34.867 -18.982 -23.451  0.00  0.00    -0.248 NA
ATOM     24  C   UNL     1      34.428 -14.839 -23.380  0.00  0.00    -0.038 C 
ATOM     25  C   UNL     1      34.926 -15.498 -22.259  0.00  0.00    +0.050 C 
ATOM     26  C   UNL     1      35.079 -16.894 -22.267  0.00  0.00    -0.004 C 
ATOM     27  C   UNL     1      34.084 -15.570 -24.510  0.00  0.00    -0.028 C 
ATOM     28  C   UNL     1      34.732 -17.644 -23.411  0.00  0.00    +0.060 C 
ATOM     29  C   UNL     1      34.237 -16.958 -24.517  0.00  0.00    +0.071 C 
ATOM     30  C   UNL     1      35.576 -17.584 -21.153  0.00  0.00    -0.001 C 
ATOM     31  C   UNL     1      35.717 -18.965 -21.192  0.00  0.00    +0.020 C 
ATOM     32  C   UNL     1      35.351 -19.610 -22.354  0.00  0.00    +0.098 C 
ENDBRANCH  22  24
ENDBRANCH   5  22
TORSDOF 4
ENDMDL
MODEL 7
REMARK VINA RESULT:     -11.0      0.670      1.338
REMARK  Name = 25145656
REMARK  4 active torsions:
REMARK  status: ('A' for Active; 'I' for Inactive)
REMARK    1  A    between atoms: C_5  and  C_22
REMARK    2  A    between atoms: C_8  and  C_11
REMARK    3  A    between atoms: C_14  and  C_19
REMARK    4  A    between atoms: C_22  and  C_24
REMARK                            x       y       z     vdW  Elec       q    Type
REMARK                         _______ _______ _______ _____ _____    ______ ____
ROOT
ATOM      1  N   UNL     1      34.291 -16.134 -23.674  0.00  0.00    -0.134 N 
ATOM      2  N   UNL     1      34.056 -14.958 -23.050  0.00  0.00    -0.168 NA
ATOM      3  N   UNL     1      34.326 -17.690 -25.254  0.00  0.00    -0.178 NA
ATOM      4  N   UNL     1      33.243 -15.578 -25.728  0.00  0.00    -0.200 NA
ATOM      5  C   UNL     1      34.948 -17.208 -23.136  0.00  0.00    +0.086 C 
ATOM      6  C   UNL     1      33.926 -16.465 -24.964  0.00  0.00    +0.114 C 
ATOM      7  C   UNL     1      34.956 -18.154 -24.130  0.00  0.00    +0.124 C 
ATOM      8  C   UNL     1      33.422 -14.086 -23.775  0.00  0.00    +0.103 C 
ATOM      9  C   UNL     1      32.986 -14.438 -25.177  0.00  0.00    +0.184 C 
ENDROOT
BRANCH   8  11
ATOM     10  F   UNL     1      31.038 -11.237 -20.653  0.00  0.00    -0.204 F 
ATOM     11  C   UNL     1      33.115 -12.745 -23.226  0.00  0.00    +0.019 C 
ATOM     12  C   UNL     1      32.204 -12.614 -22.178  0.00  0.00    +0.031 C 
ATOM     13  C   UNL     1      33.736 -11.615 -23.757  0.00  0.00    +0.002 C 
ATOM     14  C   UNL     1      32.535 -10.220 -22.191  0.00  0.00    +0.081 C 
ATOM     15  C   UNL     1      31.915 -11.351 -21.661  0.00  0.00    +0.144 C 
ATOM     16  C   UNL     1      33.446 -10.352 -23.239  0.00  0.00    +0.007 C 
BRANCH  14  19
ATOM     17  O   UNL     1      32.662  -8.565 -20.535  0.00  0.00    -0.270 OA
ATOM     18  N   UNL     1      31.480  -8.044 -22.461  0.00  0.00    -0.299 N 
ATOM     19  C   UNL     1      32.237  -8.902 -21.654  0.00  0.00    +0.248 C 
ATOM     20  C   UNL     1      31.123  -6.697 -22.079  0.00  0.00    +0.111 C 
ATOM     21  H   UNL     1      31.175  -8.375 -23.336  0.00  0.00    +0.150 HD
ENDBRANCH  14  19
ENDBRANCH   8  11
BRANCH   5  22
ATOM     22  C   UNL     1      35.503 -17.226 -21.726  0.00  0.00    +0.068 C 
BRANCH  22  24
ATOM     23  N   UNL     1      34.275 -21.950 -18.864  0.00  0.00    -0.248 NA
ATOM     24  C   UNL     1      35.189 -18.471 -20.968  0.00  0.00    -0.038 C 
ATOM     25  C   UNL     1      36.165 -19.078 -20.183  0.00  0.00    +0.050 C 
ATOM     26  C   UNL     1      35.874 -20.251 -19.467  0.00  0.00    -0.004 C 
ATOM     27  C   UNL     1      33.920 -19.032 -21.041  0.00  0.00    -0.028 C 
ATOM     28  C   UNL     1      34.587 -20.827 -19.536  0.00  0.00    +0.060 C 
ATOM     29  C   UNL     1      33.631 -20.199 -20.329  0.00  0.00    +0.071 C 
ATOM     30  C   UNL     1      36.837 -20.882 -18.669  0.00  0.00    -0.001 C 
ATOM     31  C   UNL     1      36.518 -22.041 -17.974  0.00  0.00    +0.020 C 
ATOM     32  C   UNL     1      35.234 -22.529 -18.104  0.00  0.00    +0.098 C 
ENDBRANCH  22  24
ENDBRANCH   5  22
TORSDOF 4
ENDMDL
MODEL 8
REMARK VINA RESULT:     -10.9      3.944      6.436
REMARK  Name = 25145656
REMARK  4 active torsions:
REMARK  status: ('A' for Active; 'I' for Inactive)
REMARK    1  A    between atoms: C_5  and  C_22
REMARK    2  A    between atoms: C_8  and  C_11
REMARK    3  A    between atoms: C_14  and  C_19
REMARK    4  A    between atoms: C_22  and  C_24
REMARK                            x       y       z     vdW  Elec       q    Type
REMARK                         _______ _______ _______ _____ _____    ______ ____
ROOT
ATOM      1  N   UNL     1      32.531 -10.350 -22.434  0.00  0.00    -0.134 N 
ATOM      2  N   UNL     1      33.229  -9.543 -23.263  0.00  0.00    -0.168 NA
ATOM      3  N   UNL     1      31.077 -11.006 -20.892  0.00  0.00    -0.178 NA
ATOM      4  N   UNL     1      31.251  -8.644 -21.394  0.00  0.00    -0.200 NA
ATOM      5  C   UNL     1      32.652 -11.711 -22.352  0.00  0.00    +0.086 C 
ATOM      6  C   UNL     1      31.564  -9.956 -21.529  0.00  0.00    +0.114 C 
ATOM      7  C   UNL     1      31.745 -12.091 -21.395  0.00  0.00    +0.124 C 
ATOM      8  C   UNL     1      32.927  -8.284 -23.164  0.00  0.00    +0.103 C 
ATOM      9  C   UNL     1      31.896  -7.827 -22.161  0.00  0.00    +0.184 C 
ENDROOT
BRANCH   8  11
ATOM     10  F   UNL     1      32.875  -5.229 -26.935  0.00  0.00    -0.204 F 
ATOM     11  C   UNL     1      33.601  -7.287 -24.028  0.00  0.00    +0.019 C 
ATOM     12  C   UNL     1      32.912  -6.713 -25.097  0.00  0.00    +0.031 C 
ATOM     13  C   UNL     1      34.922  -6.921 -23.773  0.00  0.00    +0.002 C 
ATOM     14  C   UNL     1      34.868  -5.409 -25.656  0.00  0.00    +0.081 C 
ATOM     15  C   UNL     1      33.546  -5.774 -25.911  0.00  0.00    +0.144 C 
ATOM     16  C   UNL     1      35.556  -5.983 -24.587  0.00  0.00    +0.007 C 
BRANCH  14  19
ATOM     17  O   UNL     1      35.130  -3.254 -26.542  0.00  0.00    -0.270 OA
ATOM     18  N   UNL     1      36.641  -4.870 -27.233  0.00  0.00    -0.299 N 
ATOM     19  C   UNL     1      35.532  -4.430 -26.501  0.00  0.00    +0.248 C 
ATOM     20  C   UNL     1      37.420  -4.013 -28.098  0.00  0.00    +0.111 C 
ATOM     21  H   UNL     1      36.906  -5.815 -27.155  0.00  0.00    +0.150 HD
ENDBRANCH  14  19
ENDBRANCH   8  11
BRANCH   5  22
ATOM     22  C   UNL     1      33.621 -12.515 -23.195  0.00  0.00    +0.068 C 
BRANCH  22  24
ATOM     23  N   UNL     1      35.381 -17.279 -20.699  0.00  0.00    -0.248 NA
ATOM     24  C   UNL     1      34.085 -13.775 -22.546  0.00  0.00    -0.038 C 
ATOM     25  C   UNL     1      34.341 -14.906 -23.316  0.00  0.00    +0.050 C 
ATOM     26  C   UNL     1      34.779 -16.095 -22.709  0.00  0.00    -0.004 C 
ATOM     27  C   UNL     1      34.265 -13.828 -21.169  0.00  0.00    -0.028 C 
ATOM     28  C   UNL     1      34.964 -16.156 -21.312  0.00  0.00    +0.060 C 
ATOM     29  C   UNL     1      34.700 -15.010 -20.566  0.00  0.00    +0.071 C 
ATOM     30  C   UNL     1      35.045 -17.247 -23.461  0.00  0.00    -0.001 C 
ATOM     31  C   UNL     1      35.475 -18.407 -22.831  0.00  0.00    +0.020 C 
ATOM     32  C   UNL     1      35.627 -18.370 -21.460  0.00  0.00    +0.098 C 
ENDBRANCH  22  24
ENDBRANCH   5  22
TORSDOF 4
ENDMDL
MODEL 9
REMARK VINA RESULT:     -10.9      6.512     11.448
REMARK  Name = 25145656
REMARK  4 active torsions:
REMARK  status: ('A' for Active; 'I' for Inactive)
REMARK    1  A    between atoms: C_5  and  C_22
REMARK    2  A    between atoms: C_8  and  C_11
REMARK    3  A    between atoms: C_14  and  C_19
REMARK    4  A    between atoms: C_22  and  C_24
REMARK                            x       y       z     vdW  Elec       q    Type
REMARK                         _______ _______ _______ _____ _____    ______ ____
ROOT
ATOM      1  N   UNL     1      35.141 -23.776 -13.533  0.00  0.00    -0.134 N 
ATOM      2  N   UNL     1      34.913 -23.052 -14.650  0.00  0.00    -0.168 NA
ATOM      3  N   UNL     1      36.145 -25.128 -12.087  0.00  0.00    -0.178 NA
ATOM      4  N   UNL     1      37.213 -24.706 -14.218  0.00  0.00    -0.200 NA
ATOM      5  C   UNL     1      34.322 -23.839 -12.438  0.00  0.00    +0.086 C 
ATOM      6  C   UNL     1      36.240 -24.575 -13.283  0.00  0.00    +0.114 C 
ATOM      7  C   UNL     1      34.963 -24.678 -11.561  0.00  0.00    +0.124 C 
ATOM      8  C   UNL     1      35.847 -23.146 -15.549  0.00  0.00    +0.103 C 
ATOM      9  C   UNL     1      37.042 -24.037 -15.310  0.00  0.00    +0.184 C 
ENDROOT
BRANCH   8  11
ATOM     10  F   UNL     1      33.299 -21.735 -19.430  0.00  0.00    -0.204 F 
ATOM     11  C   UNL     1      35.738 -22.388 -16.817  0.00  0.00    +0.019 C 
ATOM     12  C   UNL     1      34.549 -22.415 -17.545  0.00  0.00    +0.031 C 
ATOM     13  C   UNL     1      36.825 -21.647 -17.281  0.00  0.00    +0.002 C 
ATOM     14  C   UNL     1      35.533 -20.960 -19.204  0.00  0.00    +0.081 C 
ATOM     15  C   UNL     1      34.447 -21.701 -18.738  0.00  0.00    +0.144 C 
ATOM     16  C   UNL     1      36.722 -20.933 -18.475  0.00  0.00    +0.007 C 
BRANCH  14  19
ATOM     17  O   UNL     1      34.624 -20.562 -21.329  0.00  0.00    -0.270 OA
ATOM     18  N   UNL     1      36.255 -19.091 -20.585  0.00  0.00    -0.299 N 
ATOM     19  C   UNL     1      35.430 -20.214 -20.448  0.00  0.00    +0.248 C 
ATOM     20  C   UNL     1      36.252 -18.235 -21.749  0.00  0.00    +0.111 C 
ATOM     21  H   UNL     1      36.870 -18.872 -19.848  0.00  0.00    +0.150 HD
ENDBRANCH  14  19
ENDBRANCH   8  11
BRANCH   5  22
ATOM     22  C   UNL     1      33.007 -23.092 -12.336  0.00  0.00    +0.068 C 
BRANCH  22  24
ATOM     23  N   UNL     1      28.937 -25.188 -15.661  0.00  0.00    -0.248 NA
ATOM     24  C   UNL     1      31.933 -23.635 -13.215  0.00  0.00    -0.038 C 
ATOM     25  C   UNL     1      31.208 -22.782 -14.042  0.00  0.00    +0.050 C 
ATOM     26  C   UNL     1      30.195 -23.289 -14.873  0.00  0.00    -0.004 C 
ATOM     27  C   UNL     1      31.649 -24.995 -13.215  0.00  0.00    -0.028 C 
ATOM     28  C   UNL     1      29.901 -24.670 -14.878  0.00  0.00    +0.060 C 
ATOM     29  C   UNL     1      30.642 -25.499 -14.041  0.00  0.00    +0.071 C 
ATOM     30  C   UNL     1      29.450 -22.454 -15.716  0.00  0.00    -0.001 C 
ATOM     31  C   UNL     1      28.455 -22.986 -16.525  0.00  0.00    +0.020 C 
ATOM     32  C   UNL     1      28.241 -24.347 -16.460  0.00  0.00    +0.098 C 
ENDBRANCH  22  24
ENDBRANCH   5  22
TORSDOF 4
ENDMDL
