MODEL 1
REMARK VINA RESULT:     -10.6      0.000      0.000
REMARK  Name = 5326608
REMARK  8 active torsions:
REMARK  status: ('A' for Active; 'I' for Inactive)
REMARK    1  A    between atoms: N_3  and  S_29
REMARK    2  A    between atoms: C_5  and  C_13
REMARK    3  A    between atoms: N_12  and  C_15
REMARK    4  A    between atoms: C_15  and  C_19
REMARK    5  A    between atoms: N_18  and  C_24
REMARK    6  A    between atoms: N_18  and  O_27
REMARK    7  A    between atoms: S_29  and  C_32
REMARK    8  A    between atoms: C_32  and  C_33
REMARK                            x       y       z     vdW  Elec       q    Type
REMARK                         _______ _______ _______ _____ _____    ______ ____
ROOT
ATOM      1  O   UNL     1      34.898 -11.355 -23.917  0.00  0.00    -0.273 OA
ATOM      2  N   UNL     1      32.966 -11.708 -22.710  0.00  0.00    -0.272 N 
ATOM      3  N   UNL     1      31.957  -9.227 -23.462  0.00  0.00    -0.148 NA
ATOM      4  C   UNL     1      31.682 -11.252 -22.205  0.00  0.00    +0.094 C 
ATOM      5  C   UNL     1      33.322 -13.006 -22.149  0.00  0.00    +0.152 C 
ATOM      6  C   UNL     1      31.567 -11.962 -20.862  0.00  0.00    +0.024 C 
ATOM      7  C   UNL     1      32.218 -13.316 -21.135  0.00  0.00    +0.031 C 
ATOM      8  C   UNL     1      31.613  -9.742 -22.113  0.00  0.00    +0.116 C 
ATOM      9  C   UNL     1      33.802 -10.957 -23.513  0.00  0.00    +0.244 C 
ATOM     10  C   UNL     1      33.344  -9.561 -23.857  0.00  0.00    +0.180 C 
ENDROOT
BRANCH   5  13
ATOM     11  O   UNL     1      32.497 -13.921 -24.191  0.00  0.00    -0.273 OA
ATOM     12  N   UNL     1      34.277 -14.973 -23.121  0.00  0.00    -0.303 N 
ATOM     13  C   UNL     1      33.308 -13.996 -23.272  0.00  0.00    +0.241 C 
ATOM     14  H   UNL     1      34.872 -14.926 -22.339  0.00  0.00    +0.149 HD
BRANCH  12  15
ATOM     15  C   UNL     1      34.457 -16.058 -24.058  0.00  0.00    +0.089 C 
BRANCH  15  18
ATOM     16  N   UNL     1      35.289 -19.361 -21.460  0.00  0.00    -0.279 N 
ATOM     17  N   UNL     1      33.527 -20.301 -20.392  0.00  0.00    -0.370 N 
ATOM     18  C   UNL     1      35.170 -17.244 -23.411  0.00  0.00    +0.023 C 
ATOM     19  C   UNL     1      35.460 -16.966 -21.929  0.00  0.00    +0.023 C 
ATOM     20  C   UNL     1      34.338 -18.526 -23.554  0.00  0.00    +0.023 C 
ATOM     21  C   UNL     1      36.113 -18.171 -21.256  0.00  0.00    +0.094 C 
ATOM     22  C   UNL     1      35.011 -19.705 -22.852  0.00  0.00    +0.094 C 
ATOM     23  C   UNL     1      34.890 -20.144 -20.432  0.00  0.00    +0.215 C 
ATOM     24  H   UNL     1      32.961 -19.864 -21.068  0.00  0.00    +0.159 HD
ATOM     25  H   UNL     1      33.116 -20.852 -19.686  0.00  0.00    +0.159 HD
BRANCH  23  26
ATOM     26  N   UNL     1      35.664 -20.715 -19.546  0.00  0.00    -0.101 NA
BRANCH  26  27
ATOM     27  O   UNL     1      35.279 -22.045 -19.353  0.00  0.00    -0.263 OA
ATOM     28  H   UNL     1      35.838 -22.631 -18.882  0.00  0.00    +0.247 HD
ENDBRANCH  26  27
ENDBRANCH  23  26
ENDBRANCH  15  18
ENDBRANCH  12  15
ENDBRANCH   5  13
BRANCH   3  29
ATOM     29  S   UNL     1      31.452  -7.629 -23.806  0.00  0.00    +0.049 S 
ATOM     30  O   UNL     1      30.036  -7.518 -23.528  0.00  0.00    -0.157 OA
ATOM     31  O   UNL     1      32.012  -7.227 -25.078  0.00  0.00    -0.157 OA
BRANCH  29  32
ATOM     32  C   UNL     1      32.330  -6.772 -22.524  0.00  0.00    +0.195 C 
BRANCH  32  33
ATOM     33  C   UNL     1      31.821  -5.362 -22.488  0.00  0.00    +0.003 C 
ATOM     34  C   UNL     1      30.879  -4.986 -21.529  0.00  0.00    -0.003 C 
ATOM     35  C   UNL     1      32.289  -4.428 -23.411  0.00  0.00    -0.003 C 
ATOM     36  C   UNL     1      30.407  -3.674 -21.495  0.00  0.00    -0.000 C 
ATOM     37  C   UNL     1      31.815  -3.116 -23.377  0.00  0.00    -0.000 C 
ATOM     38  C   UNL     1      30.874  -2.739 -22.419  0.00  0.00    -0.000 C 
ENDBRANCH  32  33
ENDBRANCH  29  32
ENDBRANCH   3  29
TORSDOF 8
ENDMDL
MODEL 2
REMARK VINA RESULT:     -10.5      1.265      1.794
REMARK  Name = 5326608
REMARK  8 active torsions:
REMARK  status: ('A' for Active; 'I' for Inactive)
REMARK    1  A    between atoms: N_3  and  S_29
REMARK    2  A    between atoms: C_5  and  C_13
REMARK    3  A    between atoms: N_12  and  C_15
REMARK    4  A    between atoms: C_15  and  C_19
REMARK    5  A    between atoms: N_18  and  C_24
REMARK    6  A    between atoms: N_18  and  O_27
REMARK    7  A    between atoms: S_29  and  C_32
REMARK    8  A    between atoms: C_32  and  C_33
REMARK                            x       y       z     vdW  Elec       q    Type
REMARK                         _______ _______ _______ _____ _____    ______ ____
ROOT
ATOM      1  O   UNL     1      34.792 -11.179 -23.823  0.00  0.00    -0.273 OA
ATOM      2  N   UNL     1      32.886 -11.641 -22.611  0.00  0.00    -0.272 N 
ATOM      3  N   UNL     1      31.798  -9.160 -23.239  0.00  0.00    -0.148 NA
ATOM      4  C   UNL     1      31.597 -11.245 -22.072  0.00  0.00    +0.094 C 
ATOM      5  C   UNL     1      33.286 -12.951 -22.113  0.00  0.00    +0.152 C 
ATOM      6  C   UNL     1      31.518 -12.018 -20.760  0.00  0.00    +0.024 C 
ATOM      7  C   UNL     1      32.205 -13.338 -21.101  0.00  0.00    +0.031 C 
ATOM      8  C   UNL     1      31.486  -9.744 -21.911  0.00  0.00    +0.116 C 
ATOM      9  C   UNL     1      33.690 -10.831 -23.389  0.00  0.00    +0.244 C 
ATOM     10  C   UNL     1      33.188  -9.435 -23.665  0.00  0.00    +0.180 C 
ENDROOT
BRANCH   5  13
ATOM     11  O   UNL     1      32.533 -13.736 -24.236  0.00  0.00    -0.273 OA
ATOM     12  N   UNL     1      34.197 -14.922 -23.121  0.00  0.00    -0.303 N 
ATOM     13  C   UNL     1      33.286 -13.891 -23.279  0.00  0.00    +0.241 C 
ATOM     14  H   UNL     1      34.749 -14.939 -22.307  0.00  0.00    +0.149 HD
BRANCH  12  15
ATOM     15  C   UNL     1      34.376 -15.974 -24.095  0.00  0.00    +0.089 C 
BRANCH  15  18
ATOM     16  N   UNL     1      35.310 -19.332 -21.604  0.00  0.00    -0.279 N 
ATOM     17  N   UNL     1      33.587 -20.311 -20.507  0.00  0.00    -0.370 N 
ATOM     18  C   UNL     1      35.116 -17.169 -23.499  0.00  0.00    +0.023 C 
ATOM     19  C   UNL     1      35.449 -16.924 -22.020  0.00  0.00    +0.023 C 
ATOM     20  C   UNL     1      34.289 -18.454 -23.648  0.00  0.00    +0.023 C 
ATOM     21  C   UNL     1      36.131 -18.141 -21.396  0.00  0.00    +0.094 C 
ATOM     22  C   UNL     1      34.992 -19.644 -22.995  0.00  0.00    +0.094 C 
ATOM     23  C   UNL     1      34.948 -20.142 -20.584  0.00  0.00    +0.215 C 
ATOM     24  H   UNL     1      32.998 -19.862 -21.155  0.00  0.00    +0.159 HD
ATOM     25  H   UNL     1      33.202 -20.882 -19.803  0.00  0.00    +0.159 HD
BRANCH  23  26
ATOM     26  N   UNL     1      35.752 -20.728 -19.736  0.00  0.00    -0.101 NA
BRANCH  26  27
ATOM     27  O   UNL     1      35.241 -21.976 -19.369  0.00  0.00    -0.263 OA
ATOM     28  H   UNL     1      34.782 -22.499 -19.996  0.00  0.00    +0.247 HD
ENDBRANCH  26  27
ENDBRANCH  23  26
ENDBRANCH  15  18
ENDBRANCH  12  15
ENDBRANCH   5  13
BRANCH   3  29
ATOM     29  S   UNL     1      31.243  -7.564 -23.505  0.00  0.00    +0.049 S 
ATOM     30  O   UNL     1      30.771  -7.019 -22.251  0.00  0.00    -0.157 OA
ATOM     31  O   UNL     1      30.423  -7.547 -24.698  0.00  0.00    -0.157 OA
BRANCH  29  32
ATOM     32  C   UNL     1      32.790  -6.786 -23.892  0.00  0.00    +0.195 C 
BRANCH  32  33
ATOM     33  C   UNL     1      32.523  -5.722 -24.914  0.00  0.00    +0.003 C 
ATOM     34  C   UNL     1      33.085  -5.822 -26.187  0.00  0.00    -0.003 C 
ATOM     35  C   UNL     1      31.713  -4.634 -24.592  0.00  0.00    -0.003 C 
ATOM     36  C   UNL     1      32.837  -4.833 -27.138  0.00  0.00    -0.000 C 
ATOM     37  C   UNL     1      31.465  -3.644 -25.544  0.00  0.00    -0.000 C 
ATOM     38  C   UNL     1      32.027  -3.744 -26.817  0.00  0.00    -0.000 C 
ENDBRANCH  32  33
ENDBRANCH  29  32
ENDBRANCH   3  29
TORSDOF 8
ENDMDL
MODEL 3
REMARK VINA RESULT:     -10.4      1.230      1.799
REMARK  Name = 5326608
REMARK  8 active torsions:
REMARK  status: ('A' for Active; 'I' for Inactive)
REMARK    1  A    between atoms: N_3  and  S_29
REMARK    2  A    between atoms: C_5  and  C_13
REMARK    3  A    between atoms: N_12  and  C_15
REMARK    4  A    between atoms: C_15  and  C_19
REMARK    5  A    between atoms: N_18  and  C_24
REMARK    6  A    between atoms: N_18  and  O_27
REMARK    7  A    between atoms: S_29  and  C_32
REMARK    8  A    between atoms: C_32  and  C_33
REMARK                            x       y       z     vdW  Elec       q    Type
REMARK                         _______ _______ _______ _____ _____    ______ ____
ROOT
ATOM      1  O   UNL     1      34.908 -11.361 -23.955  0.00  0.00    -0.273 OA
ATOM      2  N   UNL     1      32.993 -11.702 -22.719  0.00  0.00    -0.272 N 
ATOM      3  N   UNL     1      31.987  -9.216 -23.458  0.00  0.00    -0.148 NA
ATOM      4  C   UNL     1      31.720 -11.238 -22.195  0.00  0.00    +0.094 C 
ATOM      5  C   UNL     1      33.350 -13.001 -22.162  0.00  0.00    +0.152 C 
ATOM      6  C   UNL     1      31.620 -11.947 -20.850  0.00  0.00    +0.024 C 
ATOM      7  C   UNL     1      32.259 -13.304 -21.131  0.00  0.00    +0.031 C 
ATOM      8  C   UNL     1      31.660  -9.728 -22.103  0.00  0.00    +0.116 C 
ATOM      9  C   UNL     1      33.821 -10.956 -23.535  0.00  0.00    +0.244 C 
ATOM     10  C   UNL     1      33.366  -9.558 -23.873  0.00  0.00    +0.180 C 
ENDROOT
BRANCH   5  13
ATOM     11  O   UNL     1      32.485 -13.918 -24.187  0.00  0.00    -0.273 OA
ATOM     12  N   UNL     1      34.286 -14.969 -23.152  0.00  0.00    -0.303 N 
ATOM     13  C   UNL     1      33.314 -13.992 -23.284  0.00  0.00    +0.241 C 
ATOM     14  H   UNL     1      34.896 -14.921 -22.381  0.00  0.00    +0.149 HD
BRANCH  12  15
ATOM     15  C   UNL     1      34.448 -16.055 -24.092  0.00  0.00    +0.089 C 
BRANCH  15  18
ATOM     16  N   UNL     1      35.274 -19.364 -21.500  0.00  0.00    -0.279 N 
ATOM     17  N   UNL     1      33.514 -20.283 -20.410  0.00  0.00    -0.370 N 
ATOM     18  C   UNL     1      35.155 -17.247 -23.452  0.00  0.00    +0.023 C 
ATOM     19  C   UNL     1      35.466 -16.971 -21.974  0.00  0.00    +0.023 C 
ATOM     20  C   UNL     1      34.306 -18.521 -23.584  0.00  0.00    +0.023 C 
ATOM     21  C   UNL     1      36.113 -18.184 -21.307  0.00  0.00    +0.094 C 
ATOM     22  C   UNL     1      34.975 -19.706 -22.888  0.00  0.00    +0.094 C 
ATOM     23  C   UNL     1      34.878 -20.142 -20.467  0.00  0.00    +0.215 C 
ATOM     24  H   UNL     1      32.945 -19.840 -21.079  0.00  0.00    +0.159 HD
ATOM     25  H   UNL     1      33.105 -20.829 -19.699  0.00  0.00    +0.159 HD
BRANCH  23  26
ATOM     26  N   UNL     1      35.656 -20.720 -19.590  0.00  0.00    -0.101 NA
BRANCH  26  27
ATOM     27  O   UNL     1      35.095 -21.929 -19.168  0.00  0.00    -0.263 OA
ATOM     28  H   UNL     1      34.188 -21.970 -18.936  0.00  0.00    +0.247 HD
ENDBRANCH  26  27
ENDBRANCH  23  26
ENDBRANCH  15  18
ENDBRANCH  12  15
ENDBRANCH   5  13
BRANCH   3  29
ATOM     29  S   UNL     1      31.486  -7.616 -23.795  0.00  0.00    +0.049 S 
ATOM     30  O   UNL     1      30.279  -7.337 -23.047  0.00  0.00    -0.157 OA
ATOM     31  O   UNL     1      31.563  -7.394 -25.223  0.00  0.00    -0.157 OA
BRANCH  29  32
ATOM     32  C   UNL     1      32.821  -6.732 -23.030  0.00  0.00    +0.195 C 
BRANCH  32  33
ATOM     33  C   UNL     1      33.482  -5.899 -24.086  0.00  0.00    +0.003 C 
ATOM     34  C   UNL     1      32.838  -4.765 -24.583  0.00  0.00    -0.003 C 
ATOM     35  C   UNL     1      34.738  -6.259 -24.573  0.00  0.00    -0.003 C 
ATOM     36  C   UNL     1      33.454  -3.990 -25.566  0.00  0.00    -0.000 C 
ATOM     37  C   UNL     1      35.352  -5.483 -25.556  0.00  0.00    -0.000 C 
ATOM     38  C   UNL     1      34.710  -4.348 -26.053  0.00  0.00    -0.000 C 
ENDBRANCH  32  33
ENDBRANCH  29  32
ENDBRANCH   3  29
TORSDOF 8
ENDMDL
MODEL 4
REMARK VINA RESULT:     -10.4      3.068     11.799
REMARK  Name = 5326608
REMARK  8 active torsions:
REMARK  status: ('A' for Active; 'I' for Inactive)
REMARK    1  A    between atoms: N_3  and  S_29
REMARK    2  A    between atoms: C_5  and  C_13
REMARK    3  A    between atoms: N_12  and  C_15
REMARK    4  A    between atoms: C_15  and  C_19
REMARK    5  A    between atoms: N_18  and  C_24
REMARK    6  A    between atoms: N_18  and  O_27
REMARK    7  A    between atoms: S_29  and  C_32
REMARK    8  A    between atoms: C_32  and  C_33
REMARK                            x       y       z     vdW  Elec       q    Type
REMARK                         _______ _______ _______ _____ _____    ______ ____
ROOT
ATOM      1  O   UNL     1      33.712 -15.108 -24.687  0.00  0.00    -0.273 OA
ATOM      2  N   UNL     1      33.798 -14.510 -22.462  0.00  0.00    -0.272 N 
ATOM      3  N   UNL     1      35.376 -16.718 -21.855  0.00  0.00    -0.148 NA
ATOM      4  C   UNL     1      34.203 -14.771 -21.091  0.00  0.00    +0.094 C 
ATOM      5  C   UNL     1      32.936 -13.337 -22.543  0.00  0.00    +0.152 C 
ATOM      6  C   UNL     1      33.078 -14.147 -20.273  0.00  0.00    +0.024 C 
ATOM      7  C   UNL     1      32.707 -12.912 -21.090  0.00  0.00    +0.031 C 
ATOM      8  C   UNL     1      34.409 -16.248 -20.832  0.00  0.00    +0.116 C 
ATOM      9  C   UNL     1      34.081 -15.337 -23.532  0.00  0.00    +0.244 C 
ATOM     10  C   UNL     1      34.843 -16.604 -23.231  0.00  0.00    +0.180 C 
ENDROOT
BRANCH   5  13
ATOM     11  O   UNL     1      34.517 -12.567 -24.154  0.00  0.00    -0.273 OA
ATOM     12  N   UNL     1      33.345 -11.004 -22.888  0.00  0.00    -0.303 N 
ATOM     13  C   UNL     1      33.687 -12.282 -23.295  0.00  0.00    +0.241 C 
ATOM     14  H   UNL     1      32.662 -10.902 -22.187  0.00  0.00    +0.149 HD
BRANCH  12  15
ATOM     15  C   UNL     1      33.943  -9.812 -23.443  0.00  0.00    +0.089 C 
BRANCH  15  18
ATOM     16  N   UNL     1      31.493  -6.400 -22.605  0.00  0.00    -0.279 N 
ATOM     17  N   UNL     1      32.161  -5.039 -20.922  0.00  0.00    -0.370 N 
ATOM     18  C   UNL     1      32.915  -8.696 -23.610  0.00  0.00    +0.023 C 
ATOM     19  C   UNL     1      31.789  -8.828 -22.575  0.00  0.00    +0.023 C 
ATOM     20  C   UNL     1      33.581  -7.317 -23.492  0.00  0.00    +0.023 C 
ATOM     21  C   UNL     1      30.791  -7.678 -22.690  0.00  0.00    +0.094 C 
ATOM     22  C   UNL     1      32.550  -6.193 -23.591  0.00  0.00    +0.094 C 
ATOM     23  C   UNL     1      31.125  -5.435 -21.732  0.00  0.00    +0.215 C 
ATOM     24  H   UNL     1      33.048  -5.454 -21.019  0.00  0.00    +0.159 HD
ATOM     25  H   UNL     1      32.016  -4.340 -20.243  0.00  0.00    +0.159 HD
BRANCH  23  26
ATOM     26  N   UNL     1      29.938  -4.899 -21.622  0.00  0.00    -0.101 NA
BRANCH  26  27
ATOM     27  O   UNL     1      30.034  -3.504 -21.633  0.00  0.00    -0.263 OA
ATOM     28  H   UNL     1      30.457  -3.068 -22.346  0.00  0.00    +0.247 HD
ENDBRANCH  26  27
ENDBRANCH  23  26
ENDBRANCH  15  18
ENDBRANCH  12  15
ENDBRANCH   5  13
BRANCH   3  29
ATOM     29  S   UNL     1      36.197 -18.175 -21.496  0.00  0.00    +0.049 S 
ATOM     30  O   UNL     1      36.359 -18.279 -20.062  0.00  0.00    -0.157 OA
ATOM     31  O   UNL     1      37.320 -18.313 -22.399  0.00  0.00    -0.157 OA
BRANCH  29  32
ATOM     32  C   UNL     1      34.949 -19.335 -21.992  0.00  0.00    +0.195 C 
BRANCH  32  33
ATOM     33  C   UNL     1      34.646 -20.210 -20.813  0.00  0.00    +0.003 C 
ATOM     34  C   UNL     1      35.659 -20.976 -20.236  0.00  0.00    -0.003 C 
ATOM     35  C   UNL     1      33.352 -20.258 -20.296  0.00  0.00    -0.003 C 
ATOM     36  C   UNL     1      35.376 -21.791 -19.139  0.00  0.00    -0.000 C 
ATOM     37  C   UNL     1      33.071 -21.074 -19.199  0.00  0.00    -0.000 C 
ATOM     38  C   UNL     1      34.083 -21.840 -18.621  0.00  0.00    -0.000 C 
ENDBRANCH  32  33
ENDBRANCH  29  32
ENDBRANCH   3  29
TORSDOF 8
ENDMDL
MODEL 5
REMARK VINA RESULT:     -10.0     10.213     14.144
REMARK  Name = 5326608
REMARK  8 active torsions:
REMARK  status: ('A' for Active; 'I' for Inactive)
REMARK    1  A    between atoms: N_3  and  S_29
REMARK    2  A    between atoms: C_5  and  C_13
REMARK    3  A    between atoms: N_12  and  C_15
REMARK    4  A    between atoms: C_15  and  C_19
REMARK    5  A    between atoms: N_18  and  C_24
REMARK    6  A    between atoms: N_18  and  O_27
REMARK    7  A    between atoms: S_29  and  C_32
REMARK    8  A    between atoms: C_32  and  C_33
REMARK                            x       y       z     vdW  Elec       q    Type
REMARK                         _______ _______ _______ _____ _____    ______ ____
ROOT
ATOM      1  O   UNL     1      35.472 -22.599 -14.265  0.00  0.00    -0.273 OA
ATOM      2  N   UNL     1      33.262 -23.081 -14.707  0.00  0.00    -0.272 N 
ATOM      3  N   UNL     1      33.738 -23.098 -17.447  0.00  0.00    -0.148 NA
ATOM      4  C   UNL     1      32.172 -23.299 -15.642  0.00  0.00    +0.094 C 
ATOM      5  C   UNL     1      32.779 -23.061 -13.331  0.00  0.00    +0.152 C 
ATOM      6  C   UNL     1      30.957 -22.772 -14.888  0.00  0.00    +0.024 C 
ATOM      7  C   UNL     1      31.256 -23.164 -13.443  0.00  0.00    +0.031 C 
ATOM      8  C   UNL     1      32.418 -22.616 -16.970  0.00  0.00    +0.116 C 
ATOM      9  C   UNL     1      34.563 -22.799 -15.075  0.00  0.00    +0.244 C 
ATOM     10  C   UNL     1      34.845 -22.691 -16.553  0.00  0.00    +0.180 C 
ENDROOT
BRANCH   5  13
ATOM     11  O   UNL     1      32.894 -25.389 -12.826  0.00  0.00    -0.273 OA
ATOM     12  N   UNL     1      34.389 -23.935 -11.791  0.00  0.00    -0.303 N 
ATOM     13  C   UNL     1      33.347 -24.262 -12.641  0.00  0.00    +0.241 C 
ATOM     14  H   UNL     1      34.665 -22.993 -11.728  0.00  0.00    +0.149 HD
BRANCH  12  15
ATOM     15  C   UNL     1      35.092 -24.912 -10.992  0.00  0.00    +0.089 C 
BRANCH  15  18
ATOM     16  N   UNL     1      38.813 -24.758 -13.110  0.00  0.00    -0.279 N 
ATOM     17  N   UNL     1      38.768 -23.913 -15.211  0.00  0.00    -0.370 N 
ATOM     18  C   UNL     1      36.592 -24.895 -11.278  0.00  0.00    +0.023 C 
ATOM     19  C   UNL     1      36.997 -26.090 -12.153  0.00  0.00    +0.023 C 
ATOM     20  C   UNL     1      37.004 -23.580 -11.958  0.00  0.00    +0.023 C 
ATOM     21  C   UNL     1      38.483 -26.045 -12.501  0.00  0.00    +0.094 C 
ATOM     22  C   UNL     1      38.491 -23.580 -12.309  0.00  0.00    +0.094 C 
ATOM     23  C   UNL     1      39.458 -24.668 -14.295  0.00  0.00    +0.215 C 
ATOM     24  H   UNL     1      37.904 -23.511 -14.966  0.00  0.00    +0.159 HD
ATOM     25  H   UNL     1      39.138 -23.774 -16.113  0.00  0.00    +0.159 HD
BRANCH  23  26
ATOM     26  N   UNL     1      40.608 -25.212 -14.596  0.00  0.00    -0.101 NA
BRANCH  26  27
ATOM     27  O   UNL     1      40.474 -26.038 -15.716  0.00  0.00    -0.263 OA
ATOM     28  H   UNL     1      41.206 -26.536 -16.022  0.00  0.00    +0.247 HD
ENDBRANCH  26  27
ENDBRANCH  23  26
ENDBRANCH  15  18
ENDBRANCH  12  15
ENDBRANCH   5  13
BRANCH   3  29
ATOM     29  S   UNL     1      34.038 -22.929 -19.123  0.00  0.00    +0.049 S 
ATOM     30  O   UNL     1      33.086 -21.988 -19.674  0.00  0.00    -0.157 OA
ATOM     31  O   UNL     1      34.228 -24.243 -19.698  0.00  0.00    -0.157 OA
BRANCH  29  32
ATOM     32  C   UNL     1      35.619 -22.127 -19.050  0.00  0.00    +0.195 C 
BRANCH  32  33
ATOM     33  C   UNL     1      35.529 -20.867 -19.856  0.00  0.00    +0.003 C 
ATOM     34  C   UNL     1      36.665 -20.079 -20.046  0.00  0.00    -0.003 C 
ATOM     35  C   UNL     1      34.311 -20.483 -20.416  0.00  0.00    -0.003 C 
ATOM     36  C   UNL     1      36.581 -18.906 -20.796  0.00  0.00    -0.000 C 
ATOM     37  C   UNL     1      34.229 -19.309 -21.167  0.00  0.00    -0.000 C 
ATOM     38  C   UNL     1      35.364 -18.521 -21.357  0.00  0.00    -0.000 C 
ENDBRANCH  32  33
ENDBRANCH  29  32
ENDBRANCH   3  29
TORSDOF 8
ENDMDL
MODEL 6
REMARK VINA RESULT:      -9.5      5.448     14.132
REMARK  Name = 5326608
REMARK  8 active torsions:
REMARK  status: ('A' for Active; 'I' for Inactive)
REMARK    1  A    between atoms: N_3  and  S_29
REMARK    2  A    between atoms: C_5  and  C_13
REMARK    3  A    between atoms: N_12  and  C_15
REMARK    4  A    between atoms: C_15  and  C_19
REMARK    5  A    between atoms: N_18  and  C_24
REMARK    6  A    between atoms: N_18  and  O_27
REMARK    7  A    between atoms: S_29  and  C_32
REMARK    8  A    between atoms: C_32  and  C_33
REMARK                            x       y       z     vdW  Elec       q    Type
REMARK                         _______ _______ _______ _____ _____    ______ ____
ROOT
ATOM      1  O   UNL     1      37.544 -21.182 -19.687  0.00  0.00    -0.273 OA
ATOM      2  N   UNL     1      35.272 -20.827 -19.528  0.00  0.00    -0.272 N 
ATOM      3  N   UNL     1      35.156 -22.183 -17.103  0.00  0.00    -0.148 NA
ATOM      4  C   UNL     1      34.000 -21.020 -18.853  0.00  0.00    +0.094 C 
ATOM      5  C   UNL     1      35.093 -20.141 -20.802  0.00  0.00    +0.152 C 
ATOM      6  C   UNL     1      32.996 -21.028 -20.000  0.00  0.00    +0.024 C 
ATOM      7  C   UNL     1      33.578 -20.001 -20.969  0.00  0.00    +0.031 C 
ATOM      8  C   UNL     1      33.988 -22.280 -18.014  0.00  0.00    +0.116 C 
ATOM      9  C   UNL     1      36.476 -21.341 -19.089  0.00  0.00    +0.244 C 
ATOM     10  C   UNL     1      36.443 -22.177 -17.833  0.00  0.00    +0.180 C 
ENDROOT
BRANCH   5  13
ATOM     11  O   UNL     1      36.900 -18.671 -20.290  0.00  0.00    -0.273 OA
ATOM     12  N   UNL     1      34.886 -17.767 -21.028  0.00  0.00    -0.303 N 
ATOM     13  C   UNL     1      35.742 -18.797 -20.679  0.00  0.00    +0.241 C 
ATOM     14  H   UNL     1      33.976 -17.995 -21.328  0.00  0.00    +0.149 HD
BRANCH  12  15
ATOM     15  C   UNL     1      35.263 -16.373 -20.975  0.00  0.00    +0.089 C 
BRANCH  15  18
ATOM     16  N   UNL     1      33.263 -12.975 -22.649  0.00  0.00    -0.279 N 
ATOM     17  N   UNL     1      34.546 -11.451 -23.727  0.00  0.00    -0.370 N 
ATOM     18  C   UNL     1      34.160 -15.473 -21.526  0.00  0.00    +0.023 C 
ATOM     19  C   UNL     1      34.007 -14.207 -20.671  0.00  0.00    +0.023 C 
ATOM     20  C   UNL     1      34.444 -15.091 -22.987  0.00  0.00    +0.023 C 
ATOM     21  C   UNL     1      32.952 -13.268 -21.252  0.00  0.00    +0.094 C 
ATOM     22  C   UNL     1      33.380 -14.136 -23.527  0.00  0.00    +0.094 C 
ATOM     23  C   UNL     1      33.343 -11.709 -23.117  0.00  0.00    +0.215 C 
ATOM     24  H   UNL     1      35.231 -12.156 -23.783  0.00  0.00    +0.159 HD
ATOM     25  H   UNL     1      34.724 -10.561 -24.108  0.00  0.00    +0.159 HD
BRANCH  23  26
ATOM     26  N   UNL     1      32.418 -10.789 -23.030  0.00  0.00    -0.101 NA
BRANCH  26  27
ATOM     27  O   UNL     1      32.557  -9.864 -24.068  0.00  0.00    -0.263 OA
ATOM     28  H   UNL     1      32.356 -10.113 -24.949  0.00  0.00    +0.247 HD
ENDBRANCH  26  27
ENDBRANCH  23  26
ENDBRANCH  15  18
ENDBRANCH  12  15
ENDBRANCH   5  13
BRANCH   3  29
ATOM     29  S   UNL     1      35.100 -23.170 -15.706  0.00  0.00    +0.049 S 
ATOM     30  O   UNL     1      34.652 -24.492 -16.086  0.00  0.00    -0.157 OA
ATOM     31  O   UNL     1      34.465 -22.430 -14.637  0.00  0.00    -0.157 OA
BRANCH  29  32
ATOM     32  C   UNL     1      36.837 -23.262 -15.353  0.00  0.00    +0.195 C 
BRANCH  32  33
ATOM     33  C   UNL     1      37.028 -24.270 -14.261  0.00  0.00    +0.003 C 
ATOM     34  C   UNL     1      36.913 -23.881 -12.926  0.00  0.00    -0.003 C 
ATOM     35  C   UNL     1      37.321 -25.595 -14.579  0.00  0.00    -0.003 C 
ATOM     36  C   UNL     1      37.090 -24.819 -11.910  0.00  0.00    -0.000 C 
ATOM     37  C   UNL     1      37.499 -26.533 -13.562  0.00  0.00    -0.000 C 
ATOM     38  C   UNL     1      37.384 -26.145 -12.227  0.00  0.00    -0.000 C 
ENDBRANCH  32  33
ENDBRANCH  29  32
ENDBRANCH   3  29
TORSDOF 8
ENDMDL
MODEL 7
REMARK VINA RESULT:      -9.3      5.067     13.346
REMARK  Name = 5326608
REMARK  8 active torsions:
REMARK  status: ('A' for Active; 'I' for Inactive)
REMARK    1  A    between atoms: N_3  and  S_29
REMARK    2  A    between atoms: C_5  and  C_13
REMARK    3  A    between atoms: N_12  and  C_15
REMARK    4  A    between atoms: C_15  and  C_19
REMARK    5  A    between atoms: N_18  and  C_24
REMARK    6  A    between atoms: N_18  and  O_27
REMARK    7  A    between atoms: S_29  and  C_32
REMARK    8  A    between atoms: C_32  and  C_33
REMARK                            x       y       z     vdW  Elec       q    Type
REMARK                         _______ _______ _______ _____ _____    ______ ____
ROOT
ATOM      1  O   UNL     1      37.540 -21.087 -19.682  0.00  0.00    -0.273 OA
ATOM      2  N   UNL     1      35.262 -20.740 -19.630  0.00  0.00    -0.272 N 
ATOM      3  N   UNL     1      35.040 -22.075 -17.200  0.00  0.00    -0.148 NA
ATOM      4  C   UNL     1      33.961 -20.932 -19.012  0.00  0.00    +0.094 C 
ATOM      5  C   UNL     1      35.138 -20.066 -20.917  0.00  0.00    +0.152 C 
ATOM      6  C   UNL     1      33.010 -20.955 -20.203  0.00  0.00    +0.024 C 
ATOM      7  C   UNL     1      33.631 -19.934 -21.154  0.00  0.00    +0.031 C 
ATOM      8  C   UNL     1      33.916 -22.185 -18.162  0.00  0.00    +0.116 C 
ATOM      9  C   UNL     1      36.446 -21.245 -19.132  0.00  0.00    +0.244 C 
ATOM     10  C   UNL     1      36.360 -22.069 -17.871  0.00  0.00    +0.180 C 
ENDROOT
BRANCH   5  13
ATOM     11  O   UNL     1      36.930 -18.587 -20.380  0.00  0.00    -0.273 OA
ATOM     12  N   UNL     1      34.914 -17.692 -21.123  0.00  0.00    -0.303 N 
ATOM     13  C   UNL     1      35.776 -18.718 -20.777  0.00  0.00    +0.241 C 
ATOM     14  H   UNL     1      34.008 -17.924 -21.430  0.00  0.00    +0.149 HD
BRANCH  12  15
ATOM     15  C   UNL     1      35.280 -16.296 -21.054  0.00  0.00    +0.089 C 
BRANCH  15  18
ATOM     16  N   UNL     1      33.252 -12.887 -22.674  0.00  0.00    -0.279 N 
ATOM     17  N   UNL     1      34.528 -11.318 -23.694  0.00  0.00    -0.370 N 
ATOM     18  C   UNL     1      34.171 -15.399 -21.600  0.00  0.00    +0.023 C 
ATOM     19  C   UNL     1      33.987 -14.157 -20.715  0.00  0.00    +0.023 C 
ATOM     20  C   UNL     1      34.471 -14.977 -23.046  0.00  0.00    +0.023 C 
ATOM     21  C   UNL     1      32.926 -13.220 -21.289  0.00  0.00    +0.094 C 
ATOM     22  C   UNL     1      33.400 -14.024 -23.578  0.00  0.00    +0.094 C 
ATOM     23  C   UNL     1      33.320 -11.609 -23.109  0.00  0.00    +0.215 C 
ATOM     24  H   UNL     1      35.224 -12.011 -23.757  0.00  0.00    +0.159 HD
ATOM     25  H   UNL     1      34.697 -10.416 -24.051  0.00  0.00    +0.159 HD
BRANCH  23  26
ATOM     26  N   UNL     1      32.380 -10.706 -23.014  0.00  0.00    -0.101 NA
BRANCH  26  27
ATOM     27  O   UNL     1      32.474  -9.796 -24.070  0.00  0.00    -0.263 OA
ATOM     28  H   UNL     1      33.158  -9.156 -24.080  0.00  0.00    +0.247 HD
ENDBRANCH  26  27
ENDBRANCH  23  26
ENDBRANCH  15  18
ENDBRANCH  12  15
ENDBRANCH   5  13
BRANCH   3  29
ATOM     29  S   UNL     1      34.926 -23.049 -15.799  0.00  0.00    +0.049 S 
ATOM     30  O   UNL     1      34.524 -22.217 -14.685  0.00  0.00    -0.157 OA
ATOM     31  O   UNL     1      36.091 -23.903 -15.727  0.00  0.00    -0.157 OA
BRANCH  29  32
ATOM     32  C   UNL     1      33.537 -24.051 -16.261  0.00  0.00    +0.195 C 
BRANCH  32  33
ATOM     33  C   UNL     1      32.474 -23.867 -15.221  0.00  0.00    +0.003 C 
ATOM     34  C   UNL     1      32.550 -24.567 -14.016  0.00  0.00    -0.003 C 
ATOM     35  C   UNL     1      31.410 -22.998 -15.458  0.00  0.00    -0.003 C 
ATOM     36  C   UNL     1      31.561 -24.395 -13.048  0.00  0.00    -0.000 C 
ATOM     37  C   UNL     1      30.421 -22.827 -14.489  0.00  0.00    -0.000 C 
ATOM     38  C   UNL     1      30.496 -23.526 -13.284  0.00  0.00    -0.000 C 
ENDBRANCH  32  33
ENDBRANCH  29  32
ENDBRANCH   3  29
TORSDOF 8
ENDMDL
MODEL 8
REMARK VINA RESULT:      -9.2      8.997     13.118
REMARK  Name = 5326608
REMARK  8 active torsions:
REMARK  status: ('A' for Active; 'I' for Inactive)
REMARK    1  A    between atoms: N_3  and  S_29
REMARK    2  A    between atoms: C_5  and  C_13
REMARK    3  A    between atoms: N_12  and  C_15
REMARK    4  A    between atoms: C_15  and  C_19
REMARK    5  A    between atoms: N_18  and  C_24
REMARK    6  A    between atoms: N_18  and  O_27
REMARK    7  A    between atoms: S_29  and  C_32
REMARK    8  A    between atoms: C_32  and  C_33
REMARK                            x       y       z     vdW  Elec       q    Type
REMARK                         _______ _______ _______ _____ _____    ______ ____
ROOT
ATOM      1  O   UNL     1      33.346 -24.434 -17.571  0.00  0.00    -0.273 OA
ATOM      2  N   UNL     1      34.835 -23.307 -16.220  0.00  0.00    -0.272 N 
ATOM      3  N   UNL     1      35.536 -21.595 -18.297  0.00  0.00    -0.148 NA
ATOM      4  C   UNL     1      35.856 -22.293 -16.024  0.00  0.00    +0.094 C 
ATOM      5  C   UNL     1      34.665 -24.121 -15.022  0.00  0.00    +0.152 C 
ATOM      6  C   UNL     1      36.746 -22.901 -14.946  0.00  0.00    +0.024 C 
ATOM      7  C   UNL     1      35.748 -23.636 -14.055  0.00  0.00    +0.031 C 
ATOM      8  C   UNL     1      36.583 -21.964 -17.311  0.00  0.00    +0.116 C 
ATOM      9  C   UNL     1      34.199 -23.556 -17.420  0.00  0.00    +0.244 C 
ATOM     10  C   UNL     1      34.627 -22.723 -18.603  0.00  0.00    +0.180 C 
ENDROOT
BRANCH   5  13
ATOM     11  O   UNL     1      33.070 -22.847 -13.790  0.00  0.00    -0.273 OA
ATOM     12  N   UNL     1      32.382 -24.813 -14.829  0.00  0.00    -0.303 N 
ATOM     13  C   UNL     1      33.299 -23.837 -14.479  0.00  0.00    +0.241 C 
ATOM     14  H   UNL     1      32.686 -25.563 -15.390  0.00  0.00    +0.149 HD
BRANCH  12  15
ATOM     15  C   UNL     1      30.999 -24.784 -14.412  0.00  0.00    +0.089 C 
BRANCH  15  18
ATOM     16  N   UNL     1      27.700 -22.491 -15.899  0.00  0.00    -0.279 N 
ATOM     17  N   UNL     1      25.967 -22.141 -14.484  0.00  0.00    -0.370 N 
ATOM     18  C   UNL     1      30.176 -23.825 -15.268  0.00  0.00    +0.023 C 
ATOM     19  C   UNL     1      29.009 -24.558 -15.944  0.00  0.00    +0.023 C 
ATOM     20  C   UNL     1      29.647 -22.655 -14.425  0.00  0.00    +0.023 C 
ATOM     21  C   UNL     1      28.139 -23.595 -16.750  0.00  0.00    +0.094 C 
ATOM     22  C   UNL     1      28.766 -21.725 -15.259  0.00  0.00    +0.094 C 
ATOM     23  C   UNL     1      26.398 -22.144 -15.787  0.00  0.00    +0.215 C 
ATOM     24  H   UNL     1      26.590 -22.376 -13.759  0.00  0.00    +0.159 HD
ATOM     25  H   UNL     1      25.034 -21.904 -14.274  0.00  0.00    +0.159 HD
BRANCH  23  26
ATOM     26  N   UNL     1      25.590 -21.836 -16.768  0.00  0.00    -0.101 NA
BRANCH  26  27
ATOM     27  O   UNL     1      26.000 -20.646 -17.376  0.00  0.00    -0.263 OA
ATOM     28  H   UNL     1      25.414 -19.916 -17.422  0.00  0.00    +0.247 HD
ENDBRANCH  26  27
ENDBRANCH  23  26
ENDBRANCH  15  18
ENDBRANCH  12  15
ENDBRANCH   5  13
BRANCH   3  29
ATOM     29  S   UNL     1      36.062 -20.680 -19.642  0.00  0.00    +0.049 S 
ATOM     30  O   UNL     1      36.608 -21.581 -20.635  0.00  0.00    -0.157 OA
ATOM     31  O   UNL     1      36.806 -19.534 -19.165  0.00  0.00    -0.157 OA
BRANCH  29  32
ATOM     32  C   UNL     1      34.489 -20.107 -20.230  0.00  0.00    +0.195 C 
BRANCH  32  33
ATOM     33  C   UNL     1      34.745 -19.111 -21.320  0.00  0.00    +0.003 C 
ATOM     34  C   UNL     1      34.494 -19.452 -22.649  0.00  0.00    -0.003 C 
ATOM     35  C   UNL     1      35.233 -17.843 -21.005  0.00  0.00    -0.003 C 
ATOM     36  C   UNL     1      34.731 -18.524 -23.663  0.00  0.00    -0.000 C 
ATOM     37  C   UNL     1      35.470 -16.916 -22.020  0.00  0.00    -0.000 C 
ATOM     38  C   UNL     1      35.219 -17.256 -23.349  0.00  0.00    -0.000 C 
ENDBRANCH  32  33
ENDBRANCH  29  32
ENDBRANCH   3  29
TORSDOF 8
ENDMDL
MODEL 9
REMARK VINA RESULT:      -9.1      7.593     11.861
REMARK  Name = 5326608
REMARK  8 active torsions:
REMARK  status: ('A' for Active; 'I' for Inactive)
REMARK    1  A    between atoms: N_3  and  S_29
REMARK    2  A    between atoms: C_5  and  C_13
REMARK    3  A    between atoms: N_12  and  C_15
REMARK    4  A    between atoms: C_15  and  C_19
REMARK    5  A    between atoms: N_18  and  C_24
REMARK    6  A    between atoms: N_18  and  O_27
REMARK    7  A    between atoms: S_29  and  C_32
REMARK    8  A    between atoms: C_32  and  C_33
REMARK                            x       y       z     vdW  Elec       q    Type
REMARK                         _______ _______ _______ _____ _____    ______ ____
ROOT
ATOM      1  O   UNL     1      33.800 -23.791 -17.855  0.00  0.00    -0.273 OA
ATOM      2  N   UNL     1      35.525 -22.378 -17.269  0.00  0.00    -0.272 N 
ATOM      3  N   UNL     1      35.002 -20.721 -19.440  0.00  0.00    -0.148 NA
ATOM      4  C   UNL     1      36.361 -21.218 -17.527  0.00  0.00    +0.094 C 
ATOM      5  C   UNL     1      36.009 -23.129 -16.117  0.00  0.00    +0.152 C 
ATOM      6  C   UNL     1      37.707 -21.622 -16.937  0.00  0.00    +0.024 C 
ATOM      7  C   UNL     1      37.309 -22.433 -15.706  0.00  0.00    +0.031 C 
ATOM      8  C   UNL     1      36.412 -20.872 -19.001  0.00  0.00    +0.116 C 
ATOM      9  C   UNL     1      34.488 -22.791 -18.081  0.00  0.00    +0.244 C 
ATOM     10  C   UNL     1      34.237 -21.984 -19.331  0.00  0.00    +0.180 C 
ENDROOT
BRANCH   5  13
ATOM     11  O   UNL     1      34.887 -22.005 -14.338  0.00  0.00    -0.273 OA
ATOM     12  N   UNL     1      34.190 -24.143 -14.938  0.00  0.00    -0.303 N 
ATOM     13  C   UNL     1      34.976 -23.009 -15.039  0.00  0.00    +0.241 C 
ATOM     14  H   UNL     1      34.357 -24.887 -15.560  0.00  0.00    +0.149 HD
BRANCH  12  15
ATOM     15  C   UNL     1      33.134 -24.288 -13.961  0.00  0.00    +0.089 C 
BRANCH  15  18
ATOM     16  N   UNL     1      29.406 -23.142 -15.732  0.00  0.00    -0.279 N 
ATOM     17  N   UNL     1      28.061 -24.808 -16.472  0.00  0.00    -0.370 N 
ATOM     18  C   UNL     1      31.907 -23.460 -14.336  0.00  0.00    +0.023 C 
ATOM     19  C   UNL     1      31.848 -23.226 -15.853  0.00  0.00    +0.023 C 
ATOM     20  C   UNL     1      30.619 -24.146 -13.858  0.00  0.00    +0.023 C 
ATOM     21  C   UNL     1      30.589 -22.456 -16.247  0.00  0.00    +0.094 C 
ATOM     22  C   UNL     1      29.380 -23.359 -14.288  0.00  0.00    +0.094 C 
ATOM     23  C   UNL     1      28.362 -23.469 -16.526  0.00  0.00    +0.215 C 
ATOM     24  H   UNL     1      28.589 -25.407 -15.896  0.00  0.00    +0.159 HD
ATOM     25  H   UNL     1      27.318 -25.167 -17.009  0.00  0.00    +0.159 HD
BRANCH  23  26
ATOM     26  N   UNL     1      27.677 -22.652 -17.283  0.00  0.00    -0.101 NA
BRANCH  26  27
ATOM     27  O   UNL     1      27.208 -21.573 -16.529  0.00  0.00    -0.263 OA
ATOM     28  H   UNL     1      26.441 -21.108 -16.801  0.00  0.00    +0.247 HD
ENDBRANCH  26  27
ENDBRANCH  23  26
ENDBRANCH  15  18
ENDBRANCH  12  15
ENDBRANCH   5  13
BRANCH   3  29
ATOM     29  S   UNL     1      34.758 -19.828 -20.879  0.00  0.00    +0.049 S 
ATOM     30  O   UNL     1      33.420 -19.276 -20.864  0.00  0.00    -0.157 OA
ATOM     31  O   UNL     1      35.247 -20.604 -21.998  0.00  0.00    -0.157 OA
BRANCH  29  32
ATOM     32  C   UNL     1      35.900 -18.502 -20.589  0.00  0.00    +0.195 C 
BRANCH  32  33
ATOM     33  C   UNL     1      35.422 -17.310 -21.361  0.00  0.00    +0.003 C 
ATOM     34  C   UNL     1      35.019 -16.158 -20.686  0.00  0.00    -0.003 C 
ATOM     35  C   UNL     1      35.379 -17.354 -22.754  0.00  0.00    -0.003 C 
ATOM     36  C   UNL     1      34.574 -15.049 -21.405  0.00  0.00    -0.000 C 
ATOM     37  C   UNL     1      34.933 -16.244 -23.473  0.00  0.00    -0.000 C 
ATOM     38  C   UNL     1      34.531 -15.091 -22.798  0.00  0.00    -0.000 C 
ENDBRANCH  32  33
ENDBRANCH  29  32
ENDBRANCH   3  29
TORSDOF 8
ENDMDL
