MODEL 1
REMARK VINA RESULT:     -11.9      0.000      0.000
REMARK  Name = 216239
REMARK  6 active torsions:
REMARK  status: ('A' for Active; 'I' for Inactive)
REMARK    1  A    between atoms: C_1  and  N_9
REMARK    2  A    between atoms: C_2  and  O_24
REMARK    3  A    between atoms: N_8  and  C_14
REMARK    4  A    between atoms: C_15  and  C_23
REMARK    5  A    between atoms: O_24  and  C_26
REMARK    6  A    between atoms: C_28  and  C_33
REMARK                            x       y       z     vdW  Elec       q    Type
REMARK                         _______ _______ _______ _____ _____    ______ ____
ROOT
ATOM      1  C   UNL     1      33.491 -14.217 -22.932  0.00  0.00    +0.052 C 
ATOM      2  C   UNL     1      34.940 -16.567 -23.162  0.00  0.00    +0.145 C 
ATOM      3  C   UNL     1      34.208 -14.679 -21.842  0.00  0.00    +0.018 C 
ATOM      4  C   UNL     1      33.482 -14.903 -24.135  0.00  0.00    +0.018 C 
ATOM      5  C   UNL     1      34.938 -15.863 -21.958  0.00  0.00    +0.039 C 
ATOM      6  C   UNL     1      34.211 -16.088 -24.251  0.00  0.00    +0.039 C 
ENDROOT
BRANCH   1   9
ATOM      7  O   UNL     1      34.240 -11.415 -23.643  0.00  0.00    -0.252 OA
ATOM      8  N   UNL     1      32.110 -10.798 -22.887  0.00  0.00    -0.268 N 
ATOM      9  N   UNL     1      32.751 -13.017 -22.815  0.00  0.00    -0.268 N 
ATOM     10  C   UNL     1      33.152 -11.717 -23.166  0.00  0.00    +0.308 C 
ATOM     11  H   UNL     1      31.290 -11.185 -22.503  0.00  0.00    +0.156 HD
ATOM     12  H   UNL     1      31.845 -13.102 -22.441  0.00  0.00    +0.156 HD
BRANCH   8  14
ATOM     13 CL   UNL     1      32.040  -4.953 -23.759  0.00  0.00    -0.082 Cl
ATOM     14  C   UNL     1      32.091  -9.417 -23.083  0.00  0.00    +0.052 C 
ATOM     15  C   UNL     1      31.877  -7.180 -22.197  0.00  0.00    +0.083 C 
ATOM     16  C   UNL     1      31.895  -8.561 -22.000  0.00  0.00    +0.019 C 
ATOM     17  C   UNL     1      32.269  -8.893 -24.364  0.00  0.00    +0.016 C 
ATOM     18  C   UNL     1      32.054  -6.655 -23.477  0.00  0.00    +0.062 C 
ATOM     19  C   UNL     1      32.251  -7.512 -24.560  0.00  0.00    +0.013 C 
BRANCH  15  23
ATOM     20  F   UNL     1      32.681  -5.408 -20.806  0.00  0.00    -0.166 F 
ATOM     21  F   UNL     1      30.535  -5.537 -21.091  0.00  0.00    -0.166 F 
ATOM     22  F   UNL     1      31.554  -7.001 -19.848  0.00  0.00    -0.166 F 
ATOM     23  C   UNL     1      31.666  -6.296 -21.010  0.00  0.00    +0.419 C 
ENDBRANCH  15  23
ENDBRANCH   8  14
ENDBRANCH   1   9
BRANCH   2  24
ATOM     24  O   UNL     1      35.650 -17.722 -23.274  0.00  0.00    -0.453 OA
BRANCH  24  26
ATOM     25  N   UNL     1      36.156 -20.021 -19.849  0.00  0.00    -0.239 NA
ATOM     26  C   UNL     1      35.818 -18.487 -22.132  0.00  0.00    +0.149 C 
ATOM     27  C   UNL     1      34.744 -19.188 -21.626  0.00  0.00    +0.061 C 
ATOM     28  C   UNL     1      34.964 -19.940 -20.484  0.00  0.00    +0.137 C 
ATOM     29  C   UNL     1      37.056 -18.532 -21.528  0.00  0.00    +0.058 C 
ATOM     30  C   UNL     1      37.173 -19.313 -20.388  0.00  0.00    +0.102 C 
BRANCH  28  33
ATOM     31  O   UNL     1      32.708 -20.541 -20.271  0.00  0.00    -0.268 OA
ATOM     32  N   UNL     1      34.226 -21.638 -18.905  0.00  0.00    -0.298 N 
ATOM     33  C   UNL     1      33.881 -20.706 -19.891  0.00  0.00    +0.264 C 
ATOM     34  C   UNL     1      33.266 -22.490 -18.239  0.00  0.00    +0.111 C 
ATOM     35  H   UNL     1      35.174 -21.718 -18.650  0.00  0.00    +0.150 HD
ENDBRANCH  28  33
ENDBRANCH  24  26
ENDBRANCH   2  24
TORSDOF 6
ENDMDL
MODEL 2
REMARK VINA RESULT:     -11.7      5.129      8.367
REMARK  Name = 216239
REMARK  6 active torsions:
REMARK  status: ('A' for Active; 'I' for Inactive)
REMARK    1  A    between atoms: C_1  and  N_9
REMARK    2  A    between atoms: C_2  and  O_24
REMARK    3  A    between atoms: N_8  and  C_14
REMARK    4  A    between atoms: C_15  and  C_23
REMARK    5  A    between atoms: O_24  and  C_26
REMARK    6  A    between atoms: C_28  and  C_33
REMARK                            x       y       z     vdW  Elec       q    Type
REMARK                         _______ _______ _______ _____ _____    ______ ____
ROOT
ATOM      1  C   UNL     1      35.766 -21.053 -18.978  0.00  0.00    +0.052 C 
ATOM      2  C   UNL     1      35.266 -22.939 -17.012  0.00  0.00    +0.145 C 
ATOM      3  C   UNL     1      36.634 -21.159 -17.905  0.00  0.00    +0.018 C 
ATOM      4  C   UNL     1      34.653 -21.869 -19.090  0.00  0.00    +0.018 C 
ATOM      5  C   UNL     1      36.383 -22.109 -16.915  0.00  0.00    +0.039 C 
ATOM      6  C   UNL     1      34.400 -22.818 -18.100  0.00  0.00    +0.039 C 
ENDROOT
BRANCH   1   9
ATOM      7  O   UNL     1      33.875 -19.343 -20.533  0.00  0.00    -0.252 OA
ATOM      8  N   UNL     1      35.764 -18.466 -21.605  0.00  0.00    -0.268 N 
ATOM      9  N   UNL     1      36.022 -20.089 -19.982  0.00  0.00    -0.268 N 
ATOM     10  C   UNL     1      35.091 -19.307 -20.686  0.00  0.00    +0.308 C 
ATOM     11  H   UNL     1      36.745 -18.546 -21.619  0.00  0.00    +0.156 HD
ATOM     12  H   UNL     1      36.967 -19.949 -20.216  0.00  0.00    +0.156 HD
BRANCH   8  14
ATOM     13 CL   UNL     1      33.470 -14.567 -25.410  0.00  0.00    -0.082 Cl
ATOM     14  C   UNL     1      35.222 -17.538 -22.496  0.00  0.00    +0.052 C 
ATOM     15  C   UNL     1      34.443 -15.302 -22.972  0.00  0.00    +0.083 C 
ATOM     16  C   UNL     1      34.984 -16.229 -22.081  0.00  0.00    +0.019 C 
ATOM     17  C   UNL     1      34.918 -17.923 -23.802  0.00  0.00    +0.016 C 
ATOM     18  C   UNL     1      34.139 -15.686 -24.279  0.00  0.00    +0.062 C 
ATOM     19  C   UNL     1      34.377 -16.996 -24.693  0.00  0.00    +0.013 C 
BRANCH  15  23
ATOM     20  F   UNL     1      34.809 -13.634 -21.297  0.00  0.00    -0.166 F 
ATOM     21  F   UNL     1      34.657 -12.949 -23.350  0.00  0.00    -0.166 F 
ATOM     22  F   UNL     1      32.881 -13.639 -22.302  0.00  0.00    -0.166 F 
ATOM     23  C   UNL     1      34.205 -13.907 -22.490  0.00  0.00    +0.419 C 
ENDBRANCH  15  23
ENDBRANCH   8  14
ENDBRANCH   1   9
BRANCH   2  24
ATOM     24  O   UNL     1      35.020 -23.865 -16.046  0.00  0.00    -0.453 OA
BRANCH  24  26
ATOM     25  N   UNL     1      31.609 -23.372 -13.722  0.00  0.00    -0.239 NA
ATOM     26  C   UNL     1      33.883 -23.700 -15.272  0.00  0.00    +0.149 C 
ATOM     27  C   UNL     1      32.696 -23.355 -15.882  0.00  0.00    +0.061 C 
ATOM     28  C   UNL     1      31.588 -23.204 -15.064  0.00  0.00    +0.137 C 
ATOM     29  C   UNL     1      33.965 -23.885 -13.908  0.00  0.00    +0.058 C 
ATOM     30  C   UNL     1      32.800 -23.709 -13.178  0.00  0.00    +0.102 C 
BRANCH  28  33
ATOM     31  O   UNL     1      30.227 -22.383 -16.788  0.00  0.00    -0.268 OA
ATOM     32  N   UNL     1      29.170 -23.056 -14.837  0.00  0.00    -0.298 N 
ATOM     33  C   UNL     1      30.301 -22.842 -15.633  0.00  0.00    +0.264 C 
ATOM     34  C   UNL     1      27.821 -22.769 -15.270  0.00  0.00    +0.111 C 
ATOM     35  H   UNL     1      29.300 -23.422 -13.932  0.00  0.00    +0.150 HD
ENDBRANCH  28  33
ENDBRANCH  24  26
ENDBRANCH   2  24
TORSDOF 6
ENDMDL
MODEL 3
REMARK VINA RESULT:     -11.5      5.866      9.742
REMARK  Name = 216239
REMARK  6 active torsions:
REMARK  status: ('A' for Active; 'I' for Inactive)
REMARK    1  A    between atoms: C_1  and  N_9
REMARK    2  A    between atoms: C_2  and  O_24
REMARK    3  A    between atoms: N_8  and  C_14
REMARK    4  A    between atoms: C_15  and  C_23
REMARK    5  A    between atoms: O_24  and  C_26
REMARK    6  A    between atoms: C_28  and  C_33
REMARK                            x       y       z     vdW  Elec       q    Type
REMARK                         _______ _______ _______ _____ _____    ______ ____
ROOT
ATOM      1  C   UNL     1      35.033 -22.026 -18.274  0.00  0.00    +0.052 C 
ATOM      2  C   UNL     1      34.243 -23.551 -16.102  0.00  0.00    +0.145 C 
ATOM      3  C   UNL     1      35.803 -22.016 -17.124  0.00  0.00    +0.018 C 
ATOM      4  C   UNL     1      33.876 -22.781 -18.363  0.00  0.00    +0.018 C 
ATOM      5  C   UNL     1      35.405 -22.785 -16.030  0.00  0.00    +0.039 C 
ATOM      6  C   UNL     1      33.477 -23.549 -17.268  0.00  0.00    +0.039 C 
ENDROOT
BRANCH   1   9
ATOM      7  O   UNL     1      33.523 -19.983 -19.845  0.00  0.00    -0.252 OA
ATOM      8  N   UNL     1      35.464 -19.740 -21.135  0.00  0.00    -0.268 N 
ATOM      9  N   UNL     1      35.437 -21.246 -19.384  0.00  0.00    -0.268 N 
ATOM     10  C   UNL     1      34.684 -20.294 -20.090  0.00  0.00    +0.308 C 
ATOM     11  H   UNL     1      36.382 -20.087 -21.213  0.00  0.00    +0.156 HD
ATOM     12  H   UNL     1      36.358 -21.388 -19.700  0.00  0.00    +0.156 HD
BRANCH   8  14
ATOM     13 CL   UNL     1      33.942 -15.655 -25.126  0.00  0.00    -0.082 Cl
ATOM     14  C   UNL     1      35.104 -18.768 -22.069  0.00  0.00    +0.052 C 
ATOM     15  C   UNL     1      34.659 -16.459 -22.623  0.00  0.00    +0.083 C 
ATOM     16  C   UNL     1      35.017 -17.430 -21.688  0.00  0.00    +0.019 C 
ATOM     17  C   UNL     1      34.832 -19.137 -23.387  0.00  0.00    +0.016 C 
ATOM     18  C   UNL     1      34.386 -16.827 -23.941  0.00  0.00    +0.062 C 
ATOM     19  C   UNL     1      34.473 -18.166 -24.322  0.00  0.00    +0.013 C 
BRANCH  15  23
ATOM     20  F   UNL     1      35.068 -14.834 -20.917  0.00  0.00    -0.166 F 
ATOM     21  F   UNL     1      35.272 -14.174 -22.973  0.00  0.00    -0.166 F 
ATOM     22  F   UNL     1      33.298 -14.568 -22.151  0.00  0.00    -0.166 F 
ATOM     23  C   UNL     1      34.579 -15.036 -22.174  0.00  0.00    +0.419 C 
ENDBRANCH  15  23
ENDBRANCH   8  14
ENDBRANCH   1   9
BRANCH   2  24
ATOM     24  O   UNL     1      33.853 -24.299 -15.033  0.00  0.00    -0.453 OA
BRANCH  24  26
ATOM     25  N   UNL     1      36.738 -25.270 -12.204  0.00  0.00    -0.239 NA
ATOM     26  C   UNL     1      34.814 -24.624 -14.091  0.00  0.00    +0.149 C 
ATOM     27  C   UNL     1      35.954 -25.287 -14.491  0.00  0.00    +0.061 C 
ATOM     28  C   UNL     1      36.886 -25.588 -13.510  0.00  0.00    +0.137 C 
ATOM     29  C   UNL     1      34.610 -24.275 -12.773  0.00  0.00    +0.058 C 
ATOM     30  C   UNL     1      35.601 -24.621 -11.868  0.00  0.00    +0.102 C 
BRANCH  28  33
ATOM     31  O   UNL     1      38.076 -27.446 -14.303  0.00  0.00    -0.268 OA
ATOM     32  N   UNL     1      39.313 -25.586 -13.680  0.00  0.00    -0.298 N 
ATOM     33  C   UNL     1      38.113 -26.285 -13.854  0.00  0.00    +0.264 C 
ATOM     34  C   UNL     1      40.612 -26.136 -13.998  0.00  0.00    +0.111 C 
ATOM     35  H   UNL     1      39.271 -24.671 -13.319  0.00  0.00    +0.150 HD
ENDBRANCH  28  33
ENDBRANCH  24  26
ENDBRANCH   2  24
TORSDOF 6
ENDMDL
MODEL 4
REMARK VINA RESULT:     -11.5      8.540     13.796
REMARK  Name = 216239
REMARK  6 active torsions:
REMARK  status: ('A' for Active; 'I' for Inactive)
REMARK    1  A    between atoms: C_1  and  N_9
REMARK    2  A    between atoms: C_2  and  O_24
REMARK    3  A    between atoms: N_8  and  C_14
REMARK    4  A    between atoms: C_15  and  C_23
REMARK    5  A    between atoms: O_24  and  C_26
REMARK    6  A    between atoms: C_28  and  C_33
REMARK                            x       y       z     vdW  Elec       q    Type
REMARK                         _______ _______ _______ _____ _____    ______ ____
ROOT
ATOM      1  C   UNL     1      35.487 -21.233 -18.994  0.00  0.00    +0.052 C 
ATOM      2  C   UNL     1      36.048 -19.293 -20.890  0.00  0.00    +0.145 C 
ATOM      3  C   UNL     1      36.800 -20.845 -19.198  0.00  0.00    +0.018 C 
ATOM      4  C   UNL     1      34.448 -20.672 -19.717  0.00  0.00    +0.018 C 
ATOM      5  C   UNL     1      37.083 -19.868 -20.152  0.00  0.00    +0.039 C 
ATOM      6  C   UNL     1      34.730 -19.695 -20.673  0.00  0.00    +0.039 C 
ENDROOT
BRANCH   1   9
ATOM      7  O   UNL     1      36.241 -21.381 -16.108  0.00  0.00    -0.252 OA
ATOM      8  N   UNL     1      35.089 -23.419 -16.052  0.00  0.00    -0.268 N 
ATOM      9  N   UNL     1      35.201 -22.224 -18.026  0.00  0.00    -0.268 N 
ATOM     10  C   UNL     1      35.581 -22.245 -16.673  0.00  0.00    +0.308 C 
ATOM     11  H   UNL     1      34.574 -24.026 -16.632  0.00  0.00    +0.156 HD
ATOM     12  H   UNL     1      34.671 -22.992 -18.337  0.00  0.00    +0.156 HD
BRANCH   8  14
ATOM     13 CL   UNL     1      35.676 -25.158 -10.433  0.00  0.00    -0.082 Cl
ATOM     14  C   UNL     1      35.238 -23.832 -14.727  0.00  0.00    +0.052 C 
ATOM     15  C   UNL     1      36.642 -24.610 -12.922  0.00  0.00    +0.083 C 
ATOM     16  C   UNL     1      36.494 -24.199 -14.247  0.00  0.00    +0.019 C 
ATOM     17  C   UNL     1      34.127 -23.877 -13.884  0.00  0.00    +0.016 C 
ATOM     18  C   UNL     1      35.532 -24.656 -12.078  0.00  0.00    +0.062 C 
ATOM     19  C   UNL     1      34.275 -24.289 -12.559  0.00  0.00    +0.013 C 
BRANCH  15  23
ATOM     20  F   UNL     1      38.081 -26.275 -11.985  0.00  0.00    -0.166 F 
ATOM     21  F   UNL     1      38.966 -24.900 -13.411  0.00  0.00    -0.166 F 
ATOM     22  F   UNL     1      38.438 -24.207 -11.418  0.00  0.00    -0.166 F 
ATOM     23  C   UNL     1      38.006 -24.993 -12.445  0.00  0.00    +0.419 C 
ENDBRANCH  15  23
ENDBRANCH   8  14
ENDBRANCH   1   9
BRANCH   2  24
ATOM     24  O   UNL     1      36.324 -18.341 -21.822  0.00  0.00    -0.453 OA
BRANCH  24  26
ATOM     25  N   UNL     1      33.601 -17.825 -24.919  0.00  0.00    -0.239 NA
ATOM     26  C   UNL     1      35.417 -18.169 -22.853  0.00  0.00    +0.149 C 
ATOM     27  C   UNL     1      35.080 -16.892 -23.249  0.00  0.00    +0.061 C 
ATOM     28  C   UNL     1      34.169 -16.773 -24.286  0.00  0.00    +0.137 C 
ATOM     29  C   UNL     1      34.870 -19.279 -23.463  0.00  0.00    +0.058 C 
ATOM     30  C   UNL     1      33.967 -19.053 -24.490  0.00  0.00    +0.102 C 
BRANCH  28  33
ATOM     31  O   UNL     1      33.421 -15.292 -25.943  0.00  0.00    -0.268 OA
ATOM     32  N   UNL     1      33.759 -14.420 -23.822  0.00  0.00    -0.298 N 
ATOM     33  C   UNL     1      33.764 -15.460 -24.759  0.00  0.00    +0.264 C 
ATOM     34  C   UNL     1      33.360 -13.065 -24.133  0.00  0.00    +0.111 C 
ATOM     35  H   UNL     1      34.043 -14.621 -22.900  0.00  0.00    +0.150 HD
ENDBRANCH  28  33
ENDBRANCH  24  26
ENDBRANCH   2  24
TORSDOF 6
ENDMDL
MODEL 5
REMARK VINA RESULT:     -11.4      2.135      2.908
REMARK  Name = 216239
REMARK  6 active torsions:
REMARK  status: ('A' for Active; 'I' for Inactive)
REMARK    1  A    between atoms: C_1  and  N_9
REMARK    2  A    between atoms: C_2  and  O_24
REMARK    3  A    between atoms: N_8  and  C_14
REMARK    4  A    between atoms: C_15  and  C_23
REMARK    5  A    between atoms: O_24  and  C_26
REMARK    6  A    between atoms: C_28  and  C_33
REMARK                            x       y       z     vdW  Elec       q    Type
REMARK                         _______ _______ _______ _____ _____    ______ ____
ROOT
ATOM      1  C   UNL     1      34.618 -15.574 -23.130  0.00  0.00    +0.052 C 
ATOM      2  C   UNL     1      35.416 -18.093 -22.298  0.00  0.00    +0.145 C 
ATOM      3  C   UNL     1      35.032 -15.756 -21.821  0.00  0.00    +0.018 C 
ATOM      4  C   UNL     1      34.594 -16.625 -24.032  0.00  0.00    +0.018 C 
ATOM      5  C   UNL     1      35.434 -17.024 -21.402  0.00  0.00    +0.039 C 
ATOM      6  C   UNL     1      34.995 -17.894 -23.613  0.00  0.00    +0.039 C 
ENDROOT
BRANCH   1   9
ATOM      7  O   UNL     1      33.726 -13.212 -21.535  0.00  0.00    -0.252 OA
ATOM      8  N   UNL     1      33.476 -12.097 -23.580  0.00  0.00    -0.268 N 
ATOM      9  N   UNL     1      34.211 -14.288 -23.554  0.00  0.00    -0.268 N 
ATOM     10  C   UNL     1      33.799 -13.206 -22.759  0.00  0.00    +0.308 C 
ATOM     11  H   UNL     1      33.582 -12.238 -24.549  0.00  0.00    +0.156 HD
ATOM     12  H   UNL     1      34.218 -14.131 -24.526  0.00  0.00    +0.156 HD
BRANCH   8  14
ATOM     13 CL   UNL     1      31.531  -6.756 -21.963  0.00  0.00    -0.082 Cl
ATOM     14  C   UNL     1      33.027 -10.833 -23.199  0.00  0.00    +0.052 C 
ATOM     15  C   UNL     1      33.436  -8.473 -22.885  0.00  0.00    +0.083 C 
ATOM     16  C   UNL     1      33.887  -9.737 -23.264  0.00  0.00    +0.019 C 
ATOM     17  C   UNL     1      31.715 -10.665 -22.754  0.00  0.00    +0.016 C 
ATOM     18  C   UNL     1      32.125  -8.304 -22.439  0.00  0.00    +0.062 C 
ATOM     19  C   UNL     1      31.265  -9.401 -22.374  0.00  0.00    +0.013 C 
BRANCH  15  23
ATOM     20  F   UNL     1      34.616  -6.715 -21.771  0.00  0.00    -0.166 F 
ATOM     21  F   UNL     1      35.622  -7.674 -23.437  0.00  0.00    -0.166 F 
ATOM     22  F   UNL     1      33.944  -6.340 -23.804  0.00  0.00    -0.166 F 
ATOM     23  C   UNL     1      34.389  -7.324 -22.971  0.00  0.00    +0.419 C 
ENDBRANCH  15  23
ENDBRANCH   8  14
ENDBRANCH   1   9
BRANCH   2  24
ATOM     24  O   UNL     1      35.806 -19.331 -21.888  0.00  0.00    -0.453 OA
BRANCH  24  26
ATOM     25  N   UNL     1      33.456 -21.251 -19.048  0.00  0.00    -0.239 NA
ATOM     26  C   UNL     1      35.023 -19.971 -20.942  0.00  0.00    +0.149 C 
ATOM     27  C   UNL     1      35.634 -20.677 -19.928  0.00  0.00    +0.061 C 
ATOM     28  C   UNL     1      34.808 -21.298 -19.006  0.00  0.00    +0.137 C 
ATOM     29  C   UNL     1      33.650 -19.889 -21.036  0.00  0.00    +0.058 C 
ATOM     30  C   UNL     1      32.912 -20.546 -20.065  0.00  0.00    +0.102 C 
BRANCH  28  33
ATOM     31  O   UNL     1      34.833 -23.108 -17.516  0.00  0.00    -0.268 OA
ATOM     32  N   UNL     1      36.561 -21.572 -17.341  0.00  0.00    -0.298 N 
ATOM     33  C   UNL     1      35.377 -22.060 -17.907  0.00  0.00    +0.264 C 
ATOM     34  C   UNL     1      37.259 -22.229 -16.259  0.00  0.00    +0.111 C 
ATOM     35  H   UNL     1      36.938 -20.735 -17.698  0.00  0.00    +0.150 HD
ENDBRANCH  28  33
ENDBRANCH  24  26
ENDBRANCH   2  24
TORSDOF 6
ENDMDL
MODEL 6
REMARK VINA RESULT:     -11.3      8.338     13.773
REMARK  Name = 216239
REMARK  6 active torsions:
REMARK  status: ('A' for Active; 'I' for Inactive)
REMARK    1  A    between atoms: C_1  and  N_9
REMARK    2  A    between atoms: C_2  and  O_24
REMARK    3  A    between atoms: N_8  and  C_14
REMARK    4  A    between atoms: C_15  and  C_23
REMARK    5  A    between atoms: O_24  and  C_26
REMARK    6  A    between atoms: C_28  and  C_33
REMARK                            x       y       z     vdW  Elec       q    Type
REMARK                         _______ _______ _______ _____ _____    ______ ____
ROOT
ATOM      1  C   UNL     1      35.257 -21.150 -19.276  0.00  0.00    +0.052 C 
ATOM      2  C   UNL     1      35.595 -19.165 -21.178  0.00  0.00    +0.145 C 
ATOM      3  C   UNL     1      36.521 -20.628 -19.493  0.00  0.00    +0.018 C 
ATOM      4  C   UNL     1      34.158 -20.702 -19.989  0.00  0.00    +0.018 C 
ATOM      5  C   UNL     1      36.691 -19.628 -20.451  0.00  0.00    +0.039 C 
ATOM      6  C   UNL     1      34.328 -19.702 -20.948  0.00  0.00    +0.039 C 
ENDROOT
BRANCH   1   9
ATOM      7  O   UNL     1      36.186 -21.278 -16.440  0.00  0.00    -0.252 OA
ATOM      8  N   UNL     1      35.158 -23.380 -16.342  0.00  0.00    -0.268 N 
ATOM      9  N   UNL     1      35.086 -22.164 -18.304  0.00  0.00    -0.268 N 
ATOM     10  C   UNL     1      35.545 -22.175 -16.977  0.00  0.00    +0.308 C 
ATOM     11  H   UNL     1      34.646 -24.011 -16.898  0.00  0.00    +0.156 HD
ATOM     12  H   UNL     1      34.583 -22.959 -18.593  0.00  0.00    +0.156 HD
BRANCH   8  14
ATOM     13 CL   UNL     1      36.172 -25.125 -10.786  0.00  0.00    -0.082 Cl
ATOM     14  C   UNL     1      35.407 -23.795 -15.033  0.00  0.00    +0.052 C 
ATOM     15  C   UNL     1      36.936 -24.616 -13.353  0.00  0.00    +0.083 C 
ATOM     16  C   UNL     1      36.688 -24.202 -14.661  0.00  0.00    +0.019 C 
ATOM     17  C   UNL     1      34.373 -23.801 -14.096  0.00  0.00    +0.016 C 
ATOM     18  C   UNL     1      35.903 -24.622 -12.415  0.00  0.00    +0.062 C 
ATOM     19  C   UNL     1      34.622 -24.214 -12.787  0.00  0.00    +0.013 C 
BRANCH  15  23
ATOM     20  F   UNL     1      38.418 -26.364 -12.667  0.00  0.00    -0.166 F 
ATOM     21  F   UNL     1      39.227 -24.855 -13.998  0.00  0.00    -0.166 F 
ATOM     22  F   UNL     1      38.817 -24.362 -11.920  0.00  0.00    -0.166 F 
ATOM     23  C   UNL     1      38.323 -25.043 -12.993  0.00  0.00    +0.419 C 
ENDBRANCH  15  23
ENDBRANCH   8  14
ENDBRANCH   1   9
BRANCH   2  24
ATOM     24  O   UNL     1      35.761 -18.191 -22.114  0.00  0.00    -0.453 OA
BRANCH  24  26
ATOM     25  N   UNL     1      34.333 -14.392 -21.217  0.00  0.00    -0.239 NA
ATOM     26  C   UNL     1      35.286 -16.925 -21.816  0.00  0.00    +0.149 C 
ATOM     27  C   UNL     1      34.953 -16.070 -22.844  0.00  0.00    +0.061 C 
ATOM     28  C   UNL     1      34.481 -14.815 -22.493  0.00  0.00    +0.137 C 
ATOM     29  C   UNL     1      35.155 -16.548 -20.496  0.00  0.00    +0.058 C 
ATOM     30  C   UNL     1      34.675 -15.271 -20.250  0.00  0.00    +0.102 C 
BRANCH  28  33
ATOM     31  O   UNL     1      33.632 -14.246 -24.604  0.00  0.00    -0.268 OA
ATOM     32  N   UNL     1      34.293 -12.502 -23.225  0.00  0.00    -0.298 N 
ATOM     33  C   UNL     1      34.110 -13.858 -23.522  0.00  0.00    +0.264 C 
ATOM     34  C   UNL     1      33.950 -11.432 -24.135  0.00  0.00    +0.111 C 
ATOM     35  H   UNL     1      34.676 -12.264 -22.350  0.00  0.00    +0.150 HD
ENDBRANCH  28  33
ENDBRANCH  24  26
ENDBRANCH   2  24
TORSDOF 6
ENDMDL
MODEL 7
REMARK VINA RESULT:     -11.2      8.524     13.369
REMARK  Name = 216239
REMARK  6 active torsions:
REMARK  status: ('A' for Active; 'I' for Inactive)
REMARK    1  A    between atoms: C_1  and  N_9
REMARK    2  A    between atoms: C_2  and  O_24
REMARK    3  A    between atoms: N_8  and  C_14
REMARK    4  A    between atoms: C_15  and  C_23
REMARK    5  A    between atoms: O_24  and  C_26
REMARK    6  A    between atoms: C_28  and  C_33
REMARK                            x       y       z     vdW  Elec       q    Type
REMARK                         _______ _______ _______ _____ _____    ______ ____
ROOT
ATOM      1  C   UNL     1      36.449 -19.804 -19.832  0.00  0.00    +0.052 C 
ATOM      2  C   UNL     1      35.635 -18.855 -22.304  0.00  0.00    +0.145 C 
ATOM      3  C   UNL     1      35.184 -20.120 -20.295  0.00  0.00    +0.018 C 
ATOM      4  C   UNL     1      37.317 -19.023 -20.577  0.00  0.00    +0.018 C 
ATOM      5  C   UNL     1      34.774 -19.643 -21.541  0.00  0.00    +0.039 C 
ATOM      6  C   UNL     1      36.907 -18.544 -21.822  0.00  0.00    +0.039 C 
ENDROOT
BRANCH   1   9
ATOM      7  O   UNL     1      35.639 -22.269 -18.354  0.00  0.00    -0.252 OA
ATOM      8  N   UNL     1      37.110 -21.576 -16.667  0.00  0.00    -0.268 N 
ATOM      9  N   UNL     1      36.864 -20.288 -18.570  0.00  0.00    -0.268 N 
ATOM     10  C   UNL     1      36.451 -21.461 -17.916  0.00  0.00    +0.308 C 
ATOM     11  H   UNL     1      37.737 -20.849 -16.446  0.00  0.00    +0.156 HD
ATOM     12  H   UNL     1      37.524 -19.737 -18.090  0.00  0.00    +0.156 HD
BRANCH   8  14
ATOM     13 CL   UNL     1      36.559 -25.823 -12.594  0.00  0.00    -0.082 Cl
ATOM     14  C   UNL     1      36.990 -22.582 -15.708  0.00  0.00    +0.052 C 
ATOM     15  C   UNL     1      37.971 -24.377 -14.423  0.00  0.00    +0.083 C 
ATOM     16  C   UNL     1      38.092 -23.372 -15.383  0.00  0.00    +0.019 C 
ATOM     17  C   UNL     1      35.766 -22.796 -15.074  0.00  0.00    +0.016 C 
ATOM     18  C   UNL     1      36.747 -24.592 -13.788  0.00  0.00    +0.062 C 
ATOM     19  C   UNL     1      35.645 -23.801 -14.114  0.00  0.00    +0.013 C 
BRANCH  15  23
ATOM     20  F   UNL     1      38.994 -26.536 -14.311  0.00  0.00    -0.166 F 
ATOM     21  F   UNL     1      40.276 -24.866 -14.837  0.00  0.00    -0.166 F 
ATOM     22  F   UNL     1      39.556 -25.081 -12.796  0.00  0.00    -0.166 F 
ATOM     23  C   UNL     1      39.176 -25.200 -14.100  0.00  0.00    +0.419 C 
ENDBRANCH  15  23
ENDBRANCH   8  14
ENDBRANCH   1   9
BRANCH   2  24
ATOM     24  O   UNL     1      35.234 -18.388 -23.517  0.00  0.00    -0.453 OA
BRANCH  24  26
ATOM     25  N   UNL     1      33.738 -14.514 -23.698  0.00  0.00    -0.239 NA
ATOM     26  C   UNL     1      34.735 -17.097 -23.577  0.00  0.00    +0.149 C 
ATOM     27  C   UNL     1      34.626 -16.362 -22.416  0.00  0.00    +0.061 C 
ATOM     28  C   UNL     1      34.123 -15.076 -22.530  0.00  0.00    +0.137 C 
ATOM     29  C   UNL     1      34.358 -16.577 -24.797  0.00  0.00    +0.058 C 
ATOM     30  C   UNL     1      33.865 -15.281 -24.803  0.00  0.00    +0.102 C 
BRANCH  28  33
ATOM     31  O   UNL     1      34.950 -14.030 -20.601  0.00  0.00    -0.268 OA
ATOM     32  N   UNL     1      32.719 -13.673 -21.122  0.00  0.00    -0.298 N 
ATOM     33  C   UNL     1      33.979 -14.239 -21.351  0.00  0.00    +0.264 C 
ATOM     34  C   UNL     1      32.425 -12.801 -20.007  0.00  0.00    +0.111 C 
ATOM     35  H   UNL     1      31.993 -13.880 -21.754  0.00  0.00    +0.150 HD
ENDBRANCH  28  33
ENDBRANCH  24  26
ENDBRANCH   2  24
TORSDOF 6
ENDMDL
MODEL 8
REMARK VINA RESULT:     -11.1      1.612      2.171
REMARK  Name = 216239
REMARK  6 active torsions:
REMARK  status: ('A' for Active; 'I' for Inactive)
REMARK    1  A    between atoms: C_1  and  N_9
REMARK    2  A    between atoms: C_2  and  O_24
REMARK    3  A    between atoms: N_8  and  C_14
REMARK    4  A    between atoms: C_15  and  C_23
REMARK    5  A    between atoms: O_24  and  C_26
REMARK    6  A    between atoms: C_28  and  C_33
REMARK                            x       y       z     vdW  Elec       q    Type
REMARK                         _______ _______ _______ _____ _____    ______ ____
ROOT
ATOM      1  C   UNL     1      33.664 -14.204 -22.688  0.00  0.00    +0.052 C 
ATOM      2  C   UNL     1      35.001 -16.613 -22.977  0.00  0.00    +0.145 C 
ATOM      3  C   UNL     1      33.647 -14.845 -23.915  0.00  0.00    +0.018 C 
ATOM      4  C   UNL     1      34.335 -14.741 -21.601  0.00  0.00    +0.018 C 
ATOM      5  C   UNL     1      34.320 -16.058 -24.060  0.00  0.00    +0.039 C 
ATOM      6  C   UNL     1      35.010 -15.954 -21.747  0.00  0.00    +0.039 C 
ENDROOT
BRANCH   1   9
ATOM      7  O   UNL     1      34.094 -11.586 -24.058  0.00  0.00    -0.252 OA
ATOM      8  N   UNL     1      32.312 -10.775 -22.772  0.00  0.00    -0.268 N 
ATOM      9  N   UNL     1      32.981 -12.974 -22.540  0.00  0.00    -0.268 N 
ATOM     10  C   UNL     1      33.224 -11.765 -23.213  0.00  0.00    +0.308 C 
ATOM     11  H   UNL     1      31.667 -11.063 -22.086  0.00  0.00    +0.156 HD
ATOM     12  H   UNL     1      32.245 -12.964 -21.887  0.00  0.00    +0.156 HD
BRANCH   8  14
ATOM     13 CL   UNL     1      31.821  -5.141 -24.489  0.00  0.00    -0.082 Cl
ATOM     14  C   UNL     1      32.207  -9.444 -23.178  0.00  0.00    +0.052 C 
ATOM     15  C   UNL     1      33.234  -7.420 -24.003  0.00  0.00    +0.083 C 
ATOM     16  C   UNL     1      33.341  -8.750 -23.597  0.00  0.00    +0.019 C 
ATOM     17  C   UNL     1      30.964  -8.809 -23.165  0.00  0.00    +0.016 C 
ATOM     18  C   UNL     1      31.993  -6.784 -23.991  0.00  0.00    +0.062 C 
ATOM     19  C   UNL     1      30.858  -7.479 -23.572  0.00  0.00    +0.013 C 
BRANCH  15  23
ATOM     20  F   UNL     1      34.416  -6.272 -25.738  0.00  0.00    -0.166 F 
ATOM     21  F   UNL     1      34.763  -5.605 -23.703  0.00  0.00    -0.166 F 
ATOM     22  F   UNL     1      35.581  -7.504 -24.376  0.00  0.00    -0.166 F 
ATOM     23  C   UNL     1      34.474  -6.711 -24.447  0.00  0.00    +0.419 C 
ENDBRANCH  15  23
ENDBRANCH   8  14
ENDBRANCH   1   9
BRANCH   2  24
ATOM     24  O   UNL     1      35.660 -17.795 -23.120  0.00  0.00    -0.453 OA
BRANCH  24  26
ATOM     25  N   UNL     1      36.168 -20.146 -19.731  0.00  0.00    -0.239 NA
ATOM     26  C   UNL     1      35.828 -18.578 -21.990  0.00  0.00    +0.149 C 
ATOM     27  C   UNL     1      34.754 -19.282 -21.491  0.00  0.00    +0.061 C 
ATOM     28  C   UNL     1      34.975 -20.052 -20.361  0.00  0.00    +0.137 C 
ATOM     29  C   UNL     1      37.069 -18.636 -21.390  0.00  0.00    +0.058 C 
ATOM     30  C   UNL     1      37.186 -19.434 -20.263  0.00  0.00    +0.102 C 
BRANCH  28  33
ATOM     31  O   UNL     1      32.718 -20.652 -20.153  0.00  0.00    -0.268 OA
ATOM     32  N   UNL     1      34.236 -21.769 -18.803  0.00  0.00    -0.298 N 
ATOM     33  C   UNL     1      33.891 -20.824 -19.776  0.00  0.00    +0.264 C 
ATOM     34  C   UNL     1      33.276 -22.628 -18.147  0.00  0.00    +0.111 C 
ATOM     35  H   UNL     1      35.184 -21.854 -18.550  0.00  0.00    +0.150 HD
ENDBRANCH  28  33
ENDBRANCH  24  26
ENDBRANCH   2  24
TORSDOF 6
ENDMDL
MODEL 9
REMARK VINA RESULT:     -11.1      3.255      5.101
REMARK  Name = 216239
REMARK  6 active torsions:
REMARK  status: ('A' for Active; 'I' for Inactive)
REMARK    1  A    between atoms: C_1  and  N_9
REMARK    2  A    between atoms: C_2  and  O_24
REMARK    3  A    between atoms: N_8  and  C_14
REMARK    4  A    between atoms: C_15  and  C_23
REMARK    5  A    between atoms: O_24  and  C_26
REMARK    6  A    between atoms: C_28  and  C_33
REMARK                            x       y       z     vdW  Elec       q    Type
REMARK                         _______ _______ _______ _____ _____    ______ ____
ROOT
ATOM      1  C   UNL     1      35.518 -18.479 -21.359  0.00  0.00    +0.052 C 
ATOM      2  C   UNL     1      36.397 -20.646 -19.875  0.00  0.00    +0.145 C 
ATOM      3  C   UNL     1      34.617 -19.469 -21.008  0.00  0.00    +0.018 C 
ATOM      4  C   UNL     1      36.849 -18.549 -20.985  0.00  0.00    +0.018 C 
ATOM      5  C   UNL     1      35.059 -20.561 -20.260  0.00  0.00    +0.039 C 
ATOM      6  C   UNL     1      37.292 -19.641 -20.238  0.00  0.00    +0.039 C 
ENDROOT
BRANCH   1   9
ATOM      7  O   UNL     1      34.653 -15.761 -20.474  0.00  0.00    -0.252 OA
ATOM      8  N   UNL     1      34.293 -15.288 -22.740  0.00  0.00    -0.268 N 
ATOM      9  N   UNL     1      35.069 -17.373 -22.118  0.00  0.00    -0.268 N 
ATOM     10  C   UNL     1      34.672 -16.109 -21.650  0.00  0.00    +0.308 C 
ATOM     11  H   UNL     1      34.358 -15.702 -23.631  0.00  0.00    +0.156 HD
ATOM     12  H   UNL     1      35.029 -17.504 -23.092  0.00  0.00    +0.156 HD
BRANCH   8  14
ATOM     13 CL   UNL     1      32.386  -9.693 -22.695  0.00  0.00    -0.082 Cl
ATOM     14  C   UNL     1      33.837 -13.969 -22.720  0.00  0.00    +0.052 C 
ATOM     15  C   UNL     1      32.626 -12.189 -21.625  0.00  0.00    +0.083 C 
ATOM     16  C   UNL     1      33.080 -13.507 -21.645  0.00  0.00    +0.019 C 
ATOM     17  C   UNL     1      34.140 -13.112 -23.779  0.00  0.00    +0.016 C 
ATOM     18  C   UNL     1      32.928 -11.331 -22.684  0.00  0.00    +0.062 C 
ATOM     19  C   UNL     1      33.686 -11.794 -23.760  0.00  0.00    +0.013 C 
BRANCH  15  23
ATOM     20  F   UNL     1      32.233 -10.537 -19.940  0.00  0.00    -0.166 F 
ATOM     21  F   UNL     1      30.495 -11.563 -20.736  0.00  0.00    -0.166 F 
ATOM     22  F   UNL     1      31.864 -12.614 -19.414  0.00  0.00    -0.166 F 
ATOM     23  C   UNL     1      31.819 -11.732 -20.453  0.00  0.00    +0.419 C 
ENDBRANCH  15  23
ENDBRANCH   8  14
ENDBRANCH   1   9
BRANCH   2  24
ATOM     24  O   UNL     1      36.829 -21.712 -19.147  0.00  0.00    -0.453 OA
BRANCH  24  26
ATOM     25  N   UNL     1      34.881 -22.525 -15.566  0.00  0.00    -0.239 NA
ATOM     26  C   UNL     1      36.179 -21.982 -17.954  0.00  0.00    +0.149 C 
ATOM     27  C   UNL     1      34.841 -22.311 -17.974  0.00  0.00    +0.061 C 
ATOM     28  C   UNL     1      34.238 -22.574 -16.755  0.00  0.00    +0.137 C 
ATOM     29  C   UNL     1      36.887 -21.918 -16.772  0.00  0.00    +0.058 C 
ATOM     30  C   UNL     1      36.192 -22.197 -15.606  0.00  0.00    +0.102 C 
BRANCH  28  33
ATOM     31  O   UNL     1      32.058 -22.609 -17.617  0.00  0.00    -0.268 OA
ATOM     32  N   UNL     1      32.403 -23.652 -15.576  0.00  0.00    -0.298 N 
ATOM     33  C   UNL     1      32.830 -22.927 -16.695  0.00  0.00    +0.264 C 
ATOM     34  C   UNL     1      31.040 -24.096 -15.383  0.00  0.00    +0.111 C 
ATOM     35  H   UNL     1      33.066 -23.871 -14.881  0.00  0.00    +0.150 HD
ENDBRANCH  28  33
ENDBRANCH  24  26
ENDBRANCH   2  24
TORSDOF 6
ENDMDL
