MODEL 1
REMARK VINA RESULT:     -11.0      0.000      0.000
REMARK  Name = 9875401
REMARK  5 active torsions:
REMARK  status: ('A' for Active; 'I' for Inactive)
REMARK    1  A    between atoms: N_3  and  C_7
REMARK    2  A    between atoms: C_4  and  C_20
REMARK    3  A    between atoms: C_8  and  N_15
REMARK    4  A    between atoms: C_20  and  N_22
REMARK    5  A    between atoms: C_23  and  C_27
REMARK                            x       y       z     vdW  Elec       q    Type
REMARK                         _______ _______ _______ _____ _____    ______ ____
ROOT
ATOM      1  O   UNL     1      34.067 -20.226 -20.739  0.00  0.00    -0.434 OA
ATOM      2  O   UNL     1      32.706 -20.853 -19.036  0.00  0.00    -0.226 OA
ATOM      3  N   UNL     1      35.022 -21.338 -19.023  0.00  0.00    -0.221 N 
ATOM      4  C   UNL     1      35.483 -20.151 -20.955  0.00  0.00    +0.210 C 
ATOM      5  C   UNL     1      36.063 -21.174 -20.002  0.00  0.00    +0.147 C 
ATOM      6  C   UNL     1      33.830 -20.817 -19.518  0.00  0.00    +0.409 C 
ENDROOT
BRANCH   3   7
ATOM      7  C   UNL     1      35.220 -22.033 -17.796  0.00  0.00    +0.057 C 
ATOM      8  C   UNL     1      35.607 -23.392 -15.397  0.00  0.00    +0.054 C 
ATOM      9  C   UNL     1      36.444 -21.944 -17.133  0.00  0.00    +0.016 C 
ATOM     10  C   UNL     1      34.190 -22.804 -17.256  0.00  0.00    +0.016 C 
ATOM     11  C   UNL     1      36.638 -22.624 -15.931  0.00  0.00    +0.016 C 
ATOM     12  C   UNL     1      34.383 -23.485 -16.055  0.00  0.00    +0.016 C 
BRANCH   8  15
ATOM     13  O   UNL     1      35.921 -25.425 -11.673  0.00  0.00    -0.343 OA
ATOM     14  O   UNL     1      36.912 -25.965 -15.061  0.00  0.00    -0.272 OA
ATOM     15  N   UNL     1      35.807 -24.096 -14.153  0.00  0.00    -0.254 N 
ATOM     16  C   UNL     1      35.096 -23.612 -12.962  0.00  0.00    +0.130 C 
ATOM     17  C   UNL     1      35.791 -24.011 -11.676  0.00  0.00    +0.165 C 
ATOM     18  C   UNL     1      36.503 -25.315 -14.096  0.00  0.00    +0.260 C 
ATOM     19  C   UNL     1      36.799 -25.835 -12.694  0.00  0.00    +0.228 C 
ENDBRANCH   8  15
ENDBRANCH   3   7
BRANCH   4  20
ATOM     20  C   UNL     1      35.949 -18.730 -20.665  0.00  0.00    +0.135 C 
BRANCH  20  22
ATOM     21  O   UNL     1      35.102 -16.087 -20.171  0.00  0.00    -0.270 OA
ATOM     22  N   UNL     1      35.453 -17.812 -21.648  0.00  0.00    -0.297 N 
ATOM     23  C   UNL     1      35.049 -16.511 -21.327  0.00  0.00    +0.252 C 
ATOM     24  H   UNL     1      35.393 -18.109 -22.585  0.00  0.00    +0.150 HD
BRANCH  23  27
ATOM     25 CL   UNL     1      33.310 -12.269 -24.321  0.00  0.00    -0.075 Cl
ATOM     26  S   UNL     1      34.238 -14.054 -22.137  0.00  0.00    -0.071 S 
ATOM     27  C   UNL     1      34.594 -15.679 -22.449  0.00  0.00    +0.084 C 
ATOM     28  C   UNL     1      34.419 -16.059 -23.734  0.00  0.00    +0.012 C 
ATOM     29  C   UNL     1      33.965 -14.963 -24.524  0.00  0.00    +0.019 C 
ATOM     30  C   UNL     1      33.824 -13.813 -23.780  0.00  0.00    +0.087 C 
ENDBRANCH  23  27
ENDBRANCH  20  22
ENDBRANCH   4  20
TORSDOF 5
ENDMDL
MODEL 2
REMARK VINA RESULT:     -10.4      4.974      8.589
REMARK  Name = 9875401
REMARK  5 active torsions:
REMARK  status: ('A' for Active; 'I' for Inactive)
REMARK    1  A    between atoms: N_3  and  C_7
REMARK    2  A    between atoms: C_4  and  C_20
REMARK    3  A    between atoms: C_8  and  N_15
REMARK    4  A    between atoms: C_20  and  N_22
REMARK    5  A    between atoms: C_23  and  C_27
REMARK                            x       y       z     vdW  Elec       q    Type
REMARK                         _______ _______ _______ _____ _____    ______ ____
ROOT
ATOM      1  O   UNL     1      33.357 -12.570 -24.761  0.00  0.00    -0.434 OA
ATOM      2  O   UNL     1      33.097 -14.753 -25.322  0.00  0.00    -0.226 OA
ATOM      3  N   UNL     1      34.156 -14.102 -23.308  0.00  0.00    -0.221 N 
ATOM      4  C   UNL     1      33.724 -11.844 -23.579  0.00  0.00    +0.210 C 
ATOM      5  C   UNL     1      34.555 -12.825 -22.779  0.00  0.00    +0.147 C 
ATOM      6  C   UNL     1      33.497 -13.919 -24.521  0.00  0.00    +0.409 C 
ENDROOT
BRANCH   3   7
ATOM      7  C   UNL     1      34.505 -15.336 -22.690  0.00  0.00    +0.057 C 
ATOM      8  C   UNL     1      35.189 -17.750 -21.483  0.00  0.00    +0.054 C 
ATOM      9  C   UNL     1      34.608 -15.417 -21.302  0.00  0.00    +0.016 C 
ATOM     10  C   UNL     1      34.745 -16.465 -23.473  0.00  0.00    +0.016 C 
ATOM     11  C   UNL     1      34.951 -16.625 -20.696  0.00  0.00    +0.016 C 
ATOM     12  C   UNL     1      35.087 -17.675 -22.869  0.00  0.00    +0.016 C 
BRANCH   8  15
ATOM     13  O   UNL     1      36.061 -21.568 -19.824  0.00  0.00    -0.343 OA
ATOM     14  O   UNL     1      37.874 -18.679 -20.878  0.00  0.00    -0.272 OA
ATOM     15  N   UNL     1      35.543 -19.001 -20.856  0.00  0.00    -0.254 N 
ATOM     16  C   UNL     1      34.496 -20.021 -20.710  0.00  0.00    +0.130 C 
ATOM     17  C   UNL     1      34.789 -20.988 -19.580  0.00  0.00    +0.165 C 
ATOM     18  C   UNL     1      36.876 -19.329 -20.559  0.00  0.00    +0.260 C 
ATOM     19  C   UNL     1      37.070 -20.592 -19.727  0.00  0.00    +0.228 C 
ENDBRANCH   8  15
ENDBRANCH   3   7
BRANCH   4  20
ATOM     20  C   UNL     1      32.457 -11.406 -22.859  0.00  0.00    +0.135 C 
BRANCH  20  22
ATOM     21  O   UNL     1      31.213 -10.167 -20.652  0.00  0.00    -0.270 OA
ATOM     22  N   UNL     1      32.493 -10.005 -22.554  0.00  0.00    -0.297 N 
ATOM     23  C   UNL     1      31.848  -9.460 -21.438  0.00  0.00    +0.252 C 
ATOM     24  H   UNL     1      32.989  -9.403 -23.155  0.00  0.00    +0.150 HD
BRANCH  23  27
ATOM     25 CL   UNL     1      31.443  -4.031 -22.028  0.00  0.00    -0.075 Cl
ATOM     26  S   UNL     1      31.207  -6.977 -22.318  0.00  0.00    -0.071 S 
ATOM     27  C   UNL     1      32.004  -8.013 -21.242  0.00  0.00    +0.084 C 
ATOM     28  C   UNL     1      32.723  -7.387 -20.284  0.00  0.00    +0.012 C 
ATOM     29  C   UNL     1      32.627  -5.972 -20.427  0.00  0.00    +0.019 C 
ATOM     30  C   UNL     1      31.833  -5.614 -21.494  0.00  0.00    +0.087 C 
ENDBRANCH  23  27
ENDBRANCH  20  22
ENDBRANCH   4  20
TORSDOF 5
ENDMDL
MODEL 3
REMARK VINA RESULT:      -9.7      9.093     12.665
REMARK  Name = 9875401
REMARK  5 active torsions:
REMARK  status: ('A' for Active; 'I' for Inactive)
REMARK    1  A    between atoms: N_3  and  C_7
REMARK    2  A    between atoms: C_4  and  C_20
REMARK    3  A    between atoms: C_8  and  N_15
REMARK    4  A    between atoms: C_20  and  N_22
REMARK    5  A    between atoms: C_23  and  C_27
REMARK                            x       y       z     vdW  Elec       q    Type
REMARK                         _______ _______ _______ _____ _____    ______ ____
ROOT
ATOM      1  O   UNL     1      31.505  -7.422 -19.959  0.00  0.00    -0.434 OA
ATOM      2  O   UNL     1      32.220  -9.396 -19.097  0.00  0.00    -0.226 OA
ATOM      3  N   UNL     1      32.019  -9.055 -21.430  0.00  0.00    -0.221 N 
ATOM      4  C   UNL     1      31.479  -6.812 -21.256  0.00  0.00    +0.210 C 
ATOM      5  C   UNL     1      31.485  -7.978 -22.221  0.00  0.00    +0.147 C 
ATOM      6  C   UNL     1      31.960  -8.716 -20.081  0.00  0.00    +0.409 C 
ENDROOT
BRANCH   3   7
ATOM      7  C   UNL     1      32.429 -10.297 -21.994  0.00  0.00    +0.057 C 
ATOM      8  C   UNL     1      33.232 -12.724 -23.096  0.00  0.00    +0.054 C 
ATOM      9  C   UNL     1      31.908 -11.493 -21.502  0.00  0.00    +0.016 C 
ATOM     10  C   UNL     1      33.354 -10.317 -23.038  0.00  0.00    +0.016 C 
ATOM     11  C   UNL     1      32.310 -12.709 -22.053  0.00  0.00    +0.016 C 
ATOM     12  C   UNL     1      33.756 -11.533 -23.591  0.00  0.00    +0.016 C 
BRANCH   8  15
ATOM     13  O   UNL     1      34.504 -16.295 -25.026  0.00  0.00    -0.343 OA
ATOM     14  O   UNL     1      35.140 -14.592 -21.953  0.00  0.00    -0.272 OA
ATOM     15  N   UNL     1      33.648 -13.982 -23.668  0.00  0.00    -0.254 N 
ATOM     16  C   UNL     1      33.273 -14.267 -25.059  0.00  0.00    +0.130 C 
ATOM     17  C   UNL     1      33.232 -15.754 -25.350  0.00  0.00    +0.165 C 
ATOM     18  C   UNL     1      34.540 -14.839 -23.001  0.00  0.00    +0.260 C 
ATOM     19  C   UNL     1      34.731 -16.210 -23.639  0.00  0.00    +0.228 C 
ENDBRANCH   8  15
ENDBRANCH   3   7
BRANCH   4  20
ATOM     20  C   UNL     1      32.697  -5.909 -21.399  0.00  0.00    +0.135 C 
BRANCH  20  22
ATOM     21  O   UNL     1      34.894  -7.044 -22.753  0.00  0.00    -0.270 OA
ATOM     22  N   UNL     1      33.029  -5.702 -22.778  0.00  0.00    -0.297 N 
ATOM     23  C   UNL     1      34.139  -6.301 -23.383  0.00  0.00    +0.252 C 
ATOM     24  H   UNL     1      32.454  -5.115 -23.320  0.00  0.00    +0.150 HD
BRANCH  23  27
ATOM     25 CL   UNL     1      33.241  -5.597 -28.739  0.00  0.00    -0.075 Cl
ATOM     26  S   UNL     1      32.985  -6.144 -25.831  0.00  0.00    -0.071 S 
ATOM     27  C   UNL     1      34.330  -6.018 -24.812  0.00  0.00    +0.084 C 
ATOM     28  C   UNL     1      35.476  -5.658 -25.431  0.00  0.00    +0.012 C 
ATOM     29  C   UNL     1      35.256  -5.473 -26.827  0.00  0.00    +0.019 C 
ATOM     30  C   UNL     1      33.945  -5.705 -27.179  0.00  0.00    +0.087 C 
ENDBRANCH  23  27
ENDBRANCH  20  22
ENDBRANCH   4  20
TORSDOF 5
ENDMDL
MODEL 4
REMARK VINA RESULT:      -9.6      6.017     13.299
REMARK  Name = 9875401
REMARK  5 active torsions:
REMARK  status: ('A' for Active; 'I' for Inactive)
REMARK    1  A    between atoms: N_3  and  C_7
REMARK    2  A    between atoms: C_4  and  C_20
REMARK    3  A    between atoms: C_8  and  N_15
REMARK    4  A    between atoms: C_20  and  N_22
REMARK    5  A    between atoms: C_23  and  C_27
REMARK                            x       y       z     vdW  Elec       q    Type
REMARK                         _______ _______ _______ _____ _____    ______ ____
ROOT
ATOM      1  O   UNL     1      33.526 -14.826 -23.549  0.00  0.00    -0.434 OA
ATOM      2  O   UNL     1      33.447 -13.040 -24.946  0.00  0.00    -0.226 OA
ATOM      3  N   UNL     1      32.999 -12.832 -22.631  0.00  0.00    -0.221 N 
ATOM      4  C   UNL     1      33.538 -15.026 -22.129  0.00  0.00    +0.210 C 
ATOM      5  C   UNL     1      32.859 -13.793 -21.570  0.00  0.00    +0.147 C 
ATOM      6  C   UNL     1      33.338 -13.487 -23.812  0.00  0.00    +0.409 C 
ENDROOT
BRANCH   3   7
ATOM      7  C   UNL     1      32.716 -11.447 -22.460  0.00  0.00    +0.057 C 
ATOM      8  C   UNL     1      32.162  -8.739 -22.126  0.00  0.00    +0.054 C 
ATOM      9  C   UNL     1      33.380 -10.498 -23.238  0.00  0.00    +0.016 C 
ATOM     10  C   UNL     1      31.775 -11.038 -21.516  0.00  0.00    +0.016 C 
ATOM     11  C   UNL     1      33.102  -9.141 -23.071  0.00  0.00    +0.016 C 
ATOM     12  C   UNL     1      31.497  -9.682 -21.348  0.00  0.00    +0.016 C 
BRANCH   8  15
ATOM     13  O   UNL     1      31.036  -4.666 -21.642  0.00  0.00    -0.343 OA
ATOM     14  O   UNL     1      33.207  -7.007 -20.042  0.00  0.00    -0.272 OA
ATOM     15  N   UNL     1      31.874  -7.335 -21.954  0.00  0.00    -0.254 N 
ATOM     16  C   UNL     1      30.779  -6.752 -22.741  0.00  0.00    +0.130 C 
ATOM     17  C   UNL     1      30.940  -5.257 -22.928  0.00  0.00    +0.165 C 
ATOM     18  C   UNL     1      32.479  -6.575 -20.939  0.00  0.00    +0.260 C 
ATOM     19  C   UNL     1      32.224  -5.074 -21.006  0.00  0.00    +0.228 C 
ENDBRANCH   8  15
ENDBRANCH   3   7
BRANCH   4  20
ATOM     20  C   UNL     1      34.981 -15.177 -21.666  0.00  0.00    +0.135 C 
BRANCH  20  22
ATOM     21  O   UNL     1      35.480 -17.617 -22.986  0.00  0.00    -0.270 OA
ATOM     22  N   UNL     1      35.191 -16.445 -21.031  0.00  0.00    -0.297 N 
ATOM     23  C   UNL     1      35.433 -17.618 -21.754  0.00  0.00    +0.252 C 
ATOM     24  H   UNL     1      35.162 -16.493 -20.048  0.00  0.00    +0.150 HD
BRANCH  23  27
ATOM     25 CL   UNL     1      34.673 -22.343 -19.092  0.00  0.00    -0.075 Cl
ATOM     26  S   UNL     1      34.342 -19.856 -20.681  0.00  0.00    -0.071 S 
ATOM     27  C   UNL     1      35.661 -18.833 -20.961  0.00  0.00    +0.084 C 
ATOM     28  C   UNL     1      36.823 -19.248 -20.412  0.00  0.00    +0.012 C 
ATOM     29  C   UNL     1      36.639 -20.478 -19.714  0.00  0.00    +0.019 C 
ATOM     30  C   UNL     1      35.336 -20.919 -19.781  0.00  0.00    +0.087 C 
ENDBRANCH  23  27
ENDBRANCH  20  22
ENDBRANCH   4  20
TORSDOF 5
ENDMDL
MODEL 5
REMARK VINA RESULT:      -9.5      1.817      2.411
REMARK  Name = 9875401
REMARK  5 active torsions:
REMARK  status: ('A' for Active; 'I' for Inactive)
REMARK    1  A    between atoms: N_3  and  C_7
REMARK    2  A    between atoms: C_4  and  C_20
REMARK    3  A    between atoms: C_8  and  N_15
REMARK    4  A    between atoms: C_20  and  N_22
REMARK    5  A    between atoms: C_23  and  C_27
REMARK                            x       y       z     vdW  Elec       q    Type
REMARK                         _______ _______ _______ _____ _____    ______ ____
ROOT
ATOM      1  O   UNL     1      34.162 -19.352 -21.565  0.00  0.00    -0.434 OA
ATOM      2  O   UNL     1      32.765 -19.833 -19.843  0.00  0.00    -0.226 OA
ATOM      3  N   UNL     1      34.986 -20.650 -19.911  0.00  0.00    -0.221 N 
ATOM      4  C   UNL     1      35.568 -19.476 -21.819  0.00  0.00    +0.210 C 
ATOM      5  C   UNL     1      36.015 -20.605 -20.915  0.00  0.00    +0.147 C 
ATOM      6  C   UNL     1      33.871 -19.944 -20.356  0.00  0.00    +0.409 C 
ENDROOT
BRANCH   3   7
ATOM      7  C   UNL     1      35.109 -21.408 -18.712  0.00  0.00    +0.057 C 
ATOM      8  C   UNL     1      35.349 -22.890 -16.368  0.00  0.00    +0.054 C 
ATOM      9  C   UNL     1      34.044 -22.194 -18.272  0.00  0.00    +0.016 C 
ATOM     10  C   UNL     1      36.294 -21.365 -17.978  0.00  0.00    +0.016 C 
ATOM     11  C   UNL     1      34.164 -22.936 -17.097  0.00  0.00    +0.016 C 
ATOM     12  C   UNL     1      36.415 -22.108 -16.804  0.00  0.00    +0.016 C 
BRANCH   8  15
ATOM     13  O   UNL     1      35.977 -25.044 -12.754  0.00  0.00    -0.343 OA
ATOM     14  O   UNL     1      33.408 -23.037 -14.212  0.00  0.00    -0.272 OA
ATOM     15  N   UNL     1      35.474 -23.660 -15.153  0.00  0.00    -0.254 N 
ATOM     16  C   UNL     1      36.783 -24.246 -14.837  0.00  0.00    +0.130 C 
ATOM     17  C   UNL     1      36.668 -25.450 -13.925  0.00  0.00    +0.165 C 
ATOM     18  C   UNL     1      34.446 -23.703 -14.196  0.00  0.00    +0.260 C 
ATOM     19  C   UNL     1      34.646 -24.706 -13.066  0.00  0.00    +0.228 C 
ENDBRANCH   8  15
ENDBRANCH   3   7
BRANCH   4  20
ATOM     20  C   UNL     1      36.244 -18.149 -21.499  0.00  0.00    +0.135 C 
BRANCH  20  22
ATOM     21  O   UNL     1      35.641 -15.733 -22.821  0.00  0.00    -0.270 OA
ATOM     22  N   UNL     1      35.288 -17.172 -21.066  0.00  0.00    -0.297 N 
ATOM     23  C   UNL     1      35.042 -15.992 -21.776  0.00  0.00    +0.252 C 
ATOM     24  H   UNL     1      34.787 -17.338 -20.235  0.00  0.00    +0.150 HD
BRANCH  23  27
ATOM     25 CL   UNL     1      31.275 -12.056 -21.227  0.00  0.00    -0.075 Cl
ATOM     26  S   UNL     1      33.366 -13.910 -22.231  0.00  0.00    -0.071 S 
ATOM     27  C   UNL     1      34.011 -15.106 -21.221  0.00  0.00    +0.084 C 
ATOM     28  C   UNL     1      33.497 -15.126 -19.972  0.00  0.00    +0.012 C 
ATOM     29  C   UNL     1      32.515 -14.105 -19.815  0.00  0.00    +0.019 C 
ATOM     30  C   UNL     1      32.346 -13.370 -20.967  0.00  0.00    +0.087 C 
ENDBRANCH  23  27
ENDBRANCH  20  22
ENDBRANCH   4  20
TORSDOF 5
ENDMDL
MODEL 6
REMARK VINA RESULT:      -9.5      9.384     13.328
REMARK  Name = 9875401
REMARK  5 active torsions:
REMARK  status: ('A' for Active; 'I' for Inactive)
REMARK    1  A    between atoms: N_3  and  C_7
REMARK    2  A    between atoms: C_4  and  C_20
REMARK    3  A    between atoms: C_8  and  N_15
REMARK    4  A    between atoms: C_20  and  N_22
REMARK    5  A    between atoms: C_23  and  C_27
REMARK                            x       y       z     vdW  Elec       q    Type
REMARK                         _______ _______ _______ _____ _____    ______ ____
ROOT
ATOM      1  O   UNL     1      31.452  -6.783 -20.769  0.00  0.00    -0.434 OA
ATOM      2  O   UNL     1      32.456  -8.539 -19.741  0.00  0.00    -0.226 OA
ATOM      3  N   UNL     1      31.895  -8.596 -22.040  0.00  0.00    -0.221 N 
ATOM      4  C   UNL     1      31.188  -6.394 -22.124  0.00  0.00    +0.210 C 
ATOM      5  C   UNL     1      31.160  -7.699 -22.891  0.00  0.00    +0.147 C 
ATOM      6  C   UNL     1      31.999  -8.047 -20.764  0.00  0.00    +0.409 C 
ENDROOT
BRANCH   3   7
ATOM      7  C   UNL     1      32.330  -9.883 -22.467  0.00  0.00    +0.057 C 
ATOM      8  C   UNL     1      33.180 -12.399 -23.302  0.00  0.00    +0.054 C 
ATOM      9  C   UNL     1      31.692 -11.028 -21.991  0.00  0.00    +0.016 C 
ATOM     10  C   UNL     1      33.393  -9.999 -23.361  0.00  0.00    +0.016 C 
ATOM     11  C   UNL     1      32.117 -12.289 -22.409  0.00  0.00    +0.016 C 
ATOM     12  C   UNL     1      33.820 -11.259 -23.780  0.00  0.00    +0.016 C 
BRANCH   8  15
ATOM     13  O   UNL     1      34.535 -16.129 -24.833  0.00  0.00    -0.343 OA
ATOM     14  O   UNL     1      35.026 -14.150 -21.901  0.00  0.00    -0.272 OA
ATOM     15  N   UNL     1      33.619 -13.704 -23.735  0.00  0.00    -0.254 N 
ATOM     16  C   UNL     1      33.311 -14.116 -25.111  0.00  0.00    +0.130 C 
ATOM     17  C   UNL     1      33.282 -15.623 -25.266  0.00  0.00    +0.165 C 
ATOM     18  C   UNL     1      34.477 -14.494 -22.950  0.00  0.00    +0.260 C 
ATOM     19  C   UNL     1      34.695 -15.917 -23.450  0.00  0.00    +0.228 C 
ENDBRANCH   8  15
ENDBRANCH   3   7
BRANCH   4  20
ATOM     20  C   UNL     1      32.288  -5.449 -22.588  0.00  0.00    +0.135 C 
BRANCH  20  22
ATOM     21  O   UNL     1      34.408  -5.718 -24.427  0.00  0.00    -0.270 OA
ATOM     22  N   UNL     1      32.207  -5.214 -24.000  0.00  0.00    -0.297 N 
ATOM     23  C   UNL     1      33.305  -5.368 -24.853  0.00  0.00    +0.252 C 
ATOM     24  H   UNL     1      31.345  -4.932 -24.384  0.00  0.00    +0.150 HD
BRANCH  23  27
ATOM     25 CL   UNL     1      31.424  -3.265 -29.546  0.00  0.00    -0.075 Cl
ATOM     26  S   UNL     1      32.006  -3.862 -26.696  0.00  0.00    -0.071 S 
ATOM     27  C   UNL     1      33.057  -5.121 -26.279  0.00  0.00    +0.084 C 
ATOM     28  C   UNL     1      33.578  -5.793 -27.330  0.00  0.00    +0.012 C 
ATOM     29  C   UNL     1      33.095  -5.256 -28.559  0.00  0.00    +0.019 C 
ATOM     30  C   UNL     1      32.232  -4.202 -28.358  0.00  0.00    +0.087 C 
ENDBRANCH  23  27
ENDBRANCH  20  22
ENDBRANCH   4  20
TORSDOF 5
ENDMDL
MODEL 7
REMARK VINA RESULT:      -9.3      8.401     12.697
REMARK  Name = 9875401
REMARK  5 active torsions:
REMARK  status: ('A' for Active; 'I' for Inactive)
REMARK    1  A    between atoms: N_3  and  C_7
REMARK    2  A    between atoms: C_4  and  C_20
REMARK    3  A    between atoms: C_8  and  N_15
REMARK    4  A    between atoms: C_20  and  N_22
REMARK    5  A    between atoms: C_23  and  C_27
REMARK                            x       y       z     vdW  Elec       q    Type
REMARK                         _______ _______ _______ _____ _____    ______ ____
ROOT
ATOM      1  O   UNL     1      31.358  -7.286 -21.904  0.00  0.00    -0.434 OA
ATOM      2  O   UNL     1      31.891  -8.938 -20.443  0.00  0.00    -0.226 OA
ATOM      3  N   UNL     1      32.077  -9.237 -22.783  0.00  0.00    -0.221 N 
ATOM      4  C   UNL     1      31.554  -7.043 -23.304  0.00  0.00    +0.210 C 
ATOM      5  C   UNL     1      31.697  -8.424 -23.908  0.00  0.00    +0.147 C 
ATOM      6  C   UNL     1      31.806  -8.552 -21.601  0.00  0.00    +0.409 C 
ENDROOT
BRANCH   3   7
ATOM      7  C   UNL     1      32.552 -10.572 -22.921  0.00  0.00    +0.057 C 
ATOM      8  C   UNL     1      33.482 -13.182 -23.192  0.00  0.00    +0.054 C 
ATOM      9  C   UNL     1      33.723 -10.824 -23.637  0.00  0.00    +0.016 C 
ATOM     10  C   UNL     1      31.849 -11.627 -22.342  0.00  0.00    +0.016 C 
ATOM     11  C   UNL     1      34.189 -12.132 -23.773  0.00  0.00    +0.016 C 
ATOM     12  C   UNL     1      32.314 -12.934 -22.477  0.00  0.00    +0.016 C 
BRANCH   8  15
ATOM     13  O   UNL     1      34.768 -17.233 -23.362  0.00  0.00    -0.343 OA
ATOM     14  O   UNL     1      33.317 -14.835 -25.574  0.00  0.00    -0.272 OA
ATOM     15  N   UNL     1      33.965 -14.534 -23.332  0.00  0.00    -0.254 N 
ATOM     16  C   UNL     1      34.371 -15.253 -22.116  0.00  0.00    +0.130 C 
ATOM     17  C   UNL     1      35.360 -16.363 -22.408  0.00  0.00    +0.165 C 
ATOM     18  C   UNL     1      33.883 -15.227 -24.551  0.00  0.00    +0.260 C 
ATOM     19  C   UNL     1      34.606 -16.568 -24.592  0.00  0.00    +0.228 C 
ENDBRANCH   8  15
ENDBRANCH   3   7
BRANCH   4  20
ATOM     20  C   UNL     1      32.794  -6.178 -23.485  0.00  0.00    +0.135 C 
BRANCH  20  22
ATOM     21  O   UNL     1      32.497  -4.475 -25.711  0.00  0.00    -0.270 OA
ATOM     22  N   UNL     1      33.381  -6.379 -24.777  0.00  0.00    -0.297 N 
ATOM     23  C   UNL     1      33.188  -5.488 -25.838  0.00  0.00    +0.252 C 
ATOM     24  H   UNL     1      33.940  -7.176 -24.924  0.00  0.00    +0.150 HD
BRANCH  23  27
ATOM     25 CL   UNL     1      37.091  -6.468 -29.553  0.00  0.00    -0.075 Cl
ATOM     26  S   UNL     1      35.573  -5.825 -27.082  0.00  0.00    -0.071 S 
ATOM     27  C   UNL     1      33.881  -5.813 -27.092  0.00  0.00    +0.084 C 
ATOM     28  C   UNL     1      33.322  -6.112 -28.285  0.00  0.00    +0.012 C 
ATOM     29  C   UNL     1      34.327  -6.369 -29.262  0.00  0.00    +0.019 C 
ATOM     30  C   UNL     1      35.597  -6.246 -28.741  0.00  0.00    +0.087 C 
ENDBRANCH  23  27
ENDBRANCH  20  22
ENDBRANCH   4  20
TORSDOF 5
ENDMDL
MODEL 8
REMARK VINA RESULT:      -9.3      4.456      7.330
REMARK  Name = 9875401
REMARK  5 active torsions:
REMARK  status: ('A' for Active; 'I' for Inactive)
REMARK    1  A    between atoms: N_3  and  C_7
REMARK    2  A    between atoms: C_4  and  C_20
REMARK    3  A    between atoms: C_8  and  N_15
REMARK    4  A    between atoms: C_20  and  N_22
REMARK    5  A    between atoms: C_23  and  C_27
REMARK                            x       y       z     vdW  Elec       q    Type
REMARK                         _______ _______ _______ _____ _____    ______ ____
ROOT
ATOM      1  O   UNL     1      37.353 -25.244 -14.222  0.00  0.00    -0.434 OA
ATOM      2  O   UNL     1      35.707 -26.526 -15.114  0.00  0.00    -0.226 OA
ATOM      3  N   UNL     1      35.300 -24.317 -14.367  0.00  0.00    -0.221 N 
ATOM      4  C   UNL     1      37.518 -23.858 -13.891  0.00  0.00    +0.210 C 
ATOM      5  C   UNL     1      36.108 -23.356 -13.665  0.00  0.00    +0.147 C 
ATOM      6  C   UNL     1      36.055 -25.457 -14.630  0.00  0.00    +0.409 C 
ENDROOT
BRANCH   3   7
ATOM      7  C   UNL     1      33.914 -24.117 -14.627  0.00  0.00    +0.057 C 
ATOM      8  C   UNL     1      31.206 -23.726 -15.138  0.00  0.00    +0.054 C 
ATOM      9  C   UNL     1      33.513 -23.396 -15.752  0.00  0.00    +0.016 C 
ATOM     10  C   UNL     1      32.958 -24.642 -13.759  0.00  0.00    +0.016 C 
ATOM     11  C   UNL     1      32.157 -23.200 -16.008  0.00  0.00    +0.016 C 
ATOM     12  C   UNL     1      31.601 -24.446 -14.014  0.00  0.00    +0.016 C 
BRANCH   8  15
ATOM     13  O   UNL     1      27.027 -23.407 -15.866  0.00  0.00    -0.343 OA
ATOM     14  O   UNL     1      29.519 -21.647 -14.010  0.00  0.00    -0.272 OA
ATOM     15  N   UNL     1      29.802 -23.523 -15.403  0.00  0.00    -0.254 N 
ATOM     16  C   UNL     1      29.073 -24.581 -16.117  0.00  0.00    +0.130 C 
ATOM     17  C   UNL     1      27.845 -24.052 -16.830  0.00  0.00    +0.165 C 
ATOM     18  C   UNL     1      29.090 -22.448 -14.844  0.00  0.00    +0.260 C 
ATOM     19  C   UNL     1      27.672 -22.259 -15.369  0.00  0.00    +0.228 C 
ENDBRANCH   8  15
ENDBRANCH   3   7
BRANCH   4  20
ATOM     20  C   UNL     1      38.225 -23.159 -15.043  0.00  0.00    +0.135 C 
BRANCH  20  22
ATOM     21  O   UNL     1      37.865 -20.678 -16.333  0.00  0.00    -0.270 OA
ATOM     22  N   UNL     1      37.321 -22.900 -16.125  0.00  0.00    -0.297 N 
ATOM     23  C   UNL     1      37.196 -21.638 -16.717  0.00  0.00    +0.252 C 
ATOM     24  H   UNL     1      36.766 -23.639 -16.465  0.00  0.00    +0.150 HD
BRANCH  23  27
ATOM     25 CL   UNL     1      34.792 -20.182 -21.417  0.00  0.00    -0.075 Cl
ATOM     26  S   UNL     1      36.623 -20.473 -19.097  0.00  0.00    -0.071 S 
ATOM     27  C   UNL     1      36.250 -21.539 -17.837  0.00  0.00    +0.084 C 
ATOM     28  C   UNL     1      35.088 -22.211 -17.991  0.00  0.00    +0.012 C 
ATOM     29  C   UNL     1      34.451 -21.840 -19.211  0.00  0.00    +0.019 C 
ATOM     30  C   UNL     1      35.179 -20.902 -19.909  0.00  0.00    +0.087 C 
ENDBRANCH  23  27
ENDBRANCH  20  22
ENDBRANCH   4  20
TORSDOF 5
ENDMDL
MODEL 9
REMARK VINA RESULT:      -9.2      4.847     11.153
REMARK  Name = 9875401
REMARK  5 active torsions:
REMARK  status: ('A' for Active; 'I' for Inactive)
REMARK    1  A    between atoms: N_3  and  C_7
REMARK    2  A    between atoms: C_4  and  C_20
REMARK    3  A    between atoms: C_8  and  N_15
REMARK    4  A    between atoms: C_20  and  N_22
REMARK    5  A    between atoms: C_23  and  C_27
REMARK                            x       y       z     vdW  Elec       q    Type
REMARK                         _______ _______ _______ _____ _____    ______ ____
ROOT
ATOM      1  O   UNL     1      36.853 -21.186 -19.505  0.00  0.00    -0.434 OA
ATOM      2  O   UNL     1      37.822 -19.158 -19.817  0.00  0.00    -0.226 OA
ATOM      3  N   UNL     1      35.694 -19.673 -20.715  0.00  0.00    -0.221 N 
ATOM      4  C   UNL     1      35.546 -21.746 -19.696  0.00  0.00    +0.210 C 
ATOM      5  C   UNL     1      34.924 -20.887 -20.776  0.00  0.00    +0.147 C 
ATOM      6  C   UNL     1      36.868 -19.902 -20.002  0.00  0.00    +0.409 C 
ENDROOT
BRANCH   3   7
ATOM      7  C   UNL     1      35.311 -18.481 -21.394  0.00  0.00    +0.057 C 
ATOM      8  C   UNL     1      34.563 -16.151 -22.721  0.00  0.00    +0.054 C 
ATOM      9  C   UNL     1      35.055 -18.511 -22.765  0.00  0.00    +0.016 C 
ATOM     10  C   UNL     1      35.193 -17.284 -20.689  0.00  0.00    +0.016 C 
ATOM     11  C   UNL     1      34.680 -17.344 -23.430  0.00  0.00    +0.016 C 
ATOM     12  C   UNL     1      34.818 -16.117 -21.353  0.00  0.00    +0.016 C 
BRANCH   8  15
ATOM     13  O   UNL     1      33.662 -12.474 -24.660  0.00  0.00    -0.343 OA
ATOM     14  O   UNL     1      33.625 -15.954 -25.463  0.00  0.00    -0.272 OA
ATOM     15  N   UNL     1      34.174 -14.944 -23.409  0.00  0.00    -0.254 N 
ATOM     16  C   UNL     1      34.489 -13.655 -22.777  0.00  0.00    +0.130 C 
ATOM     17  C   UNL     1      33.570 -12.545 -23.246  0.00  0.00    +0.165 C 
ATOM     18  C   UNL     1      33.681 -14.968 -24.724  0.00  0.00    +0.260 C 
ATOM     19  C   UNL     1      33.134 -13.643 -25.242  0.00  0.00    +0.228 C 
ENDBRANCH   8  15
ENDBRANCH   3   7
BRANCH   4  20
ATOM     20  C   UNL     1      34.790 -21.690 -18.376  0.00  0.00    +0.135 C 
BRANCH  20  22
ATOM     21  O   UNL     1      33.742 -23.024 -16.124  0.00  0.00    -0.270 OA
ATOM     22  N   UNL     1      35.558 -22.271 -17.314  0.00  0.00    -0.297 N 
ATOM     23  C   UNL     1      34.966 -22.919 -16.224  0.00  0.00    +0.252 C 
ATOM     24  H   UNL     1      36.540 -22.211 -17.352  0.00  0.00    +0.150 HD
BRANCH  23  27
ATOM     25 CL   UNL     1      37.102 -26.030 -12.256  0.00  0.00    -0.075 Cl
ATOM     26  S   UNL     1      35.336 -24.786 -14.293  0.00  0.00    -0.071 S 
ATOM     27  C   UNL     1      35.887 -23.492 -15.233  0.00  0.00    +0.084 C 
ATOM     28  C   UNL     1      37.154 -23.103 -14.970  0.00  0.00    +0.012 C 
ATOM     29  C   UNL     1      37.722 -23.904 -13.938  0.00  0.00    +0.019 C 
ATOM     30  C   UNL     1      36.840 -24.858 -13.480  0.00  0.00    +0.087 C 
ENDBRANCH  23  27
ENDBRANCH  20  22
ENDBRANCH   4  20
TORSDOF 5
ENDMDL
