MODEL 1
REMARK VINA RESULT:     -12.3      0.000      0.000
REMARK  Name = 12087505
REMARK  3 active torsions:
REMARK  status: ('A' for Active; 'I' for Inactive)
REMARK    1  A    between atoms: C_1  and  S_18
REMARK    2  A    between atoms: C_4  and  N_9
REMARK    3  A    between atoms: S_18  and  N_21
REMARK                            x       y       z     vdW  Elec       q    Type
REMARK                         _______ _______ _______ _____ _____    ______ ____
ROOT
ATOM      1  C   UNL     1      35.035 -21.180 -19.425  0.00  0.00    +0.123 C 
ATOM      2  C   UNL     1      34.613 -20.230 -20.340  0.00  0.00    +0.035 C 
ATOM      3  C   UNL     1      36.352 -21.239 -19.002  0.00  0.00    +0.020 C 
ATOM      4  C   UNL     1      35.534 -19.313 -20.846  0.00  0.00    +0.053 C 
ATOM      5  C   UNL     1      37.274 -20.321 -19.507  0.00  0.00    +0.003 C 
ATOM      6  C   UNL     1      36.864 -19.358 -20.429  0.00  0.00    +0.015 C 
ENDROOT
BRANCH   4   9
ATOM      7  S   UNL     1      33.756 -14.601 -24.557  0.00  0.00    -0.051 S 
ATOM      8  O   UNL     1      35.179 -16.368 -20.523  0.00  0.00    -0.252 OA
ATOM      9  N   UNL     1      35.124 -18.349 -21.768  0.00  0.00    -0.268 N 
ATOM     10  N   UNL     1      34.533 -16.359 -22.776  0.00  0.00    -0.248 N 
ATOM     11  N   UNL     1      34.373 -14.050 -22.107  0.00  0.00    -0.222 NA
ATOM     12  C   UNL     1      34.966 -16.953 -21.580  0.00  0.00    +0.310 C 
ATOM     13  C   UNL     1      34.267 -15.004 -22.982  0.00  0.00    +0.167 C 
ATOM     14  C   UNL     1      33.652 -12.965 -24.052  0.00  0.00    +0.059 C 
ATOM     15  C   UNL     1      34.017 -12.867 -22.725  0.00  0.00    +0.108 C 
ATOM     16  H   UNL     1      34.915 -18.684 -22.671  0.00  0.00    +0.156 HD
ATOM     17  H   UNL     1      34.404 -16.958 -23.546  0.00  0.00    +0.158 HD
ENDBRANCH   4   9
BRANCH   1  18
ATOM     18  S   UNL     1      33.870 -22.344 -18.787  0.00  0.00    +0.063 S 
ATOM     19  O   UNL     1      32.575 -21.700 -18.752  0.00  0.00    -0.153 OA
ATOM     20  O   UNL     1      34.063 -23.597 -19.485  0.00  0.00    -0.153 OA
BRANCH  18  21
ATOM     21  N   UNL     1      34.457 -22.503 -17.185  0.00  0.00    -0.152 NA
ATOM     22  N   UNL     1      35.644 -23.302 -14.736  0.00  0.00    -0.290 N 
ATOM     23  C   UNL     1      33.843 -23.601 -16.386  0.00  0.00    +0.117 C 
ATOM     24  C   UNL     1      35.940 -22.503 -17.044  0.00  0.00    +0.117 C 
ATOM     25  C   UNL     1      34.189 -23.411 -14.912  0.00  0.00    +0.111 C 
ATOM     26  C   UNL     1      36.315 -22.304 -15.578  0.00  0.00    +0.111 C 
ATOM     27  N   UNL     1      35.426 -23.417 -12.353  0.00  0.00    -0.229 NA
ATOM     28  C   UNL     1      36.174 -23.618 -13.480  0.00  0.00    +0.132 C 
ATOM     29  C   UNL     1      37.474 -24.137 -13.416  0.00  0.00    +0.034 C 
ATOM     30  C   UNL     1      38.015 -24.455 -12.175  0.00  0.00    +0.004 C 
ATOM     31  C   UNL     1      35.984 -23.740 -11.165  0.00  0.00    +0.100 C 
ATOM     32  C   UNL     1      37.263 -24.256 -11.023  0.00  0.00    +0.021 C 
ENDBRANCH  18  21
ENDBRANCH   1  18
TORSDOF 3
ENDMDL
MODEL 2
REMARK VINA RESULT:     -12.2      0.667      1.300
REMARK  Name = 12087505
REMARK  3 active torsions:
REMARK  status: ('A' for Active; 'I' for Inactive)
REMARK    1  A    between atoms: C_1  and  S_18
REMARK    2  A    between atoms: C_4  and  N_9
REMARK    3  A    between atoms: S_18  and  N_21
REMARK                            x       y       z     vdW  Elec       q    Type
REMARK                         _______ _______ _______ _____ _____    ______ ____
ROOT
ATOM      1  C   UNL     1      35.093 -21.481 -19.252  0.00  0.00    +0.123 C 
ATOM      2  C   UNL     1      34.666 -20.553 -20.187  0.00  0.00    +0.035 C 
ATOM      3  C   UNL     1      36.403 -21.506 -18.807  0.00  0.00    +0.020 C 
ATOM      4  C   UNL     1      35.576 -19.623 -20.691  0.00  0.00    +0.053 C 
ATOM      5  C   UNL     1      37.314 -20.575 -19.309  0.00  0.00    +0.003 C 
ATOM      6  C   UNL     1      36.899 -19.634 -20.251  0.00  0.00    +0.015 C 
ENDROOT
BRANCH   4   9
ATOM      7  S   UNL     1      33.801 -14.994 -24.507  0.00  0.00    -0.051 S 
ATOM      8  O   UNL     1      35.309 -16.660 -20.460  0.00  0.00    -0.252 OA
ATOM      9  N   UNL     1      35.161 -18.680 -21.632  0.00  0.00    -0.268 N 
ATOM     10  N   UNL     1      34.590 -16.710 -22.690  0.00  0.00    -0.248 N 
ATOM     11  N   UNL     1      34.512 -14.377 -22.099  0.00  0.00    -0.222 NA
ATOM     12  C   UNL     1      35.046 -17.275 -21.489  0.00  0.00    +0.310 C 
ATOM     13  C   UNL     1      34.353 -15.356 -22.935  0.00  0.00    +0.167 C 
ATOM     14  C   UNL     1      33.757 -13.339 -24.056  0.00  0.00    +0.059 C 
ATOM     15  C   UNL     1      34.167 -13.206 -22.746  0.00  0.00    +0.108 C 
ATOM     16  H   UNL     1      34.914 -19.040 -22.515  0.00  0.00    +0.156 HD
ATOM     17  H   UNL     1      34.419 -17.332 -23.434  0.00  0.00    +0.158 HD
ENDBRANCH   4   9
BRANCH   1  18
ATOM     18  S   UNL     1      33.942 -22.660 -18.617  0.00  0.00    +0.063 S 
ATOM     19  O   UNL     1      32.710 -21.961 -18.319  0.00  0.00    -0.153 OA
ATOM     20  O   UNL     1      33.954 -23.811 -19.494  0.00  0.00    -0.153 OA
BRANCH  18  21
ATOM     21  N   UNL     1      34.719 -23.072 -17.147  0.00  0.00    -0.152 NA
ATOM     22  N   UNL     1      35.596 -23.375 -14.467  0.00  0.00    -0.290 N 
ATOM     23  C   UNL     1      35.439 -21.956 -16.471  0.00  0.00    +0.117 C 
ATOM     24  C   UNL     1      33.890 -23.839 -16.177  0.00  0.00    +0.117 C 
ATOM     25  C   UNL     1      36.357 -22.523 -15.392  0.00  0.00    +0.111 C 
ATOM     26  C   UNL     1      34.785 -24.428 -15.090  0.00  0.00    +0.111 C 
ATOM     27  N   UNL     1      37.470 -23.542 -12.984  0.00  0.00    -0.229 NA
ATOM     28  C   UNL     1      36.117 -23.570 -13.183  0.00  0.00    +0.132 C 
ATOM     29  C   UNL     1      35.224 -23.792 -12.127  0.00  0.00    +0.034 C 
ATOM     30  C   UNL     1      35.726 -23.989 -10.845  0.00  0.00    +0.004 C 
ATOM     31  C   UNL     1      37.921 -23.736 -11.724  0.00  0.00    +0.100 C 
ATOM     32  C   UNL     1      37.099 -23.961 -10.631  0.00  0.00    +0.021 C 
ENDBRANCH  18  21
ENDBRANCH   1  18
TORSDOF 3
ENDMDL
MODEL 3
REMARK VINA RESULT:     -12.2      2.277     10.916
REMARK  Name = 12087505
REMARK  3 active torsions:
REMARK  status: ('A' for Active; 'I' for Inactive)
REMARK    1  A    between atoms: C_1  and  S_18
REMARK    2  A    between atoms: C_4  and  N_9
REMARK    3  A    between atoms: S_18  and  N_21
REMARK                            x       y       z     vdW  Elec       q    Type
REMARK                         _______ _______ _______ _____ _____    ______ ____
ROOT
ATOM      1  C   UNL     1      34.943 -19.696 -21.240  0.00  0.00    +0.123 C 
ATOM      2  C   UNL     1      35.655 -20.239 -20.184  0.00  0.00    +0.035 C 
ATOM      3  C   UNL     1      33.564 -19.800 -21.309  0.00  0.00    +0.020 C 
ATOM      4  C   UNL     1      34.969 -20.903 -19.167  0.00  0.00    +0.053 C 
ATOM      5  C   UNL     1      32.876 -20.463 -20.292  0.00  0.00    +0.003 C 
ATOM      6  C   UNL     1      33.580 -21.014 -19.221  0.00  0.00    +0.015 C 
ENDROOT
BRANCH   4   9
ATOM      7  S   UNL     1      37.681 -23.742 -14.297  0.00  0.00    -0.051 S 
ATOM      8  O   UNL     1      34.258 -23.167 -17.358  0.00  0.00    -0.252 OA
ATOM      9  N   UNL     1      35.672 -21.454 -18.095  0.00  0.00    -0.268 N 
ATOM     10  N   UNL     1      36.308 -22.756 -16.299  0.00  0.00    -0.248 N 
ATOM     11  N   UNL     1      35.373 -24.608 -15.075  0.00  0.00    -0.222 NA
ATOM     12  C   UNL     1      35.303 -22.533 -17.254  0.00  0.00    +0.310 C 
ATOM     13  C   UNL     1      36.304 -23.732 -15.300  0.00  0.00    +0.167 C 
ATOM     14  C   UNL     1      36.990 -25.060 -13.444  0.00  0.00    +0.059 C 
ATOM     15  C   UNL     1      35.767 -25.379 -13.999  0.00  0.00    +0.108 C 
ATOM     16  H   UNL     1      36.541 -21.035 -17.895  0.00  0.00    +0.156 HD
ATOM     17  H   UNL     1      37.094 -22.165 -16.338  0.00  0.00    +0.158 HD
ENDBRANCH   4   9
BRANCH   1  18
ATOM     18  S   UNL     1      35.812 -18.858 -22.529  0.00  0.00    +0.063 S 
ATOM     19  O   UNL     1      37.163 -18.620 -22.070  0.00  0.00    -0.153 OA
ATOM     20  O   UNL     1      35.556 -19.561 -23.768  0.00  0.00    -0.153 OA
BRANCH  18  21
ATOM     21  N   UNL     1      34.958 -17.373 -22.545  0.00  0.00    -0.152 NA
ATOM     22  N   UNL     1      34.099 -14.673 -22.662  0.00  0.00    -0.290 N 
ATOM     23  C   UNL     1      35.268 -16.445 -21.421  0.00  0.00    +0.117 C 
ATOM     24  C   UNL     1      34.954 -16.651 -23.848  0.00  0.00    +0.117 C 
ATOM     25  C   UNL     1      34.211 -15.347 -21.361  0.00  0.00    +0.111 C 
ATOM     26  C   UNL     1      33.895 -15.551 -23.821  0.00  0.00    +0.111 C 
ATOM     27  N   UNL     1      32.672 -12.987 -21.733  0.00  0.00    -0.229 NA
ATOM     28  C   UNL     1      33.581 -13.373 -22.680  0.00  0.00    +0.132 C 
ATOM     29  C   UNL     1      34.016 -12.495 -23.681  0.00  0.00    +0.034 C 
ATOM     30  C   UNL     1      33.510 -11.200 -23.712  0.00  0.00    +0.004 C 
ATOM     31  C   UNL     1      32.203 -11.720 -21.794  0.00  0.00    +0.100 C 
ATOM     32  C   UNL     1      32.587 -10.797 -22.754  0.00  0.00    +0.021 C 
ENDBRANCH  18  21
ENDBRANCH   1  18
TORSDOF 3
ENDMDL
MODEL 4
REMARK VINA RESULT:     -11.4      8.945     13.520
REMARK  Name = 12087505
REMARK  3 active torsions:
REMARK  status: ('A' for Active; 'I' for Inactive)
REMARK    1  A    between atoms: C_1  and  S_18
REMARK    2  A    between atoms: C_4  and  N_9
REMARK    3  A    between atoms: S_18  and  N_21
REMARK                            x       y       z     vdW  Elec       q    Type
REMARK                         _______ _______ _______ _____ _____    ______ ____
ROOT
ATOM      1  C   UNL     1      33.050  -8.027 -22.952  0.00  0.00    +0.123 C 
ATOM      2  C   UNL     1      32.697  -7.410 -24.140  0.00  0.00    +0.035 C 
ATOM      3  C   UNL     1      34.293  -7.822 -22.375  0.00  0.00    +0.020 C 
ATOM      4  C   UNL     1      33.611  -6.566 -24.770  0.00  0.00    +0.053 C 
ATOM      5  C   UNL     1      35.207  -6.977 -23.004  0.00  0.00    +0.003 C 
ATOM      6  C   UNL     1      34.865  -6.349 -24.201  0.00  0.00    +0.015 C 
ENDROOT
BRANCH   4   9
ATOM      7  S   UNL     1      31.754  -3.385 -29.827  0.00  0.00    -0.051 S 
ATOM      8  O   UNL     1      31.833  -4.224 -25.275  0.00  0.00    -0.252 OA
ATOM      9  N   UNL     1      33.269  -5.937 -25.968  0.00  0.00    -0.268 N 
ATOM     10  N   UNL     1      32.354  -4.518 -27.541  0.00  0.00    -0.248 N 
ATOM     11  N   UNL     1      30.863  -2.627 -27.521  0.00  0.00    -0.222 NA
ATOM     12  C   UNL     1      32.418  -4.822 -26.172  0.00  0.00    +0.310 C 
ATOM     13  C   UNL     1      31.618  -3.488 -28.131  0.00  0.00    +0.167 C 
ATOM     14  C   UNL     1      30.690  -2.040 -29.780  0.00  0.00    +0.059 C 
ATOM     15  C   UNL     1      30.323  -1.786 -28.474  0.00  0.00    +0.108 C 
ATOM     16  H   UNL     1      33.673  -6.320 -26.781  0.00  0.00    +0.156 HD
ATOM     17  H   UNL     1      32.881  -5.090 -28.146  0.00  0.00    +0.158 HD
ENDBRANCH   4   9
BRANCH   1  18
ATOM     18  S   UNL     1      31.894  -9.098 -22.156  0.00  0.00    +0.063 S 
ATOM     19  O   UNL     1      31.870  -8.758 -20.750  0.00  0.00    -0.153 OA
ATOM     20  O   UNL     1      30.680  -9.107 -22.943  0.00  0.00    -0.153 OA
BRANCH  18  21
ATOM     21  N   UNL     1      32.696 -10.599 -22.353  0.00  0.00    -0.152 NA
ATOM     22  N   UNL     1      33.505 -13.249 -22.957  0.00  0.00    -0.290 N 
ATOM     23  C   UNL     1      32.099 -11.745 -21.611  0.00  0.00    +0.117 C 
ATOM     24  C   UNL     1      33.009 -10.978 -23.760  0.00  0.00    +0.117 C 
ATOM     25  C   UNL     1      33.087 -12.908 -21.591  0.00  0.00    +0.111 C 
ATOM     26  C   UNL     1      34.006 -12.134 -23.769  0.00  0.00    +0.111 C 
ATOM     27  N   UNL     1      34.624 -15.223 -22.186  0.00  0.00    -0.229 NA
ATOM     28  C   UNL     1      33.986 -14.544 -23.188  0.00  0.00    +0.132 C 
ATOM     29  C   UNL     1      33.795 -15.111 -24.454  0.00  0.00    +0.034 C 
ATOM     30  C   UNL     1      34.268 -16.396 -24.698  0.00  0.00    +0.004 C 
ATOM     31  C   UNL     1      35.069 -16.470 -22.461  0.00  0.00    +0.100 C 
ATOM     32  C   UNL     1      34.917 -17.095 -23.688  0.00  0.00    +0.021 C 
ENDBRANCH  18  21
ENDBRANCH   1  18
TORSDOF 3
ENDMDL
MODEL 5
REMARK VINA RESULT:     -11.1      2.946     10.628
REMARK  Name = 12087505
REMARK  3 active torsions:
REMARK  status: ('A' for Active; 'I' for Inactive)
REMARK    1  A    between atoms: C_1  and  S_18
REMARK    2  A    between atoms: C_4  and  N_9
REMARK    3  A    between atoms: S_18  and  N_21
REMARK                            x       y       z     vdW  Elec       q    Type
REMARK                         _______ _______ _______ _____ _____    ______ ____
ROOT
ATOM      1  C   UNL     1      35.068 -19.626 -20.994  0.00  0.00    +0.123 C 
ATOM      2  C   UNL     1      35.225 -20.380 -19.844  0.00  0.00    +0.035 C 
ATOM      3  C   UNL     1      33.847 -19.545 -21.643  0.00  0.00    +0.020 C 
ATOM      4  C   UNL     1      34.130 -21.073 -19.327  0.00  0.00    +0.053 C 
ATOM      5  C   UNL     1      32.751 -20.236 -21.126  0.00  0.00    +0.003 C 
ATOM      6  C   UNL     1      32.893 -21.000 -19.967  0.00  0.00    +0.015 C 
ENDROOT
BRANCH   4   9
ATOM      7  S   UNL     1      34.186 -24.516 -14.104  0.00  0.00    -0.051 S 
ATOM      8  O   UNL     1      32.057 -22.263 -17.542  0.00  0.00    -0.252 OA
ATOM      9  N   UNL     1      34.271 -21.836 -18.167  0.00  0.00    -0.268 N 
ATOM     10  N   UNL     1      33.848 -23.087 -16.275  0.00  0.00    -0.248 N 
ATOM     11  N   UNL     1      31.892 -23.869 -15.107  0.00  0.00    -0.222 NA
ATOM     12  C   UNL     1      33.261 -22.388 -17.341  0.00  0.00    +0.310 C 
ATOM     13  C   UNL     1      33.178 -23.763 -15.254  0.00  0.00    +0.167 C 
ATOM     14  C   UNL     1      32.775 -25.059 -13.294  0.00  0.00    +0.059 C 
ATOM     15  C   UNL     1      31.655 -24.620 -13.971  0.00  0.00    +0.108 C 
ATOM     16  H   UNL     1      35.198 -22.015 -17.885  0.00  0.00    +0.156 HD
ATOM     17  H   UNL     1      34.832 -23.100 -16.244  0.00  0.00    +0.158 HD
ENDBRANCH   4   9
BRANCH   1  18
ATOM     18  S   UNL     1      36.455 -18.752 -21.651  0.00  0.00    +0.063 S 
ATOM     19  O   UNL     1      37.502 -18.768 -20.652  0.00  0.00    -0.153 OA
ATOM     20  O   UNL     1      36.695 -19.239 -22.992  0.00  0.00    -0.153 OA
BRANCH  18  21
ATOM     21  N   UNL     1      35.795 -17.174 -21.742  0.00  0.00    -0.152 NA
ATOM     22  N   UNL     1      34.167 -14.857 -21.898  0.00  0.00    -0.290 N 
ATOM     23  C   UNL     1      35.079 -16.852 -23.009  0.00  0.00    +0.117 C 
ATOM     24  C   UNL     1      35.002 -16.741 -20.557  0.00  0.00    +0.117 C 
ATOM     25  C   UNL     1      34.856 -15.345 -23.099  0.00  0.00    +0.111 C 
ATOM     26  C   UNL     1      34.774 -15.233 -20.615  0.00  0.00    +0.111 C 
ATOM     27  N   UNL     1      33.855 -12.694 -22.883  0.00  0.00    -0.229 NA
ATOM     28  C   UNL     1      33.451 -13.658 -21.999  0.00  0.00    +0.132 C 
ATOM     29  C   UNL     1      32.328 -13.479 -21.181  0.00  0.00    +0.034 C 
ATOM     30  C   UNL     1      31.608 -12.293 -21.270  0.00  0.00    +0.004 C 
ATOM     31  C   UNL     1      33.129 -11.556 -22.942  0.00  0.00    +0.100 C 
ATOM     32  C   UNL     1      32.008 -11.308 -22.165  0.00  0.00    +0.021 C 
ENDBRANCH  18  21
ENDBRANCH   1  18
TORSDOF 3
ENDMDL
MODEL 6
REMARK VINA RESULT:     -10.9      3.833      7.006
REMARK  Name = 12087505
REMARK  3 active torsions:
REMARK  status: ('A' for Active; 'I' for Inactive)
REMARK    1  A    between atoms: C_1  and  S_18
REMARK    2  A    between atoms: C_4  and  N_9
REMARK    3  A    between atoms: S_18  and  N_21
REMARK                            x       y       z     vdW  Elec       q    Type
REMARK                         _______ _______ _______ _____ _____    ______ ____
ROOT
ATOM      1  C   UNL     1      37.004 -24.128 -13.385  0.00  0.00    +0.123 C 
ATOM      2  C   UNL     1      36.847 -23.243 -14.439  0.00  0.00    +0.035 C 
ATOM      3  C   UNL     1      38.110 -24.956 -13.298  0.00  0.00    +0.020 C 
ATOM      4  C   UNL     1      37.824 -23.185 -15.434  0.00  0.00    +0.053 C 
ATOM      5  C   UNL     1      39.088 -24.899 -14.291  0.00  0.00    +0.003 C 
ATOM      6  C   UNL     1      38.945 -24.012 -15.359  0.00  0.00    +0.015 C 
ENDROOT
BRANCH   4   9
ATOM      7  S   UNL     1      36.647 -19.414 -20.284  0.00  0.00    -0.051 S 
ATOM      8  O   UNL     1      35.494 -22.697 -17.231  0.00  0.00    -0.252 OA
ATOM      9  N   UNL     1      37.682 -22.299 -16.501  0.00  0.00    -0.268 N 
ATOM     10  N   UNL     1      36.847 -21.102 -18.289  0.00  0.00    -0.248 N 
ATOM     11  N   UNL     1      34.770 -21.012 -19.505  0.00  0.00    -0.222 NA
ATOM     12  C   UNL     1      36.556 -22.091 -17.337  0.00  0.00    +0.310 C 
ATOM     13  C   UNL     1      35.989 -20.626 -19.283  0.00  0.00    +0.167 C 
ATOM     14  C   UNL     1      35.156 -19.372 -21.131  0.00  0.00    +0.059 C 
ATOM     15  C   UNL     1      34.284 -20.287 -20.576  0.00  0.00    +0.108 C 
ATOM     16  H   UNL     1      38.470 -21.743 -16.702  0.00  0.00    +0.156 HD
ATOM     17  H   UNL     1      37.747 -20.703 -18.252  0.00  0.00    +0.158 HD
ENDBRANCH   4   9
BRANCH   1  18
ATOM     18  S   UNL     1      35.766 -24.203 -12.128  0.00  0.00    +0.063 S 
ATOM     19  O   UNL     1      35.930 -25.454 -11.420  0.00  0.00    -0.153 OA
ATOM     20  O   UNL     1      35.770 -22.939 -11.423  0.00  0.00    -0.153 OA
BRANCH  18  21
ATOM     21  N   UNL     1      34.360 -24.293 -13.102  0.00  0.00    -0.152 NA
ATOM     22  N   UNL     1      31.838 -23.981 -14.363  0.00  0.00    -0.290 N 
ATOM     23  C   UNL     1      33.118 -24.716 -12.395  0.00  0.00    +0.117 C 
ATOM     24  C   UNL     1      34.104 -23.108 -13.968  0.00  0.00    +0.117 C 
ATOM     25  C   UNL     1      32.051 -25.088 -13.420  0.00  0.00    +0.111 C 
ATOM     26  C   UNL     1      33.046 -23.455 -15.012  0.00  0.00    +0.111 C 
ATOM     27  N   UNL     1      29.927 -25.074 -15.309  0.00  0.00    -0.229 NA
ATOM     28  C   UNL     1      30.611 -23.921 -15.032  0.00  0.00    +0.132 C 
ATOM     29  C   UNL     1      30.113 -22.666 -15.403  0.00  0.00    +0.034 C 
ATOM     30  C   UNL     1      28.894 -22.591 -16.069  0.00  0.00    +0.004 C 
ATOM     31  C   UNL     1      28.746 -24.961 -15.956  0.00  0.00    +0.100 C 
ATOM     32  C   UNL     1      28.191 -23.755 -16.354  0.00  0.00    +0.021 C 
ENDBRANCH  18  21
ENDBRANCH   1  18
TORSDOF 3
ENDMDL
MODEL 7
REMARK VINA RESULT:     -10.7      8.707     15.497
REMARK  Name = 12087505
REMARK  3 active torsions:
REMARK  status: ('A' for Active; 'I' for Inactive)
REMARK    1  A    between atoms: C_1  and  S_18
REMARK    2  A    between atoms: C_4  and  N_9
REMARK    3  A    between atoms: S_18  and  N_21
REMARK                            x       y       z     vdW  Elec       q    Type
REMARK                         _______ _______ _______ _____ _____    ______ ____
ROOT
ATOM      1  C   UNL     1      31.867  -8.273 -20.406  0.00  0.00    +0.123 C 
ATOM      2  C   UNL     1      32.143  -9.196 -21.401  0.00  0.00    +0.035 C 
ATOM      3  C   UNL     1      31.378  -8.666 -19.172  0.00  0.00    +0.020 C 
ATOM      4  C   UNL     1      31.924 -10.552 -21.153  0.00  0.00    +0.053 C 
ATOM      5  C   UNL     1      31.159 -10.021 -18.923  0.00  0.00    +0.003 C 
ATOM      6  C   UNL     1      31.433 -10.964 -19.915  0.00  0.00    +0.015 C 
ENDROOT
BRANCH   4   9
ATOM      7  S   UNL     1      33.462 -15.067 -25.200  0.00  0.00    -0.051 S 
ATOM      8  O   UNL     1      33.540 -13.057 -21.032  0.00  0.00    -0.252 OA
ATOM      9  N   UNL     1      32.197 -11.495 -22.144  0.00  0.00    -0.268 N 
ATOM     10  N   UNL     1      32.986 -13.335 -23.292  0.00  0.00    -0.248 N 
ATOM     11  N   UNL     1      34.356 -15.249 -22.782  0.00  0.00    -0.222 NA
ATOM     12  C   UNL     1      32.972 -12.678 -22.052  0.00  0.00    +0.310 C 
ATOM     13  C   UNL     1      33.642 -14.530 -23.593  0.00  0.00    +0.167 C 
ATOM     14  C   UNL     1      34.440 -16.420 -24.807  0.00  0.00    +0.059 C 
ATOM     15  C   UNL     1      34.820 -16.345 -23.482  0.00  0.00    +0.108 C 
ATOM     16  H   UNL     1      31.800 -11.313 -23.027  0.00  0.00    +0.156 HD
ATOM     17  H   UNL     1      32.482 -12.909 -24.024  0.00  0.00    +0.158 HD
ENDBRANCH   4   9
BRANCH   1  18
ATOM     18  S   UNL     1      32.141  -6.557 -20.720  0.00  0.00    +0.063 S 
ATOM     19  O   UNL     1      30.861  -5.884 -20.658  0.00  0.00    -0.153 OA
ATOM     20  O   UNL     1      33.252  -6.126 -19.899  0.00  0.00    -0.153 OA
BRANCH  18  21
ATOM     21  N   UNL     1      32.653  -6.632 -22.353  0.00  0.00    -0.152 NA
ATOM     22  N   UNL     1      33.750  -6.213 -24.934  0.00  0.00    -0.290 N 
ATOM     23  C   UNL     1      32.052  -5.613 -23.259  0.00  0.00    +0.117 C 
ATOM     24  C   UNL     1      34.125  -6.728 -22.559  0.00  0.00    +0.117 C 
ATOM     25  C   UNL     1      32.313  -6.005 -24.710  0.00  0.00    +0.111 C 
ATOM     26  C   UNL     1      34.416  -7.131 -24.002  0.00  0.00    +0.111 C 
ATOM     27  N   UNL     1      33.417  -6.387 -27.301  0.00  0.00    -0.229 NA
ATOM     28  C   UNL     1      34.231  -6.086 -26.243  0.00  0.00    +0.132 C 
ATOM     29  C   UNL     1      35.549  -5.650 -26.431  0.00  0.00    +0.034 C 
ATOM     30  C   UNL     1      36.040  -5.520 -27.725  0.00  0.00    +0.004 C 
ATOM     31  C   UNL     1      33.930  -6.248 -28.544  0.00  0.00    +0.100 C 
ATOM     32  C   UNL     1      35.222  -5.822 -28.808  0.00  0.00    +0.021 C 
ENDBRANCH  18  21
ENDBRANCH   1  18
TORSDOF 3
ENDMDL
MODEL 8
REMARK VINA RESULT:     -10.6      4.789      8.287
REMARK  Name = 12087505
REMARK  3 active torsions:
REMARK  status: ('A' for Active; 'I' for Inactive)
REMARK    1  A    between atoms: C_1  and  S_18
REMARK    2  A    between atoms: C_4  and  N_9
REMARK    3  A    between atoms: S_18  and  N_21
REMARK                            x       y       z     vdW  Elec       q    Type
REMARK                         _______ _______ _______ _____ _____    ______ ____
ROOT
ATOM      1  C   UNL     1      33.705 -14.298 -23.537  0.00  0.00    +0.123 C 
ATOM      2  C   UNL     1      33.731 -13.036 -24.108  0.00  0.00    +0.035 C 
ATOM      3  C   UNL     1      33.221 -14.500 -22.256  0.00  0.00    +0.020 C 
ATOM      4  C   UNL     1      33.258 -11.946 -23.376  0.00  0.00    +0.053 C 
ATOM      5  C   UNL     1      32.747 -13.411 -21.524  0.00  0.00    +0.003 C 
ATOM      6  C   UNL     1      32.766 -12.134 -22.085  0.00  0.00    +0.015 C 
ENDROOT
BRANCH   4   9
ATOM      7  S   UNL     1      32.870  -6.102 -25.574  0.00  0.00    -0.051 S 
ATOM      8  O   UNL     1      31.436  -9.625 -22.936  0.00  0.00    -0.252 OA
ATOM      9  N   UNL     1      33.276 -10.669 -23.937  0.00  0.00    -0.268 N 
ATOM     10  N   UNL     1      32.778  -8.482 -24.482  0.00  0.00    -0.248 N 
ATOM     11  N   UNL     1      31.101  -6.871 -23.853  0.00  0.00    -0.222 NA
ATOM     12  C   UNL     1      32.392  -9.586 -23.705  0.00  0.00    +0.310 C 
ATOM     13  C   UNL     1      32.151  -7.235 -24.523  0.00  0.00    +0.167 C 
ATOM     14  C   UNL     1      31.663  -4.977 -25.106  0.00  0.00    +0.059 C 
ATOM     15  C   UNL     1      30.815  -5.562 -24.188  0.00  0.00    +0.108 C 
ATOM     16  H   UNL     1      34.001 -10.497 -24.582  0.00  0.00    +0.156 HD
ATOM     17  H   UNL     1      33.569  -8.600 -25.055  0.00  0.00    +0.158 HD
ENDBRANCH   4   9
BRANCH   1  18
ATOM     18  S   UNL     1      34.306 -15.677 -24.462  0.00  0.00    +0.063 S 
ATOM     19  O   UNL     1      33.274 -16.066 -25.398  0.00  0.00    -0.153 OA
ATOM     20  O   UNL     1      35.644 -15.362 -24.914  0.00  0.00    -0.153 OA
BRANCH  18  21
ATOM     21  N   UNL     1      34.401 -16.850 -23.217  0.00  0.00    -0.152 NA
ATOM     22  N   UNL     1      35.105 -18.911 -21.401  0.00  0.00    -0.290 N 
ATOM     23  C   UNL     1      34.425 -18.268 -23.675  0.00  0.00    +0.117 C 
ATOM     24  C   UNL     1      35.445 -16.605 -22.184  0.00  0.00    +0.117 C 
ATOM     25  C   UNL     1      34.159 -19.190 -22.489  0.00  0.00    +0.111 C 
ATOM     26  C   UNL     1      35.197 -17.508 -20.979  0.00  0.00    +0.111 C 
ATOM     27  N   UNL     1      34.372 -20.843 -20.188  0.00  0.00    -0.229 NA
ATOM     28  C   UNL     1      35.350 -19.930 -20.473  0.00  0.00    +0.132 C 
ATOM     29  C   UNL     1      36.607 -19.984 -19.857  0.00  0.00    +0.034 C 
ATOM     30  C   UNL     1      36.865 -20.990 -18.933  0.00  0.00    +0.004 C 
ATOM     31  C   UNL     1      34.661 -21.808 -19.285  0.00  0.00    +0.100 C 
ATOM     32  C   UNL     1      35.880 -21.924 -18.636  0.00  0.00    +0.021 C 
ENDBRANCH  18  21
ENDBRANCH   1  18
TORSDOF 3
ENDMDL
MODEL 9
REMARK VINA RESULT:     -10.6      8.011     12.050
REMARK  Name = 12087505
REMARK  3 active torsions:
REMARK  status: ('A' for Active; 'I' for Inactive)
REMARK    1  A    between atoms: C_1  and  S_18
REMARK    2  A    between atoms: C_4  and  N_9
REMARK    3  A    between atoms: S_18  and  N_21
REMARK                            x       y       z     vdW  Elec       q    Type
REMARK                         _______ _______ _______ _____ _____    ______ ____
ROOT
ATOM      1  C   UNL     1      32.116  -9.093 -21.264  0.00  0.00    +0.123 C 
ATOM      2  C   UNL     1      32.490  -8.694 -22.536  0.00  0.00    +0.035 C 
ATOM      3  C   UNL     1      32.582  -8.438 -20.136  0.00  0.00    +0.020 C 
ATOM      4  C   UNL     1      33.354  -7.608 -22.685  0.00  0.00    +0.053 C 
ATOM      5  C   UNL     1      33.445  -7.352 -20.284  0.00  0.00    +0.003 C 
ATOM      6  C   UNL     1      33.830  -6.937 -21.559  0.00  0.00    +0.015 C 
ENDROOT
BRANCH   4   9
ATOM      7  S   UNL     1      34.619  -5.397 -28.398  0.00  0.00    -0.051 S 
ATOM      8  O   UNL     1      32.097  -5.624 -24.524  0.00  0.00    -0.252 OA
ATOM      9  N   UNL     1      33.739  -7.193 -23.960  0.00  0.00    -0.268 N 
ATOM     10  N   UNL     1      33.840  -6.132 -26.006  0.00  0.00    -0.248 N 
ATOM     11  N   UNL     1      32.533  -4.482 -27.177  0.00  0.00    -0.222 NA
ATOM     12  C   UNL     1      33.116  -6.245 -24.809  0.00  0.00    +0.310 C 
ATOM     13  C   UNL     1      33.536  -5.300 -27.086  0.00  0.00    +0.167 C 
ATOM     14  C   UNL     1      33.669  -4.221 -29.207  0.00  0.00    +0.059 C 
ATOM     15  C   UNL     1      32.607  -3.854 -28.406  0.00  0.00    +0.108 C 
ATOM     16  H   UNL     1      34.553  -7.617 -24.319  0.00  0.00    +0.156 HD
ATOM     17  H   UNL     1      34.641  -6.696 -26.094  0.00  0.00    +0.158 HD
ENDBRANCH   4   9
BRANCH   1  18
ATOM     18  S   UNL     1      31.025 -10.469 -21.075  0.00  0.00    +0.063 S 
ATOM     19  O   UNL     1      30.549 -10.472 -19.709  0.00  0.00    -0.153 OA
ATOM     20  O   UNL     1      30.101 -10.461 -22.189  0.00  0.00    -0.153 OA
BRANCH  18  21
ATOM     21  N   UNL     1      32.135 -11.758 -21.282  0.00  0.00    -0.152 NA
ATOM     22  N   UNL     1      33.518 -14.143 -21.947  0.00  0.00    -0.290 N 
ATOM     23  C   UNL     1      31.745 -13.046 -20.642  0.00  0.00    +0.117 C 
ATOM     24  C   UNL     1      32.609 -11.977 -22.677  0.00  0.00    +0.117 C 
ATOM     25  C   UNL     1      32.951 -13.980 -20.602  0.00  0.00    +0.111 C 
ATOM     26  C   UNL     1      33.825 -12.900 -22.666  0.00  0.00    +0.111 C 
ATOM     27  N   UNL     1      34.974 -15.888 -21.188  0.00  0.00    -0.229 NA
ATOM     28  C   UNL     1      34.272 -15.294 -22.202  0.00  0.00    +0.132 C 
ATOM     29  C   UNL     1      34.286 -15.809 -23.504  0.00  0.00    +0.034 C 
ATOM     30  C   UNL     1      35.032 -16.952 -23.772  0.00  0.00    +0.004 C 
ATOM     31  C   UNL     1      35.686 -16.998 -21.486  0.00  0.00    +0.100 C 
ATOM     32  C   UNL     1      35.747 -17.564 -22.750  0.00  0.00    +0.021 C 
ENDBRANCH  18  21
ENDBRANCH   1  18
TORSDOF 3
ENDMDL
