MODEL 1
REMARK VINA RESULT:     -12.0      0.000      0.000
REMARK  Name = 447767
REMARK  2 active torsions:
REMARK  status: ('A' for Active; 'I' for Inactive)
REMARK    1  A    between atoms: N_2  and  C_10
REMARK    2  A    between atoms: C_8  and  C_24
REMARK                            x       y       z     vdW  Elec       q    Type
REMARK                         _______ _______ _______ _____ _____    ______ ____
ROOT
ATOM      1  O   UNL     1      30.939 -12.103 -21.081  0.00  0.00    -0.270 OA
ATOM      2  N   UNL     1      32.719  -7.939 -23.165  0.00  0.00    +0.396 N 
ATOM      3  N   UNL     1      32.018 -10.650 -22.561  0.00  0.00    -0.280 N 
ATOM      4  C   UNL     1      33.733  -9.003 -23.237  0.00  0.00    -0.054 C 
ATOM      5  C   UNL     1      31.735  -8.239 -22.116  0.00  0.00    -0.054 C 
ATOM      6  C   UNL     1      33.088 -10.361 -23.523  0.00  0.00    +0.071 C 
ATOM      7  C   UNL     1      31.045  -9.574 -22.390  0.00  0.00    +0.071 C 
ATOM      8  C   UNL     1      31.837 -11.860 -21.887  0.00  0.00    +0.249 C 
ATOM      9  H   UNL     1      32.233  -7.897 -24.061  0.00  0.00    -0.079 HD
ENDROOT
BRANCH   2  10
ATOM     10  C   UNL     1      33.351  -6.643 -22.922  0.00  0.00    -0.011 C 
ATOM     11  C   UNL     1      32.340  -5.576 -22.524  0.00  0.00    -0.038 C 
ATOM     12  C   UNL     1      33.938  -6.042 -24.192  0.00  0.00    -0.038 C 
ATOM     13  C   UNL     1      32.356  -4.509 -23.450  0.00  0.00    -0.006 C 
ATOM     14  C   UNL     1      33.338  -4.795 -24.474  0.00  0.00    -0.006 C 
ATOM     15  C   UNL     1      31.500  -5.558 -21.422  0.00  0.00    -0.006 C 
ATOM     16  C   UNL     1      34.934  -6.560 -25.004  0.00  0.00    -0.006 C 
ATOM     17  C   UNL     1      31.519  -3.418 -23.284  0.00  0.00    -0.000 C 
ATOM     18  C   UNL     1      33.723  -4.061 -25.584  0.00  0.00    -0.000 C 
ATOM     19  C   UNL     1      30.657  -4.459 -21.254  0.00  0.00    -0.000 C 
ATOM     20  C   UNL     1      35.323  -5.821 -26.123  0.00  0.00    -0.000 C 
ATOM     21  C   UNL     1      30.665  -3.399 -22.177  0.00  0.00    -0.000 C 
ATOM     22  C   UNL     1      34.722  -4.584 -26.410  0.00  0.00    -0.000 C 
ENDBRANCH   2  10
BRANCH   8  24
ATOM     23  N   UNL     1      35.332 -16.032 -23.134  0.00  0.00    -0.312 N 
ATOM     24  C   UNL     1      32.783 -12.952 -22.154  0.00  0.00    +0.054 C 
ATOM     25  C   UNL     1      32.739 -13.611 -23.385  0.00  0.00    +0.006 C 
ATOM     26  C   UNL     1      33.708 -13.311 -21.180  0.00  0.00    +0.006 C 
ATOM     27  C   UNL     1      33.650 -14.655 -23.635  0.00  0.00    +0.015 C 
ATOM     28  C   UNL     1      34.570 -14.997 -22.642  0.00  0.00    +0.048 C 
ATOM     29  C   UNL     1      34.622 -14.344 -21.405  0.00  0.00    +0.015 C 
ATOM     30  C   UNL     1      33.888 -15.520 -24.740  0.00  0.00    +0.017 C 
ATOM     31  C   UNL     1      34.927 -16.355 -24.401  0.00  0.00    +0.062 C 
ATOM     32  H   UNL     1      36.062 -16.476 -22.645  0.00  0.00    +0.152 HD
ENDBRANCH   8  24
TORSDOF 2
ENDMDL
MODEL 2
REMARK VINA RESULT:     -11.3      0.700      1.394
REMARK  Name = 447767
REMARK  2 active torsions:
REMARK  status: ('A' for Active; 'I' for Inactive)
REMARK    1  A    between atoms: N_2  and  C_10
REMARK    2  A    between atoms: C_8  and  C_24
REMARK                            x       y       z     vdW  Elec       q    Type
REMARK                         _______ _______ _______ _____ _____    ______ ____
ROOT
ATOM      1  O   UNL     1      30.671 -11.744 -21.110  0.00  0.00    -0.270 OA
ATOM      2  N   UNL     1      32.670  -7.723 -23.274  0.00  0.00    +0.396 N 
ATOM      3  N   UNL     1      31.857 -10.384 -22.597  0.00  0.00    -0.280 N 
ATOM      4  C   UNL     1      33.651  -8.818 -23.261  0.00  0.00    -0.054 C 
ATOM      5  C   UNL     1      31.633  -7.950 -22.258  0.00  0.00    -0.054 C 
ATOM      6  C   UNL     1      32.976 -10.166 -23.522  0.00  0.00    +0.071 C 
ATOM      7  C   UNL     1      30.913  -9.273 -22.510  0.00  0.00    +0.071 C 
ATOM      8  C   UNL     1      31.609 -11.561 -21.885  0.00  0.00    +0.249 C 
ATOM      9  H   UNL     1      32.224  -7.701 -24.191  0.00  0.00    -0.079 HD
ENDROOT
BRANCH   2  10
ATOM     10  C   UNL     1      33.332  -6.437 -23.054  0.00  0.00    -0.011 C 
ATOM     11  C   UNL     1      32.344  -5.336 -22.693  0.00  0.00    -0.038 C 
ATOM     12  C   UNL     1      33.950  -5.882 -24.330  0.00  0.00    -0.038 C 
ATOM     13  C   UNL     1      32.399  -4.292 -23.645  0.00  0.00    -0.006 C 
ATOM     14  C   UNL     1      33.385  -4.628 -24.649  0.00  0.00    -0.006 C 
ATOM     15  C   UNL     1      31.492  -5.270 -21.603  0.00  0.00    -0.006 C 
ATOM     16  C   UNL     1      34.942  -6.445 -25.117  0.00  0.00    -0.006 C 
ATOM     17  C   UNL     1      31.588  -3.176 -23.515  0.00  0.00    -0.000 C 
ATOM     18  C   UNL     1      33.802  -3.930 -25.771  0.00  0.00    -0.000 C 
ATOM     19  C   UNL     1      30.675  -4.146 -21.472  0.00  0.00    -0.000 C 
ATOM     20  C   UNL     1      35.362  -5.742 -26.248  0.00  0.00    -0.000 C 
ATOM     21  C   UNL     1      30.722  -3.109 -22.419  0.00  0.00    -0.000 C 
ATOM     22  C   UNL     1      34.797  -4.498 -26.572  0.00  0.00    -0.000 C 
ENDBRANCH   2  10
BRANCH   8  24
ATOM     23  N   UNL     1      35.110 -15.887 -22.333  0.00  0.00    -0.312 N 
ATOM     24  C   UNL     1      32.530 -12.690 -22.069  0.00  0.00    +0.054 C 
ATOM     25  C   UNL     1      33.005 -13.377 -20.948  0.00  0.00    +0.006 C 
ATOM     26  C   UNL     1      32.913 -13.060 -23.354  0.00  0.00    +0.006 C 
ATOM     27  C   UNL     1      33.886 -14.460 -21.133  0.00  0.00    +0.015 C 
ATOM     28  C   UNL     1      34.256 -14.813 -22.432  0.00  0.00    +0.048 C 
ATOM     29  C   UNL     1      33.786 -14.132 -23.561  0.00  0.00    +0.015 C 
ATOM     30  C   UNL     1      34.548 -15.360 -20.251  0.00  0.00    +0.017 C 
ATOM     31  C   UNL     1      35.293 -16.225 -21.019  0.00  0.00    +0.062 C 
ATOM     32  H   UNL     1      35.529 -16.346 -23.096  0.00  0.00    +0.152 HD
ENDBRANCH   8  24
TORSDOF 2
ENDMDL
MODEL 3
REMARK VINA RESULT:     -11.2      2.151      8.717
REMARK  Name = 447767
REMARK  2 active torsions:
REMARK  status: ('A' for Active; 'I' for Inactive)
REMARK    1  A    between atoms: N_2  and  C_10
REMARK    2  A    between atoms: C_8  and  C_24
REMARK                            x       y       z     vdW  Elec       q    Type
REMARK                         _______ _______ _______ _____ _____    ______ ____
ROOT
ATOM      1  O   UNL     1      35.645  -7.633 -22.813  0.00  0.00    -0.270 OA
ATOM      2  N   UNL     1      32.710 -11.547 -23.767  0.00  0.00    +0.396 N 
ATOM      3  N   UNL     1      33.816  -8.919 -23.495  0.00  0.00    -0.280 N 
ATOM      4  C   UNL     1      31.915 -10.465 -23.167  0.00  0.00    -0.054 C 
ATOM      5  C   UNL     1      34.136 -11.366 -23.462  0.00  0.00    -0.054 C 
ATOM      6  C   UNL     1      32.371  -9.097 -23.679  0.00  0.00    +0.071 C 
ATOM      7  C   UNL     1      34.634 -10.023 -23.991  0.00  0.00    +0.071 C 
ATOM      8  C   UNL     1      34.434  -7.782 -22.967  0.00  0.00    +0.249 C 
ATOM      9  H   UNL     1      32.590 -11.512 -24.779  0.00  0.00    -0.079 HD
ENDROOT
BRANCH   2  10
ATOM     10  C   UNL     1      32.245 -12.850 -23.294  0.00  0.00    -0.011 C 
ATOM     11  C   UNL     1      32.370 -12.992 -21.783  0.00  0.00    -0.038 C 
ATOM     12  C   UNL     1      33.133 -13.989 -23.778  0.00  0.00    -0.038 C 
ATOM     13  C   UNL     1      33.219 -14.073 -21.456  0.00  0.00    -0.006 C 
ATOM     14  C   UNL     1      33.687 -14.685 -22.681  0.00  0.00    -0.006 C 
ATOM     15  C   UNL     1      31.761 -12.233 -20.797  0.00  0.00    -0.006 C 
ATOM     16  C   UNL     1      33.400 -14.373 -25.082  0.00  0.00    -0.006 C 
ATOM     17  C   UNL     1      33.474 -14.394 -20.133  0.00  0.00    -0.000 C 
ATOM     18  C   UNL     1      34.527 -15.769 -22.884  0.00  0.00    -0.000 C 
ATOM     19  C   UNL     1      32.018 -12.556 -19.464  0.00  0.00    -0.000 C 
ATOM     20  C   UNL     1      34.245 -15.465 -25.286  0.00  0.00    -0.000 C 
ATOM     21  C   UNL     1      32.867 -13.626 -19.134  0.00  0.00    -0.000 C 
ATOM     22  C   UNL     1      34.804 -16.155 -24.198  0.00  0.00    -0.000 C 
ENDBRANCH   2  10
BRANCH   8  24
ATOM     23  N   UNL     1      31.208  -3.414 -21.671  0.00  0.00    -0.312 N 
ATOM     24  C   UNL     1      33.584  -6.655 -22.564  0.00  0.00    +0.054 C 
ATOM     25  C   UNL     1      33.222  -5.695 -23.512  0.00  0.00    +0.006 C 
ATOM     26  C   UNL     1      33.151  -6.560 -21.245  0.00  0.00    +0.006 C 
ATOM     27  C   UNL     1      32.405  -4.618 -23.118  0.00  0.00    +0.015 C 
ATOM     28  C   UNL     1      31.982  -4.545 -21.789  0.00  0.00    +0.048 C 
ATOM     29  C   UNL     1      32.339  -5.500 -20.831  0.00  0.00    +0.015 C 
ATOM     30  C   UNL     1      31.856  -3.491 -23.793  0.00  0.00    +0.017 C 
ATOM     31  C   UNL     1      31.126  -2.770 -22.877  0.00  0.00    +0.062 C 
ATOM     32  H   UNL     1      30.775  -3.111 -20.841  0.00  0.00    +0.152 HD
ENDBRANCH   8  24
TORSDOF 2
ENDMDL
MODEL 4
REMARK VINA RESULT:     -11.0      2.549      4.992
REMARK  Name = 447767
REMARK  2 active torsions:
REMARK  status: ('A' for Active; 'I' for Inactive)
REMARK    1  A    between atoms: N_2  and  C_10
REMARK    2  A    between atoms: C_8  and  C_24
REMARK                            x       y       z     vdW  Elec       q    Type
REMARK                         _______ _______ _______ _____ _____    ______ ____
ROOT
ATOM      1  O   UNL     1      34.134 -15.345 -25.338  0.00  0.00    -0.270 OA
ATOM      2  N   UNL     1      32.858 -11.177 -22.921  0.00  0.00    +0.396 N 
ATOM      3  N   UNL     1      34.063 -13.644 -23.736  0.00  0.00    -0.280 N 
ATOM      4  C   UNL     1      33.019 -12.278 -21.960  0.00  0.00    -0.054 C 
ATOM      5  C   UNL     1      32.634 -11.705 -24.274  0.00  0.00    -0.054 C 
ATOM      6  C   UNL     1      34.191 -13.183 -22.349  0.00  0.00    +0.071 C 
ATOM      7  C   UNL     1      33.804 -12.586 -24.709  0.00  0.00    +0.071 C 
ATOM      8  C   UNL     1      34.240 -14.959 -24.175  0.00  0.00    +0.249 C 
ATOM      9  H   UNL     1      33.717 -10.627 -22.928  0.00  0.00    -0.079 HD
ENDROOT
BRANCH   2  10
ATOM     10  C   UNL     1      31.756 -10.303 -22.521  0.00  0.00    -0.011 C 
ATOM     11  C   UNL     1      31.928  -8.883 -23.044  0.00  0.00    -0.038 C 
ATOM     12  C   UNL     1      31.724 -10.069 -21.017  0.00  0.00    -0.038 C 
ATOM     13  C   UNL     1      31.985  -7.965 -21.971  0.00  0.00    -0.006 C 
ATOM     14  C   UNL     1      31.860  -8.693 -20.727  0.00  0.00    -0.006 C 
ATOM     15  C   UNL     1      32.006  -8.457 -24.360  0.00  0.00    -0.006 C 
ATOM     16  C   UNL     1      31.567 -11.004 -20.007  0.00  0.00    -0.006 C 
ATOM     17  C   UNL     1      32.134  -6.608 -22.211  0.00  0.00    -0.000 C 
ATOM     18  C   UNL     1      31.851  -8.244 -19.416  0.00  0.00    -0.000 C 
ATOM     19  C   UNL     1      32.156  -7.090 -24.601  0.00  0.00    -0.000 C 
ATOM     20  C   UNL     1      31.558 -10.551 -18.686  0.00  0.00    -0.000 C 
ATOM     21  C   UNL     1      32.220  -6.175 -23.538  0.00  0.00    -0.000 C 
ATOM     22  C   UNL     1      31.700  -9.185 -18.394  0.00  0.00    -0.000 C 
ENDBRANCH   2  10
BRANCH   8  24
ATOM     23  N   UNL     1      35.562 -19.018 -20.576  0.00  0.00    -0.312 N 
ATOM     24  C   UNL     1      34.592 -15.981 -23.180  0.00  0.00    +0.054 C 
ATOM     25  C   UNL     1      34.663 -17.321 -23.570  0.00  0.00    +0.006 C 
ATOM     26  C   UNL     1      34.850 -15.600 -21.868  0.00  0.00    +0.006 C 
ATOM     27  C   UNL     1      35.002 -18.295 -22.611  0.00  0.00    +0.015 C 
ATOM     28  C   UNL     1      35.258 -17.888 -21.299  0.00  0.00    +0.048 C 
ATOM     29  C   UNL     1      35.189 -16.549 -20.899  0.00  0.00    +0.015 C 
ATOM     30  C   UNL     1      35.165 -19.708 -22.648  0.00  0.00    +0.017 C 
ATOM     31  C   UNL     1      35.508 -20.123 -21.382  0.00  0.00    +0.062 C 
ATOM     32  H   UNL     1      35.786 -19.030 -19.617  0.00  0.00    +0.152 HD
ENDBRANCH   8  24
TORSDOF 2
ENDMDL
MODEL 5
REMARK VINA RESULT:     -10.9      2.239      8.648
REMARK  Name = 447767
REMARK  2 active torsions:
REMARK  status: ('A' for Active; 'I' for Inactive)
REMARK    1  A    between atoms: N_2  and  C_10
REMARK    2  A    between atoms: C_8  and  C_24
REMARK                            x       y       z     vdW  Elec       q    Type
REMARK                         _______ _______ _______ _____ _____    ______ ____
ROOT
ATOM      1  O   UNL     1      35.298  -6.583 -23.279  0.00  0.00    -0.270 OA
ATOM      2  N   UNL     1      32.341 -10.595 -23.319  0.00  0.00    +0.396 N 
ATOM      3  N   UNL     1      33.513  -8.017 -23.748  0.00  0.00    -0.280 N 
ATOM      4  C   UNL     1      31.524  -9.378 -23.195  0.00  0.00    -0.054 C 
ATOM      5  C   UNL     1      33.726 -10.327 -22.908  0.00  0.00    -0.054 C 
ATOM      6  C   UNL     1      32.094  -8.243 -24.049  0.00  0.00    +0.071 C 
ATOM      7  C   UNL     1      34.338  -9.221 -23.765  0.00  0.00    +0.071 C 
ATOM      8  C   UNL     1      34.109  -6.772 -23.530  0.00  0.00    +0.249 C 
ATOM      9  H   UNL     1      32.344 -10.882 -24.298  0.00  0.00    -0.079 HD
ENDROOT
BRANCH   2  10
ATOM     10  C   UNL     1      31.769 -11.680 -22.524  0.00  0.00    -0.011 C 
ATOM     11  C   UNL     1      31.636 -11.308 -21.053  0.00  0.00    -0.038 C 
ATOM     12  C   UNL     1      32.694 -12.887 -22.447  0.00  0.00    -0.038 C 
ATOM     13  C   UNL     1      32.391 -12.193 -20.249  0.00  0.00    -0.006 C 
ATOM     14  C   UNL     1      33.040 -13.162 -21.106  0.00  0.00    -0.006 C 
ATOM     15  C   UNL     1      30.893 -10.284 -20.490  0.00  0.00    -0.006 C 
ATOM     16  C   UNL     1      33.164 -13.674 -23.486  0.00  0.00    -0.006 C 
ATOM     17  C   UNL     1      32.414 -12.049 -18.872  0.00  0.00    -0.000 C 
ATOM     18  C   UNL     1      33.872 -14.225 -20.795  0.00  0.00    -0.000 C 
ATOM     19  C   UNL     1      30.916 -10.139 -19.103  0.00  0.00    -0.000 C 
ATOM     20  C   UNL     1      34.003 -14.746 -23.173  0.00  0.00    -0.000 C 
ATOM     21  C   UNL     1      31.670 -11.012 -18.301  0.00  0.00    -0.000 C 
ATOM     22  C   UNL     1      34.354 -15.018 -21.841  0.00  0.00    -0.000 C 
ENDBRANCH   2  10
BRANCH   8  24
ATOM     23  N   UNL     1      30.827  -2.255 -23.602  0.00  0.00    -0.312 N 
ATOM     24  C   UNL     1      33.263  -5.574 -23.612  0.00  0.00    +0.054 C 
ATOM     25  C   UNL     1      32.501  -5.195 -22.504  0.00  0.00    +0.006 C 
ATOM     26  C   UNL     1      33.236  -4.833 -24.790  0.00  0.00    +0.006 C 
ATOM     27  C   UNL     1      31.695  -4.044 -22.590  0.00  0.00    +0.015 C 
ATOM     28  C   UNL     1      31.684  -3.317 -23.782  0.00  0.00    +0.048 C 
ATOM     29  C   UNL     1      32.443  -3.687 -24.898  0.00  0.00    +0.015 C 
ATOM     30  C   UNL     1      30.815  -3.381 -21.689  0.00  0.00    +0.017 C 
ATOM     31  C   UNL     1      30.297  -2.286 -22.340  0.00  0.00    +0.062 C 
ATOM     32  H   UNL     1      30.624  -1.573 -24.282  0.00  0.00    +0.152 HD
ENDBRANCH   8  24
TORSDOF 2
ENDMDL
MODEL 6
REMARK VINA RESULT:     -10.9      3.331      6.462
REMARK  Name = 447767
REMARK  2 active torsions:
REMARK  status: ('A' for Active; 'I' for Inactive)
REMARK    1  A    between atoms: N_2  and  C_10
REMARK    2  A    between atoms: C_8  and  C_24
REMARK                            x       y       z     vdW  Elec       q    Type
REMARK                         _______ _______ _______ _____ _____    ______ ____
ROOT
ATOM      1  O   UNL     1      34.624 -17.403 -24.789  0.00  0.00    -0.270 OA
ATOM      2  N   UNL     1      33.262 -13.063 -22.751  0.00  0.00    +0.396 N 
ATOM      3  N   UNL     1      34.527 -15.560 -23.353  0.00  0.00    -0.280 N 
ATOM      4  C   UNL     1      33.471 -14.063 -21.694  0.00  0.00    -0.054 C 
ATOM      5  C   UNL     1      33.032 -13.723 -24.044  0.00  0.00    -0.054 C 
ATOM      6  C   UNL     1      34.663 -14.967 -22.018  0.00  0.00    +0.071 C 
ATOM      7  C   UNL     1      34.221 -14.607 -24.416  0.00  0.00    +0.071 C 
ATOM      8  C   UNL     1      34.737 -16.905 -23.670  0.00  0.00    +0.249 C 
ATOM      9  H   UNL     1      34.104 -12.492 -22.825  0.00  0.00    -0.079 HD
ENDROOT
BRANCH   2  10
ATOM     10  C   UNL     1      32.141 -12.187 -22.415  0.00  0.00    -0.011 C 
ATOM     11  C   UNL     1      32.285 -10.803 -23.035  0.00  0.00    -0.038 C 
ATOM     12  C   UNL     1      32.099 -11.849 -20.931  0.00  0.00    -0.038 C 
ATOM     13  C   UNL     1      32.319  -9.811 -22.028  0.00  0.00    -0.006 C 
ATOM     14  C   UNL     1      32.205 -10.454 -20.737  0.00  0.00    -0.006 C 
ATOM     15  C   UNL     1      32.358 -10.467 -24.377  0.00  0.00    -0.006 C 
ATOM     16  C   UNL     1      31.958 -12.715 -19.858  0.00  0.00    -0.006 C 
ATOM     17  C   UNL     1      32.440  -8.472 -22.362  0.00  0.00    -0.000 C 
ATOM     18  C   UNL     1      32.183  -9.915 -19.460  0.00  0.00    -0.000 C 
ATOM     19  C   UNL     1      32.479  -9.118 -24.713  0.00  0.00    -0.000 C 
ATOM     20  C   UNL     1      31.936 -12.172 -18.572  0.00  0.00    -0.000 C 
ATOM     21  C   UNL     1      32.521  -8.130 -23.715  0.00  0.00    -0.000 C 
ATOM     22  C   UNL     1      32.049 -10.785 -18.376  0.00  0.00    -0.000 C 
ENDBRANCH   2  10
BRANCH   8  24
ATOM     23  N   UNL     1      36.012 -20.471 -19.567  0.00  0.00    -0.312 N 
ATOM     24  C   UNL     1      35.134 -17.819 -22.590  0.00  0.00    +0.054 C 
ATOM     25  C   UNL     1      34.187 -18.692 -22.048  0.00  0.00    +0.006 C 
ATOM     26  C   UNL     1      36.445 -17.802 -22.125  0.00  0.00    +0.006 C 
ATOM     27  C   UNL     1      34.576 -19.566 -21.015  0.00  0.00    +0.015 C 
ATOM     28  C   UNL     1      35.898 -19.531 -20.565  0.00  0.00    +0.048 C 
ATOM     29  C   UNL     1      36.854 -18.660 -21.101  0.00  0.00    +0.015 C 
ATOM     30  C   UNL     1      33.903 -20.560 -20.250  0.00  0.00    +0.017 C 
ATOM     31  C   UNL     1      34.811 -21.098 -19.369  0.00  0.00    +0.062 C 
ATOM     32  H   UNL     1      36.838 -20.664 -19.066  0.00  0.00    +0.152 HD
ENDBRANCH   8  24
TORSDOF 2
ENDMDL
MODEL 7
REMARK VINA RESULT:     -10.0      1.988      3.420
REMARK  Name = 447767
REMARK  2 active torsions:
REMARK  status: ('A' for Active; 'I' for Inactive)
REMARK    1  A    between atoms: N_2  and  C_10
REMARK    2  A    between atoms: C_8  and  C_24
REMARK                            x       y       z     vdW  Elec       q    Type
REMARK                         _______ _______ _______ _____ _____    ______ ____
ROOT
ATOM      1  O   UNL     1      32.018  -8.351 -19.526  0.00  0.00    -0.270 OA
ATOM      2  N   UNL     1      31.697  -5.128 -23.315  0.00  0.00    +0.396 N 
ATOM      3  N   UNL     1      31.502  -7.419 -21.607  0.00  0.00    -0.280 N 
ATOM      4  C   UNL     1      32.020  -6.468 -23.829  0.00  0.00    -0.054 C 
ATOM      5  C   UNL     1      32.043  -5.028 -21.890  0.00  0.00    -0.054 C 
ATOM      6  C   UNL     1      31.272  -7.552 -23.051  0.00  0.00    +0.071 C 
ATOM      7  C   UNL     1      31.285  -6.075 -21.077  0.00  0.00    +0.071 C 
ATOM      8  C   UNL     1      31.826  -8.462 -20.736  0.00  0.00    +0.249 C 
ATOM      9  H   UNL     1      30.693  -4.979 -23.414  0.00  0.00    -0.079 HD
ENDROOT
BRANCH   2  10
ATOM     10  C   UNL     1      32.393  -4.100 -24.087  0.00  0.00    -0.011 C 
ATOM     11  C   UNL     1      31.454  -3.344 -25.018  0.00  0.00    -0.038 C 
ATOM     12  C   UNL     1      33.384  -4.696 -25.078  0.00  0.00    -0.038 C 
ATOM     13  C   UNL     1      31.864  -3.494 -26.362  0.00  0.00    -0.006 C 
ATOM     14  C   UNL     1      33.049  -4.324 -26.398  0.00  0.00    -0.006 C 
ATOM     15  C   UNL     1      30.349  -2.578 -24.685  0.00  0.00    -0.006 C 
ATOM     16  C   UNL     1      34.494  -5.482 -24.812  0.00  0.00    -0.006 C 
ATOM     17  C   UNL     1      31.158  -2.885 -27.387  0.00  0.00    -0.000 C 
ATOM     18  C   UNL     1      33.819  -4.749 -27.469  0.00  0.00    -0.000 C 
ATOM     19  C   UNL     1      29.638  -1.964 -25.717  0.00  0.00    -0.000 C 
ATOM     20  C   UNL     1      35.270  -5.911 -25.891  0.00  0.00    -0.000 C 
ATOM     21  C   UNL     1      30.038  -2.116 -27.055  0.00  0.00    -0.000 C 
ATOM     22  C   UNL     1      34.935  -5.549 -27.206  0.00  0.00    -0.000 C 
ENDBRANCH   2  10
BRANCH   8  24
ATOM     23  N   UNL     1      32.448 -13.525 -23.007  0.00  0.00    -0.312 N 
ATOM     24  C   UNL     1      31.945  -9.817 -21.290  0.00  0.00    +0.054 C 
ATOM     25  C   UNL     1      32.799 -10.043 -22.373  0.00  0.00    +0.006 C 
ATOM     26  C   UNL     1      31.207 -10.855 -20.729  0.00  0.00    +0.006 C 
ATOM     27  C   UNL     1      32.910 -11.345 -22.897  0.00  0.00    +0.015 C 
ATOM     28  C   UNL     1      32.160 -12.370 -22.317  0.00  0.00    +0.048 C 
ATOM     29  C   UNL     1      31.301 -12.155 -21.233  0.00  0.00    +0.015 C 
ATOM     30  C   UNL     1      33.658 -11.926 -23.960  0.00  0.00    +0.017 C 
ATOM     31  C   UNL     1      33.352 -13.266 -24.003  0.00  0.00    +0.062 C 
ATOM     32  H   UNL     1      32.060 -14.409 -22.815  0.00  0.00    +0.152 HD
ENDBRANCH   8  24
TORSDOF 2
ENDMDL
MODEL 8
REMARK VINA RESULT:      -9.7      9.673     15.738
REMARK  Name = 447767
REMARK  2 active torsions:
REMARK  status: ('A' for Active; 'I' for Inactive)
REMARK    1  A    between atoms: N_2  and  C_10
REMARK    2  A    between atoms: C_8  and  C_24
REMARK                            x       y       z     vdW  Elec       q    Type
REMARK                         _______ _______ _______ _____ _____    ______ ____
ROOT
ATOM      1  O   UNL     1      36.659 -21.959 -20.036  0.00  0.00    -0.270 OA
ATOM      2  N   UNL     1      32.426 -22.493 -17.459  0.00  0.00    +0.396 N 
ATOM      3  N   UNL     1      34.397 -21.895 -19.448  0.00  0.00    -0.280 N 
ATOM      4  C   UNL     1      32.447 -21.176 -18.111  0.00  0.00    -0.054 C 
ATOM      5  C   UNL     1      33.790 -23.030 -17.343  0.00  0.00    -0.054 C 
ATOM      6  C   UNL     1      33.076 -21.260 -19.504  0.00  0.00    +0.071 C 
ATOM      7  C   UNL     1      34.435 -23.162 -18.721  0.00  0.00    +0.071 C 
ATOM      8  C   UNL     1      35.552 -21.426 -20.081  0.00  0.00    +0.249 C 
ATOM      9  H   UNL     1      31.877 -23.130 -18.036  0.00  0.00    -0.079 HD
ENDROOT
BRANCH   2  10
ATOM     10  C   UNL     1      31.796 -22.405 -16.142  0.00  0.00    -0.011 C 
ATOM     11  C   UNL     1      32.587 -23.149 -15.074  0.00  0.00    -0.038 C 
ATOM     12  C   UNL     1      30.461 -23.137 -16.093  0.00  0.00    -0.038 C 
ATOM     13  C   UNL     1      31.798 -24.170 -14.496  0.00  0.00    -0.006 C 
ATOM     14  C   UNL     1      30.493 -24.162 -15.122  0.00  0.00    -0.006 C 
ATOM     15  C   UNL     1      33.885 -22.917 -14.649  0.00  0.00    -0.006 C 
ATOM     16  C   UNL     1      29.320 -22.889 -16.839  0.00  0.00    -0.006 C 
ATOM     17  C   UNL     1      32.312 -24.975 -13.492  0.00  0.00    -0.000 C 
ATOM     18  C   UNL     1      29.381 -24.957 -14.898  0.00  0.00    -0.000 C 
ATOM     19  C   UNL     1      34.402 -23.728 -13.639  0.00  0.00    -0.000 C 
ATOM     20  C   UNL     1      28.199 -23.690 -16.613  0.00  0.00    -0.000 C 
ATOM     21  C   UNL     1      33.624 -24.748 -13.066  0.00  0.00    -0.000 C 
ATOM     22  C   UNL     1      28.230 -24.715 -15.653  0.00  0.00    -0.000 C 
ENDBRANCH   2  10
BRANCH   8  24
ATOM     23  N   UNL     1      35.052 -16.887 -23.294  0.00  0.00    -0.312 N 
ATOM     24  C   UNL     1      35.454 -20.198 -20.881  0.00  0.00    +0.054 C 
ATOM     25  C   UNL     1      34.809 -20.236 -22.120  0.00  0.00    +0.006 C 
ATOM     26  C   UNL     1      36.003 -19.017 -20.393  0.00  0.00    +0.006 C 
ATOM     27  C   UNL     1      34.718 -19.054 -22.879  0.00  0.00    +0.015 C 
ATOM     28  C   UNL     1      35.276 -17.880 -22.368  0.00  0.00    +0.048 C 
ATOM     29  C   UNL     1      35.924 -17.831 -21.129  0.00  0.00    +0.015 C 
ATOM     30  C   UNL     1      34.150 -18.729 -24.144  0.00  0.00    +0.017 C 
ATOM     31  C   UNL     1      34.372 -17.391 -24.371  0.00  0.00    +0.062 C 
ATOM     32  H   UNL     1      35.338 -15.950 -23.197  0.00  0.00    +0.152 HD
ENDBRANCH   8  24
TORSDOF 2
ENDMDL
