MODEL 1
REMARK VINA RESULT:     -11.8      0.000      0.000
REMARK  Name = 4566
REMARK  6 active torsions:
REMARK  status: ('A' for Active; 'I' for Inactive)
REMARK    1  A    between atoms: N_4  and  C_14
REMARK    2  A    between atoms: C_6  and  O_26
REMARK    3  A    between atoms: C_15  and  S_20
REMARK    4  A    between atoms: S_20  and  N_23
REMARK    5  A    between atoms: O_26  and  C_27
REMARK    6  A    between atoms: C_27  and  C_28
REMARK                            x       y       z     vdW  Elec       q    Type
REMARK                         _______ _______ _______ _____ _____    ______ ____
ROOT
ATOM      1  N   UNL     1      33.936 -23.728 -15.605  0.00  0.00    -0.293 NA
ATOM      2  N   UNL     1      30.582 -22.595 -16.603  0.00  0.00    -0.266 NA
ATOM      3  N   UNL     1      32.221 -24.069 -13.904  0.00  0.00    -0.316 NA
ATOM      4  N   UNL     1      34.443 -24.698 -13.535  0.00  0.00    -0.238 N 
ATOM      5  N   UNL     1      30.008 -23.316 -14.574  0.00  0.00    -0.296 N 
ATOM      6  C   UNL     1      33.041 -23.182 -16.458  0.00  0.00    +0.288 C 
ATOM      7  C   UNL     1      31.731 -23.075 -16.040  0.00  0.00    +0.215 C 
ATOM      8  C   UNL     1      31.348 -23.517 -14.781  0.00  0.00    +0.196 C 
ATOM      9  C   UNL     1      33.476 -24.132 -14.396  0.00  0.00    +0.207 C 
ATOM     10  C   UNL     1      29.577 -22.760 -15.686  0.00  0.00    +0.164 C 
ATOM     11  H   UNL     1      30.492 -22.202 -17.501  0.00  0.00    +0.126 HD
ATOM     12  H   UNL     1      34.080 -24.984 -12.665  0.00  0.00    +0.166 HD
ATOM     13  H   UNL     1      29.484 -23.538 -13.770  0.00  0.00    +0.150 HD
ENDROOT
BRANCH   4  14
ATOM     14  C   UNL     1      35.822 -24.934 -13.677  0.00  0.00    +0.059 C 
ATOM     15  C   UNL     1      38.562 -25.401 -13.957  0.00  0.00    +0.122 C 
ATOM     16  C   UNL     1      36.275 -26.004 -14.450  0.00  0.00    +0.017 C 
ATOM     17  C   UNL     1      36.745 -24.097 -13.044  0.00  0.00    +0.017 C 
ATOM     18  C   UNL     1      37.643 -26.239 -14.591  0.00  0.00    +0.021 C 
ATOM     19  C   UNL     1      38.114 -24.332 -13.184  0.00  0.00    +0.021 C 
BRANCH  15  20
ATOM     20  S   UNL     1      40.275 -25.695 -14.132  0.00  0.00    +0.057 S 
ATOM     21  O   UNL     1      40.989 -24.476 -13.779  0.00  0.00    -0.153 OA
ATOM     22  O   UNL     1      40.600 -26.945 -13.459  0.00  0.00    -0.153 OA
BRANCH  20  23
ATOM     23  N   UNL     1      40.393 -25.935 -15.819  0.00  0.00    -0.203 NA
ATOM     24  H   UNL     1      40.338 -25.034 -16.296  0.00  0.00    +0.144 HD
ATOM     25  H   UNL     1      39.627 -26.532 -16.132  0.00  0.00    +0.144 HD
ENDBRANCH  20  23
ENDBRANCH  15  20
ENDBRANCH   4  14
BRANCH   6  26
ATOM     26  O   UNL     1      33.475 -22.761 -17.691  0.00  0.00    -0.453 OA
BRANCH  26  27
ATOM     27  C   UNL     1      34.857 -22.491 -17.829  0.00  0.00    +0.208 C 
BRANCH  27  28
ATOM     28  C   UNL     1      35.076 -21.745 -19.144  0.00  0.00    +0.044 C 
ATOM     29  C   UNL     1      33.823 -20.948 -19.531  0.00  0.00    +0.004 C 
ATOM     30  C   UNL     1      36.301 -20.825 -19.048  0.00  0.00    +0.004 C 
ATOM     31  C   UNL     1      34.034 -20.150 -20.816  0.00  0.00    +0.000 C 
ATOM     32  C   UNL     1      36.508 -20.027 -20.334  0.00  0.00    +0.000 C 
ATOM     33  C   UNL     1      35.257 -19.243 -20.719  0.00  0.00    +0.000 C 
ENDBRANCH  27  28
ENDBRANCH  26  27
ENDBRANCH   6  26
TORSDOF 6
ENDMDL
MODEL 2
REMARK VINA RESULT:     -11.8      1.387      1.691
REMARK  Name = 4566
REMARK  6 active torsions:
REMARK  status: ('A' for Active; 'I' for Inactive)
REMARK    1  A    between atoms: N_4  and  C_14
REMARK    2  A    between atoms: C_6  and  O_26
REMARK    3  A    between atoms: C_15  and  S_20
REMARK    4  A    between atoms: S_20  and  N_23
REMARK    5  A    between atoms: O_26  and  C_27
REMARK    6  A    between atoms: C_27  and  C_28
REMARK                            x       y       z     vdW  Elec       q    Type
REMARK                         _______ _______ _______ _____ _____    ______ ____
ROOT
ATOM      1  N   UNL     1      32.356 -23.420 -15.399  0.00  0.00    -0.293 NA
ATOM      2  N   UNL     1      29.078 -22.460 -16.764  0.00  0.00    -0.266 NA
ATOM      3  N   UNL     1      30.479 -23.890 -13.912  0.00  0.00    -0.316 NA
ATOM      4  N   UNL     1      32.678 -24.398 -13.296  0.00  0.00    -0.238 N 
ATOM      5  N   UNL     1      28.318 -23.251 -14.824  0.00  0.00    -0.296 N 
ATOM      6  C   UNL     1      31.535 -22.909 -16.343  0.00  0.00    +0.288 C 
ATOM      7  C   UNL     1      30.181 -22.885 -16.079  0.00  0.00    +0.215 C 
ATOM      8  C   UNL     1      29.683 -23.372 -14.878  0.00  0.00    +0.196 C 
ATOM      9  C   UNL     1      31.784 -23.872 -14.257  0.00  0.00    +0.207 C 
ATOM     10  C   UNL     1      27.986 -22.700 -15.972  0.00  0.00    +0.164 C 
ATOM     11  H   UNL     1      29.069 -22.057 -17.662  0.00  0.00    +0.126 HD
ATOM     12  H   UNL     1      32.235 -24.720 -12.477  0.00  0.00    +0.166 HD
ATOM     13  H   UNL     1      27.719 -23.518 -14.089  0.00  0.00    +0.150 HD
ENDROOT
BRANCH   4  14
ATOM     14  C   UNL     1      34.075 -24.552 -13.281  0.00  0.00    +0.059 C 
ATOM     15  C   UNL     1      36.852 -24.859 -13.248  0.00  0.00    +0.122 C 
ATOM     16  C   UNL     1      34.745 -25.002 -14.420  0.00  0.00    +0.017 C 
ATOM     17  C   UNL     1      34.801 -24.256 -12.123  0.00  0.00    +0.017 C 
ATOM     18  C   UNL     1      36.132 -25.155 -14.405  0.00  0.00    +0.021 C 
ATOM     19  C   UNL     1      36.188 -24.410 -12.108  0.00  0.00    +0.021 C 
BRANCH  15  20
ATOM     20  S   UNL     1      38.588 -25.052 -13.228  0.00  0.00    +0.057 S 
ATOM     21  O   UNL     1      39.130 -24.224 -12.160  0.00  0.00    -0.153 OA
ATOM     22  O   UNL     1      38.895 -26.475 -13.267  0.00  0.00    -0.153 OA
BRANCH  20  23
ATOM     23  N   UNL     1      39.010 -24.359 -14.732  0.00  0.00    -0.203 NA
ATOM     24  H   UNL     1      38.231 -23.800 -15.079  0.00  0.00    +0.144 HD
ATOM     25  H   UNL     1      39.219 -25.100 -15.400  0.00  0.00    +0.144 HD
ENDBRANCH  20  23
ENDBRANCH  15  20
ENDBRANCH   4  14
BRANCH   6  26
ATOM     26  O   UNL     1      32.081 -22.441 -17.512  0.00  0.00    -0.453 OA
BRANCH  26  27
ATOM     27  C   UNL     1      33.424 -22.796 -17.783  0.00  0.00    +0.208 C 
BRANCH  27  28
ATOM     28  C   UNL     1      33.868 -22.079 -19.057  0.00  0.00    +0.044 C 
ATOM     29  C   UNL     1      32.941 -20.895 -19.364  0.00  0.00    +0.004 C 
ATOM     30  C   UNL     1      35.326 -21.615 -18.938  0.00  0.00    +0.004 C 
ATOM     31  C   UNL     1      33.395 -20.130 -20.604  0.00  0.00    +0.000 C 
ATOM     32  C   UNL     1      35.776 -20.848 -20.180  0.00  0.00    +0.000 C 
ATOM     33  C   UNL     1      34.847 -19.677 -20.486  0.00  0.00    +0.000 C 
ENDBRANCH  27  28
ENDBRANCH  26  27
ENDBRANCH   6  26
TORSDOF 6
ENDMDL
MODEL 3
REMARK VINA RESULT:     -11.5      3.352      6.996
REMARK  Name = 4566
REMARK  6 active torsions:
REMARK  status: ('A' for Active; 'I' for Inactive)
REMARK    1  A    between atoms: N_4  and  C_14
REMARK    2  A    between atoms: C_6  and  O_26
REMARK    3  A    between atoms: C_15  and  S_20
REMARK    4  A    between atoms: S_20  and  N_23
REMARK    5  A    between atoms: O_26  and  C_27
REMARK    6  A    between atoms: C_27  and  C_28
REMARK                            x       y       z     vdW  Elec       q    Type
REMARK                         _______ _______ _______ _____ _____    ______ ____
ROOT
ATOM      1  N   UNL     1      34.587 -24.024 -14.180  0.00  0.00    -0.293 NA
ATOM      2  N   UNL     1      38.134 -24.294 -13.245  0.00  0.00    -0.266 NA
ATOM      3  N   UNL     1      34.961 -24.542 -11.825  0.00  0.00    -0.316 NA
ATOM      4  N   UNL     1      32.801 -24.314 -12.693  0.00  0.00    -0.238 N 
ATOM      5  N   UNL     1      37.309 -24.719 -11.219  0.00  0.00    -0.296 N 
ATOM      6  C   UNL     1      35.915 -23.995 -14.429  0.00  0.00    +0.288 C 
ATOM      7  C   UNL     1      36.775 -24.239 -13.378  0.00  0.00    +0.215 C 
ATOM      8  C   UNL     1      36.286 -24.506 -12.107  0.00  0.00    +0.196 C 
ATOM      9  C   UNL     1      34.198 -24.293 -12.911  0.00  0.00    +0.207 C 
ATOM     10  C   UNL     1      38.405 -24.584 -11.933  0.00  0.00    +0.164 C 
ATOM     11  H   UNL     1      38.796 -24.151 -13.959  0.00  0.00    +0.126 HD
ATOM     12  H   UNL     1      32.547 -24.510 -11.762  0.00  0.00    +0.166 HD
ATOM     13  H   UNL     1      37.238 -24.925 -10.258  0.00  0.00    +0.150 HD
ENDROOT
BRANCH   4  14
ATOM     14  C   UNL     1      31.703 -24.108 -13.547  0.00  0.00    +0.059 C 
ATOM     15  C   UNL     1      29.522 -23.699 -15.245  0.00  0.00    +0.122 C 
ATOM     16  C   UNL     1      30.851 -25.169 -13.864  0.00  0.00    +0.017 C 
ATOM     17  C   UNL     1      31.459 -22.841 -14.084  0.00  0.00    +0.017 C 
ATOM     18  C   UNL     1      29.762 -24.965 -14.711  0.00  0.00    +0.021 C 
ATOM     19  C   UNL     1      30.369 -22.637 -14.931  0.00  0.00    +0.021 C 
BRANCH  15  20
ATOM     20  S   UNL     1      28.159 -23.444 -16.306  0.00  0.00    +0.057 S 
ATOM     21  O   UNL     1      28.481 -22.353 -17.215  0.00  0.00    -0.153 OA
ATOM     22  O   UNL     1      27.743 -24.733 -16.842  0.00  0.00    -0.153 OA
BRANCH  20  23
ATOM     23  N   UNL     1      26.977 -22.906 -15.195  0.00  0.00    -0.203 NA
ATOM     24  H   UNL     1      26.141 -22.616 -15.702  0.00  0.00    +0.144 HD
ATOM     25  H   UNL     1      27.344 -22.115 -14.665  0.00  0.00    +0.144 HD
ENDBRANCH  20  23
ENDBRANCH  15  20
ENDBRANCH   4  14
BRANCH   6  26
ATOM     26  O   UNL     1      36.343 -23.727 -15.705  0.00  0.00    -0.453 OA
BRANCH  26  27
ATOM     27  C   UNL     1      36.331 -22.373 -16.118  0.00  0.00    +0.208 C 
BRANCH  27  28
ATOM     28  C   UNL     1      35.839 -22.312 -17.563  0.00  0.00    +0.044 C 
ATOM     29  C   UNL     1      34.305 -22.317 -17.614  0.00  0.00    +0.004 C 
ATOM     30  C   UNL     1      36.406 -21.076 -18.276  0.00  0.00    +0.004 C 
ATOM     31  C   UNL     1      33.788 -22.203 -19.046  0.00  0.00    +0.000 C 
ATOM     32  C   UNL     1      35.885 -20.964 -19.707  0.00  0.00    +0.000 C 
ATOM     33  C   UNL     1      34.360 -20.978 -19.754  0.00  0.00    +0.000 C 
ENDBRANCH  27  28
ENDBRANCH  26  27
ENDBRANCH   6  26
TORSDOF 6
ENDMDL
MODEL 4
REMARK VINA RESULT:     -11.2      3.397      7.073
REMARK  Name = 4566
REMARK  6 active torsions:
REMARK  status: ('A' for Active; 'I' for Inactive)
REMARK    1  A    between atoms: N_4  and  C_14
REMARK    2  A    between atoms: C_6  and  O_26
REMARK    3  A    between atoms: C_15  and  S_20
REMARK    4  A    between atoms: S_20  and  N_23
REMARK    5  A    between atoms: O_26  and  C_27
REMARK    6  A    between atoms: C_27  and  C_28
REMARK                            x       y       z     vdW  Elec       q    Type
REMARK                         _______ _______ _______ _____ _____    ______ ____
ROOT
ATOM      1  N   UNL     1      34.487 -23.577 -15.091  0.00  0.00    -0.293 NA
ATOM      2  N   UNL     1      38.145 -23.849 -14.818  0.00  0.00    -0.266 NA
ATOM      3  N   UNL     1      35.255 -24.723 -13.078  0.00  0.00    -0.316 NA
ATOM      4  N   UNL     1      32.977 -24.410 -13.507  0.00  0.00    -0.238 N 
ATOM      5  N   UNL     1      37.675 -24.897 -12.909  0.00  0.00    -0.296 N 
ATOM      6  C   UNL     1      35.756 -23.382 -15.515  0.00  0.00    +0.288 C 
ATOM      7  C   UNL     1      36.782 -23.856 -14.725  0.00  0.00    +0.215 C 
ATOM      8  C   UNL     1      36.515 -24.512 -13.531  0.00  0.00    +0.196 C 
ATOM      9  C   UNL     1      34.318 -24.227 -13.915  0.00  0.00    +0.207 C 
ATOM     10  C   UNL     1      38.635 -24.484 -13.707  0.00  0.00    +0.164 C 
ATOM     11  H   UNL     1      38.678 -23.459 -15.548  0.00  0.00    +0.126 HD
ATOM     12  H   UNL     1      32.884 -24.884 -12.649  0.00  0.00    +0.166 HD
ATOM     13  H   UNL     1      37.767 -25.376 -12.053  0.00  0.00    +0.150 HD
ENDROOT
BRANCH   4  14
ATOM     14  C   UNL     1      31.749 -24.047 -14.088  0.00  0.00    +0.059 C 
ATOM     15  C   UNL     1      29.307 -23.328 -15.240  0.00  0.00    +0.122 C 
ATOM     16  C   UNL     1      31.401 -22.700 -14.212  0.00  0.00    +0.017 C 
ATOM     17  C   UNL     1      30.869 -25.033 -14.543  0.00  0.00    +0.017 C 
ATOM     18  C   UNL     1      30.183 -22.340 -14.787  0.00  0.00    +0.021 C 
ATOM     19  C   UNL     1      29.650 -24.673 -15.118  0.00  0.00    +0.021 C 
BRANCH  15  20
ATOM     20  S   UNL     1      27.781 -22.877 -15.960  0.00  0.00    +0.057 S 
ATOM     21  O   UNL     1      26.751 -22.947 -14.933  0.00  0.00    -0.153 OA
ATOM     22  O   UNL     1      27.971 -21.645 -16.712  0.00  0.00    -0.153 OA
BRANCH  20  23
ATOM     23  N   UNL     1      27.550 -24.161 -17.063  0.00  0.00    -0.203 NA
ATOM     24  H   UNL     1      26.876 -24.823 -16.677  0.00  0.00    +0.144 HD
ATOM     25  H   UNL     1      28.438 -24.636 -17.222  0.00  0.00    +0.144 HD
ENDBRANCH  20  23
ENDBRANCH  15  20
ENDBRANCH   4  14
BRANCH   6  26
ATOM     26  O   UNL     1      35.963 -22.727 -16.704  0.00  0.00    -0.453 OA
BRANCH  26  27
ATOM     27  C   UNL     1      34.996 -22.919 -17.720  0.00  0.00    +0.208 C 
BRANCH  27  28
ATOM     28  C   UNL     1      34.820 -21.602 -18.474  0.00  0.00    +0.044 C 
ATOM     29  C   UNL     1      35.929 -21.421 -19.519  0.00  0.00    +0.004 C 
ATOM     30  C   UNL     1      33.434 -21.535 -19.131  0.00  0.00    +0.004 C 
ATOM     31  C   UNL     1      35.744 -20.136 -20.323  0.00  0.00    +0.000 C 
ATOM     32  C   UNL     1      33.253 -20.249 -19.936  0.00  0.00    +0.000 C 
ATOM     33  C   UNL     1      34.363 -20.070 -20.968  0.00  0.00    +0.000 C 
ENDBRANCH  27  28
ENDBRANCH  26  27
ENDBRANCH   6  26
TORSDOF 6
ENDMDL
MODEL 5
REMARK VINA RESULT:     -11.0      3.411      7.298
REMARK  Name = 4566
REMARK  6 active torsions:
REMARK  status: ('A' for Active; 'I' for Inactive)
REMARK    1  A    between atoms: N_4  and  C_14
REMARK    2  A    between atoms: C_6  and  O_26
REMARK    3  A    between atoms: C_15  and  S_20
REMARK    4  A    between atoms: S_20  and  N_23
REMARK    5  A    between atoms: O_26  and  C_27
REMARK    6  A    between atoms: C_27  and  C_28
REMARK                            x       y       z     vdW  Elec       q    Type
REMARK                         _______ _______ _______ _____ _____    ______ ____
ROOT
ATOM      1  N   UNL     1      33.933 -22.670 -16.074  0.00  0.00    -0.293 NA
ATOM      2  N   UNL     1      32.925 -24.634 -13.132  0.00  0.00    -0.266 NA
ATOM      3  N   UNL     1      31.753 -23.743 -16.291  0.00  0.00    -0.316 NA
ATOM      4  N   UNL     1      32.642 -22.433 -18.012  0.00  0.00    -0.238 N 
ATOM      5  N   UNL     1      31.097 -25.039 -14.341  0.00  0.00    -0.296 N 
ATOM      6  C   UNL     1      34.106 -23.175 -14.832  0.00  0.00    +0.288 C 
ATOM      7  C   UNL     1      33.105 -23.968 -14.311  0.00  0.00    +0.215 C 
ATOM      8  C   UNL     1      31.956 -24.234 -15.044  0.00  0.00    +0.196 C 
ATOM      9  C   UNL     1      32.783 -22.981 -16.717  0.00  0.00    +0.207 C 
ATOM     10  C   UNL     1      31.708 -25.261 -13.197  0.00  0.00    +0.164 C 
ATOM     11  H   UNL     1      33.554 -24.659 -12.375  0.00  0.00    +0.126 HD
ATOM     12  H   UNL     1      31.796 -22.675 -18.455  0.00  0.00    +0.166 HD
ATOM     13  H   UNL     1      30.217 -25.376 -14.628  0.00  0.00    +0.150 HD
ENDROOT
BRANCH   4  14
ATOM     14  C   UNL     1      33.473 -21.608 -18.791  0.00  0.00    +0.059 C 
ATOM     15  C   UNL     1      35.122 -19.968 -20.339  0.00  0.00    +0.122 C 
ATOM     16  C   UNL     1      34.859 -21.776 -18.758  0.00  0.00    +0.017 C 
ATOM     17  C   UNL     1      32.915 -20.616 -19.602  0.00  0.00    +0.017 C 
ATOM     18  C   UNL     1      35.683 -20.957 -19.531  0.00  0.00    +0.021 C 
ATOM     19  C   UNL     1      33.739 -19.797 -20.375  0.00  0.00    +0.021 C 
BRANCH  15  20
ATOM     20  S   UNL     1      36.154 -18.943 -21.306  0.00  0.00    +0.057 S 
ATOM     21  O   UNL     1      37.513 -19.044 -20.793  0.00  0.00    -0.153 OA
ATOM     22  O   UNL     1      35.889 -19.215 -22.712  0.00  0.00    -0.153 OA
BRANCH  20  23
ATOM     23  N   UNL     1      35.532 -17.399 -20.920  0.00  0.00    -0.203 NA
ATOM     24  H   UNL     1      35.172 -17.406 -19.966  0.00  0.00    +0.144 HD
ATOM     25  H   UNL     1      34.778 -17.165 -21.566  0.00  0.00    +0.144 HD
ENDBRANCH  20  23
ENDBRANCH  15  20
ENDBRANCH   4  14
BRANCH   6  26
ATOM     26  O   UNL     1      35.262 -22.880 -14.152  0.00  0.00    -0.453 OA
BRANCH  26  27
ATOM     27  C   UNL     1      36.483 -23.115 -14.827  0.00  0.00    +0.208 C 
BRANCH  27  28
ATOM     28  C   UNL     1      37.284 -24.147 -14.035  0.00  0.00    +0.044 C 
ATOM     29  C   UNL     1      37.163 -23.888 -12.528  0.00  0.00    +0.004 C 
ATOM     30  C   UNL     1      36.826 -25.571 -14.383  0.00  0.00    +0.004 C 
ATOM     31  C   UNL     1      37.911 -24.939 -11.711  0.00  0.00    +0.000 C 
ATOM     32  C   UNL     1      37.576 -26.619 -13.564  0.00  0.00    +0.000 C 
ATOM     33  C   UNL     1      37.459 -26.352 -12.066  0.00  0.00    +0.000 C 
ENDBRANCH  27  28
ENDBRANCH  26  27
ENDBRANCH   6  26
TORSDOF 6
ENDMDL
MODEL 6
REMARK VINA RESULT:     -10.8      2.681      5.615
REMARK  Name = 4566
REMARK  6 active torsions:
REMARK  status: ('A' for Active; 'I' for Inactive)
REMARK    1  A    between atoms: N_4  and  C_14
REMARK    2  A    between atoms: C_6  and  O_26
REMARK    3  A    between atoms: C_15  and  S_20
REMARK    4  A    between atoms: S_20  and  N_23
REMARK    5  A    between atoms: O_26  and  C_27
REMARK    6  A    between atoms: C_27  and  C_28
REMARK                            x       y       z     vdW  Elec       q    Type
REMARK                         _______ _______ _______ _____ _____    ______ ____
ROOT
ATOM      1  N   UNL     1      34.833 -22.485 -17.205  0.00  0.00    -0.293 NA
ATOM      2  N   UNL     1      33.495 -21.033 -20.308  0.00  0.00    -0.266 NA
ATOM      3  N   UNL     1      36.446 -21.150 -18.458  0.00  0.00    -0.316 NA
ATOM      4  N   UNL     1      37.028 -22.191 -16.446  0.00  0.00    -0.238 N 
ATOM      5  N   UNL     1      35.551 -20.196 -20.508  0.00  0.00    -0.296 N 
ATOM      6  C   UNL     1      33.866 -22.255 -18.121  0.00  0.00    +0.288 C 
ATOM      7  C   UNL     1      34.183 -21.471 -19.212  0.00  0.00    +0.215 C 
ATOM      8  C   UNL     1      35.456 -20.938 -19.358  0.00  0.00    +0.196 C 
ATOM      9  C   UNL     1      36.047 -21.926 -17.428  0.00  0.00    +0.207 C 
ATOM     10  C   UNL     1      34.358 -20.273 -21.055  0.00  0.00    +0.164 C 
ATOM     11  H   UNL     1      32.554 -21.227 -20.523  0.00  0.00    +0.126 HD
ATOM     12  H   UNL     1      37.900 -21.772 -16.633  0.00  0.00    +0.166 HD
ATOM     13  H   UNL     1      36.339 -19.712 -20.847  0.00  0.00    +0.150 HD
ENDROOT
BRANCH   4  14
ATOM     14  C   UNL     1      37.004 -22.937 -15.254  0.00  0.00    +0.059 C 
ATOM     15  C   UNL     1      36.959 -24.417 -12.885  0.00  0.00    +0.122 C 
ATOM     16  C   UNL     1      35.956 -22.776 -14.346  0.00  0.00    +0.017 C 
ATOM     17  C   UNL     1      38.032 -23.842 -14.971  0.00  0.00    +0.017 C 
ATOM     18  C   UNL     1      35.932 -23.515 -13.163  0.00  0.00    +0.021 C 
ATOM     19  C   UNL     1      38.008 -24.580 -13.788  0.00  0.00    +0.021 C 
BRANCH  15  20
ATOM     20  S   UNL     1      36.931 -25.342 -11.404  0.00  0.00    +0.057 S 
ATOM     21  O   UNL     1      37.191 -26.738 -11.728  0.00  0.00    -0.153 OA
ATOM     22  O   UNL     1      37.759 -24.661 -10.418  0.00  0.00    -0.153 OA
BRANCH  20  23
ATOM     23  N   UNL     1      35.292 -25.177 -10.948  0.00  0.00    -0.203 NA
ATOM     24  H   UNL     1      35.063 -25.878 -10.243  0.00  0.00    +0.144 HD
ATOM     25  H   UNL     1      34.697 -25.311 -11.766  0.00  0.00    +0.144 HD
ENDBRANCH  20  23
ENDBRANCH  15  20
ENDBRANCH   4  14
BRANCH   6  26
ATOM     26  O   UNL     1      32.625 -22.808 -17.927  0.00  0.00    -0.453 OA
BRANCH  26  27
ATOM     27  C   UNL     1      31.919 -22.413 -16.765  0.00  0.00    +0.208 C 
BRANCH  27  28
ATOM     28  C   UNL     1      31.772 -23.629 -15.852  0.00  0.00    +0.044 C 
ATOM     29  C   UNL     1      32.505 -23.402 -14.523  0.00  0.00    +0.004 C 
ATOM     30  C   UNL     1      30.290 -23.949 -15.611  0.00  0.00    +0.004 C 
ATOM     31  C   UNL     1      32.328 -24.582 -13.571  0.00  0.00    +0.000 C 
ATOM     32  C   UNL     1      30.117 -25.129 -14.657  0.00  0.00    +0.000 C 
ATOM     33  C   UNL     1      30.854 -24.902 -13.341  0.00  0.00    +0.000 C 
ENDBRANCH  27  28
ENDBRANCH  26  27
ENDBRANCH   6  26
TORSDOF 6
ENDMDL
MODEL 7
REMARK VINA RESULT:      -9.6      5.855      8.645
REMARK  Name = 4566
REMARK  6 active torsions:
REMARK  status: ('A' for Active; 'I' for Inactive)
REMARK    1  A    between atoms: N_4  and  C_14
REMARK    2  A    between atoms: C_6  and  O_26
REMARK    3  A    between atoms: C_15  and  S_20
REMARK    4  A    between atoms: S_20  and  N_23
REMARK    5  A    between atoms: O_26  and  C_27
REMARK    6  A    between atoms: C_27  and  C_28
REMARK                            x       y       z     vdW  Elec       q    Type
REMARK                         _______ _______ _______ _____ _____    ______ ____
ROOT
ATOM      1  N   UNL     1      35.057 -17.818 -20.722  0.00  0.00    -0.293 NA
ATOM      2  N   UNL     1      34.841 -14.971 -23.041  0.00  0.00    -0.266 NA
ATOM      3  N   UNL     1      35.265 -18.429 -23.075  0.00  0.00    -0.316 NA
ATOM      4  N   UNL     1      35.366 -20.042 -21.384  0.00  0.00    -0.238 N 
ATOM      5  N   UNL     1      35.120 -16.540 -24.599  0.00  0.00    -0.296 N 
ATOM      6  C   UNL     1      34.915 -16.510 -21.031  0.00  0.00    +0.288 C 
ATOM      7  C   UNL     1      34.947 -16.152 -22.363  0.00  0.00    +0.215 C 
ATOM      8  C   UNL     1      35.120 -17.111 -23.352  0.00  0.00    +0.196 C 
ATOM      9  C   UNL     1      35.221 -18.685 -21.750  0.00  0.00    +0.207 C 
ATOM     10  C   UNL     1      34.951 -15.254 -24.377  0.00  0.00    +0.164 C 
ATOM     11  H   UNL     1      34.710 -14.080 -22.643  0.00  0.00    +0.126 HD
ATOM     12  H   UNL     1      35.484 -20.649 -22.151  0.00  0.00    +0.166 HD
ATOM     13  H   UNL     1      35.225 -16.993 -25.467  0.00  0.00    +0.150 HD
ENDROOT
BRANCH   4  14
ATOM     14  C   UNL     1      35.375 -20.696 -20.139  0.00  0.00    +0.059 C 
ATOM     15  C   UNL     1      35.391 -21.997 -17.666  0.00  0.00    +0.122 C 
ATOM     16  C   UNL     1      36.555 -20.779 -19.398  0.00  0.00    +0.017 C 
ATOM     17  C   UNL     1      34.201 -21.267 -19.638  0.00  0.00    +0.017 C 
ATOM     18  C   UNL     1      36.564 -21.428 -18.163  0.00  0.00    +0.021 C 
ATOM     19  C   UNL     1      34.210 -21.916 -18.403  0.00  0.00    +0.021 C 
BRANCH  15  20
ATOM     20  S   UNL     1      35.402 -22.811 -16.121  0.00  0.00    +0.057 S 
ATOM     21  O   UNL     1      35.028 -21.850 -15.093  0.00  0.00    -0.153 OA
ATOM     22  O   UNL     1      34.660 -24.057 -16.250  0.00  0.00    -0.153 OA
BRANCH  20  23
ATOM     23  N   UNL     1      37.063 -23.176 -15.958  0.00  0.00    -0.203 NA
ATOM     24  H   UNL     1      37.206 -23.736 -15.117  0.00  0.00    +0.144 HD
ATOM     25  H   UNL     1      37.596 -22.310 -15.883  0.00  0.00    +0.144 HD
ENDBRANCH  20  23
ENDBRANCH  15  20
ENDBRANCH   4  14
BRANCH   6  26
ATOM     26  O   UNL     1      34.746 -15.604 -20.013  0.00  0.00    -0.453 OA
BRANCH  26  27
ATOM     27  C   UNL     1      33.417 -15.238 -19.691  0.00  0.00    +0.208 C 
BRANCH  27  28
ATOM     28  C   UNL     1      33.170 -13.818 -20.196  0.00  0.00    +0.044 C 
ATOM     29  C   UNL     1      32.371 -13.838 -21.506  0.00  0.00    +0.004 C 
ATOM     30  C   UNL     1      32.451 -12.981 -19.129  0.00  0.00    +0.004 C 
ATOM     31  C   UNL     1      32.065 -12.427 -22.003  0.00  0.00    +0.000 C 
ATOM     32  C   UNL     1      32.146 -11.571 -19.631  0.00  0.00    +0.000 C 
ATOM     33  C   UNL     1      31.357 -11.596 -20.937  0.00  0.00    +0.000 C 
ENDBRANCH  27  28
ENDBRANCH  26  27
ENDBRANCH   6  26
TORSDOF 6
ENDMDL
MODEL 8
REMARK VINA RESULT:      -9.5      3.585      7.543
REMARK  Name = 4566
REMARK  6 active torsions:
REMARK  status: ('A' for Active; 'I' for Inactive)
REMARK    1  A    between atoms: N_4  and  C_14
REMARK    2  A    between atoms: C_6  and  O_26
REMARK    3  A    between atoms: C_15  and  S_20
REMARK    4  A    between atoms: S_20  and  N_23
REMARK    5  A    between atoms: O_26  and  C_27
REMARK    6  A    between atoms: C_27  and  C_28
REMARK                            x       y       z     vdW  Elec       q    Type
REMARK                         _______ _______ _______ _____ _____    ______ ____
ROOT
ATOM      1  N   UNL     1      35.409 -23.455 -15.447  0.00  0.00    -0.293 NA
ATOM      2  N   UNL     1      35.705 -25.466 -12.382  0.00  0.00    -0.266 NA
ATOM      3  N   UNL     1      37.694 -23.691 -14.626  0.00  0.00    -0.316 NA
ATOM      4  N   UNL     1      37.215 -22.463 -16.558  0.00  0.00    -0.238 N 
ATOM      5  N   UNL     1      37.878 -25.021 -12.599  0.00  0.00    -0.296 N 
ATOM      6  C   UNL     1      34.921 -24.203 -14.432  0.00  0.00    +0.288 C 
ATOM      7  C   UNL     1      35.816 -24.698 -13.506  0.00  0.00    +0.215 C 
ATOM      8  C   UNL     1      37.175 -24.435 -13.620  0.00  0.00    +0.196 C 
ATOM      9  C   UNL     1      36.747 -23.249 -15.481  0.00  0.00    +0.207 C 
ATOM     10  C   UNL     1      36.967 -25.632 -11.873  0.00  0.00    +0.164 C 
ATOM     11  H   UNL     1      34.873 -25.833 -12.006  0.00  0.00    +0.126 HD
ATOM     12  H   UNL     1      38.191 -22.330 -16.558  0.00  0.00    +0.166 HD
ATOM     13  H   UNL     1      38.851 -24.991 -12.444  0.00  0.00    +0.150 HD
ENDROOT
BRANCH   4  14
ATOM     14  C   UNL     1      36.560 -21.834 -17.632  0.00  0.00    +0.059 C 
ATOM     15  C   UNL     1      35.255 -20.585 -19.764  0.00  0.00    +0.122 C 
ATOM     16  C   UNL     1      37.189 -20.804 -18.333  0.00  0.00    +0.017 C 
ATOM     17  C   UNL     1      35.273 -22.237 -18.002  0.00  0.00    +0.017 C 
ATOM     18  C   UNL     1      36.539 -20.179 -19.397  0.00  0.00    +0.021 C 
ATOM     19  C   UNL     1      34.623 -21.613 -19.066  0.00  0.00    +0.021 C 
BRANCH  15  20
ATOM     20  S   UNL     1      34.440 -19.803 -21.096  0.00  0.00    +0.057 S 
ATOM     21  O   UNL     1      35.078 -20.223 -22.335  0.00  0.00    -0.153 OA
ATOM     22  O   UNL     1      33.004 -19.977 -20.925  0.00  0.00    -0.153 OA
BRANCH  20  23
ATOM     23  N   UNL     1      34.831 -18.166 -20.801  0.00  0.00    -0.203 NA
ATOM     24  H   UNL     1      35.616 -17.892 -21.392  0.00  0.00    +0.144 HD
ATOM     25  H   UNL     1      35.087 -18.049 -19.820  0.00  0.00    +0.144 HD
ENDBRANCH  20  23
ENDBRANCH  15  20
ENDBRANCH   4  14
BRANCH   6  26
ATOM     26  O   UNL     1      33.569 -24.430 -14.367  0.00  0.00    -0.453 OA
BRANCH  26  27
ATOM     27  C   UNL     1      32.852 -23.766 -13.344  0.00  0.00    +0.208 C 
BRANCH  27  28
ATOM     28  C   UNL     1      31.381 -23.698 -13.749  0.00  0.00    +0.044 C 
ATOM     29  C   UNL     1      31.227 -23.035 -15.124  0.00  0.00    +0.004 C 
ATOM     30  C   UNL     1      30.752 -25.098 -13.743  0.00  0.00    +0.004 C 
ATOM     31  C   UNL     1      29.768 -23.004 -15.576  0.00  0.00    +0.000 C 
ATOM     32  C   UNL     1      29.294 -25.062 -14.196  0.00  0.00    +0.000 C 
ATOM     33  C   UNL     1      29.145 -24.396 -15.560  0.00  0.00    +0.000 C 
ENDBRANCH  27  28
ENDBRANCH  26  27
ENDBRANCH   6  26
TORSDOF 6
ENDMDL
MODEL 9
REMARK VINA RESULT:      -9.2     13.586     17.625
REMARK  Name = 4566
REMARK  6 active torsions:
REMARK  status: ('A' for Active; 'I' for Inactive)
REMARK    1  A    between atoms: N_4  and  C_14
REMARK    2  A    between atoms: C_6  and  O_26
REMARK    3  A    between atoms: C_15  and  S_20
REMARK    4  A    between atoms: S_20  and  N_23
REMARK    5  A    between atoms: O_26  and  C_27
REMARK    6  A    between atoms: C_27  and  C_28
REMARK                            x       y       z     vdW  Elec       q    Type
REMARK                         _______ _______ _______ _____ _____    ______ ____
ROOT
ATOM      1  N   UNL     1      32.688  -8.866 -22.405  0.00  0.00    -0.293 NA
ATOM      2  N   UNL     1      31.535 -10.925 -19.584  0.00  0.00    -0.266 NA
ATOM      3  N   UNL     1      32.710  -7.714 -20.255  0.00  0.00    -0.316 NA
ATOM      4  N   UNL     1      33.392  -6.641 -22.218  0.00  0.00    -0.238 N 
ATOM      5  N   UNL     1      31.945  -9.084 -18.397  0.00  0.00    -0.296 N 
ATOM      6  C   UNL     1      32.218 -10.001 -21.841  0.00  0.00    +0.288 C 
ATOM      7  C   UNL     1      31.991 -10.000 -20.480  0.00  0.00    +0.215 C 
ATOM      8  C   UNL     1      32.239  -8.866 -19.719  0.00  0.00    +0.196 C 
ATOM      9  C   UNL     1      32.901  -7.807 -21.588  0.00  0.00    +0.207 C 
ATOM     10  C   UNL     1      31.525 -10.330 -18.350  0.00  0.00    +0.164 C 
ATOM     11  H   UNL     1      31.263 -11.850 -19.787  0.00  0.00    +0.126 HD
ATOM     12  H   UNL     1      33.539  -5.888 -21.600  0.00  0.00    +0.166 HD
ATOM     13  H   UNL     1      32.031  -8.449 -17.649  0.00  0.00    +0.150 HD
ENDROOT
BRANCH   4  14
ATOM     14  C   UNL     1      33.713  -6.345 -23.554  0.00  0.00    +0.059 C 
ATOM     15  C   UNL     1      34.352  -5.760 -26.211  0.00  0.00    +0.122 C 
ATOM     16  C   UNL     1      32.700  -6.079 -24.477  0.00  0.00    +0.017 C 
ATOM     17  C   UNL     1      35.049  -6.319 -23.966  0.00  0.00    +0.017 C 
ATOM     18  C   UNL     1      33.018  -5.786 -25.804  0.00  0.00    +0.021 C 
ATOM     19  C   UNL     1      35.367  -6.026 -25.293  0.00  0.00    +0.021 C 
BRANCH  15  20
ATOM     20  S   UNL     1      34.751  -5.395 -27.871  0.00  0.00    +0.057 S 
ATOM     21  O   UNL     1      34.578  -3.964 -28.082  0.00  0.00    -0.153 OA
ATOM     22  O   UNL     1      36.025  -6.025 -28.189  0.00  0.00    -0.153 OA
BRANCH  20  23
ATOM     23  N   UNL     1      33.508  -6.228 -28.695  0.00  0.00    -0.203 NA
ATOM     24  H   UNL     1      32.757  -5.577 -28.927  0.00  0.00    +0.144 HD
ATOM     25  H   UNL     1      33.142  -6.970 -28.098  0.00  0.00    +0.144 HD
ENDBRANCH  20  23
ENDBRANCH  15  20
ENDBRANCH   4  14
BRANCH   6  26
ATOM     26  O   UNL     1      31.990 -11.093 -22.641  0.00  0.00    -0.453 OA
BRANCH  26  27
ATOM     27  C   UNL     1      33.068 -11.542 -23.440  0.00  0.00    +0.208 C 
BRANCH  27  28
ATOM     28  C   UNL     1      33.190 -13.056 -23.282  0.00  0.00    +0.044 C 
ATOM     29  C   UNL     1      33.388 -13.731 -24.645  0.00  0.00    +0.004 C 
ATOM     30  C   UNL     1      34.337 -13.410 -22.325  0.00  0.00    +0.004 C 
ATOM     31  C   UNL     1      33.567 -15.241 -24.508  0.00  0.00    +0.000 C 
ATOM     32  C   UNL     1      34.513 -14.921 -22.191  0.00  0.00    +0.000 C 
ATOM     33  C   UNL     1      34.702 -15.588 -23.550  0.00  0.00    +0.000 C 
ENDBRANCH  27  28
ENDBRANCH  26  27
ENDBRANCH   6  26
TORSDOF 6
ENDMDL
