MODEL 1
REMARK VINA RESULT:     -12.2      0.000      0.000
REMARK  Name = 6918314
REMARK  8 active torsions:
REMARK  status: ('A' for Active; 'I' for Inactive)
REMARK    1  A    between atoms: N_1  and  C_22
REMARK    2  A    between atoms: N_2  and  C_9
REMARK    3  A    between atoms: C_16  and  C_19
REMARK    4  A    between atoms: C_22  and  C_23
REMARK    5  A    between atoms: C_23  and  C_24
REMARK    6  A    between atoms: C_24  and  C_25
REMARK    7  A    between atoms: C_25  and  C_27
REMARK    8  A    between atoms: C_33  and  C_37
REMARK                            x       y       z     vdW  Elec       q    Type
REMARK                         _______ _______ _______ _____ _____    ______ ____
ROOT
ATOM      1  N   UNL     1      35.673 -16.874 -22.263  0.00  0.00    +0.389 N 
ATOM      2  N   UNL     1      33.967 -14.596 -22.029  0.00  0.00    -0.312 N 
ATOM      3  C   UNL     1      34.858 -16.438 -23.402  0.00  0.00    -0.055 C 
ATOM      4  C   UNL     1      34.963 -16.604 -21.008  0.00  0.00    -0.055 C 
ATOM      5  C   UNL     1      34.564 -14.938 -23.326  0.00  0.00    +0.068 C 
ATOM      6  C   UNL     1      34.671 -15.111 -20.851  0.00  0.00    +0.068 C 
ATOM      7  H   UNL     1      36.549 -16.350 -22.264  0.00  0.00    -0.080 HD
ENDROOT
BRANCH   2   9
ATOM      8  O   UNL     1      31.133  -9.857 -21.792  0.00  0.00    -0.449 OA
ATOM      9  C   UNL     1      33.233 -13.408 -21.936  0.00  0.00    +0.048 C 
ATOM     10  C   UNL     1      33.370 -12.400 -22.922  0.00  0.00    +0.018 C 
ATOM     11  C   UNL     1      32.345 -13.193 -20.859  0.00  0.00    +0.018 C 
ATOM     12  C   UNL     1      32.625 -11.212 -22.814  0.00  0.00    +0.039 C 
ATOM     13  C   UNL     1      31.767 -11.062 -21.730  0.00  0.00    +0.146 C 
ATOM     14  C   UNL     1      31.593 -12.020 -20.732  0.00  0.00    +0.039 C 
ATOM     15  C   UNL     1      32.497 -10.020 -23.575  0.00  0.00    +0.045 C 
ATOM     16  C   UNL     1      31.582  -9.234 -22.913  0.00  0.00    +0.198 C 
BRANCH  16  19
ATOM     17  O   UNL     1      30.659  -7.571 -24.339  0.00  0.00    -0.267 OA
ATOM     18  N   UNL     1      31.020  -6.991 -22.175  0.00  0.00    -0.323 N 
ATOM     19  C   UNL     1      31.066  -7.941 -23.208  0.00  0.00    +0.277 C 
ATOM     20  H   UNL     1      30.667  -6.089 -22.351  0.00  0.00    +0.145 HD
ATOM     21  H   UNL     1      31.341  -7.226 -21.275  0.00  0.00    +0.145 HD
ENDBRANCH  16  19
ENDBRANCH   2   9
BRANCH   1  22
ATOM     22  C   UNL     1      35.993 -18.297 -22.376  0.00  0.00    -0.077 C 
BRANCH  22  23
ATOM     23  C   UNL     1      36.292 -18.885 -20.998  0.00  0.00    -0.022 C 
BRANCH  23  24
ATOM     24  C   UNL     1      35.435 -20.122 -20.727  0.00  0.00    +0.003 C 
BRANCH  24  25
ATOM     25  C   UNL     1      35.982 -20.933 -19.548  0.00  0.00    +0.028 C 
BRANCH  25  27
ATOM     26  N   UNL     1      32.952 -22.531 -18.284  0.00  0.00    -0.312 N 
ATOM     27  C   UNL     1      34.900 -21.653 -18.800  0.00  0.00    -0.006 C 
ATOM     28  C   UNL     1      35.033 -22.249 -17.529  0.00  0.00    +0.011 C 
ATOM     29  C   UNL     1      33.626 -21.833 -19.249  0.00  0.00    +0.058 C 
ATOM     30  C   UNL     1      33.787 -22.800 -17.222  0.00  0.00    +0.048 C 
ATOM     31  C   UNL     1      36.082 -22.384 -16.598  0.00  0.00    +0.011 C 
ATOM     32  C   UNL     1      33.537 -23.480 -16.025  0.00  0.00    +0.015 C 
ATOM     33  C   UNL     1      35.846 -23.062 -15.397  0.00  0.00    +0.069 C 
ATOM     34  C   UNL     1      34.592 -23.601 -15.117  0.00  0.00    +0.012 C 
ATOM     35  H   UNL     1      32.008 -22.803 -18.340  0.00  0.00    +0.152 HD
BRANCH  33  37
ATOM     36  N   UNL     1      37.766 -23.315 -13.675  0.00  0.00    -0.191 NA
ATOM     37  C   UNL     1      36.906 -23.202 -14.447  0.00  0.00    +0.100 C 
ENDBRANCH  33  37
ENDBRANCH  25  27
ENDBRANCH  24  25
ENDBRANCH  23  24
ENDBRANCH  22  23
ENDBRANCH   1  22
TORSDOF 8
ENDMDL
MODEL 2
REMARK VINA RESULT:     -11.9      2.446      5.142
REMARK  Name = 6918314
REMARK  8 active torsions:
REMARK  status: ('A' for Active; 'I' for Inactive)
REMARK    1  A    between atoms: N_1  and  C_22
REMARK    2  A    between atoms: N_2  and  C_9
REMARK    3  A    between atoms: C_16  and  C_19
REMARK    4  A    between atoms: C_22  and  C_23
REMARK    5  A    between atoms: C_23  and  C_24
REMARK    6  A    between atoms: C_24  and  C_25
REMARK    7  A    between atoms: C_25  and  C_27
REMARK    8  A    between atoms: C_33  and  C_37
REMARK                            x       y       z     vdW  Elec       q    Type
REMARK                         _______ _______ _______ _____ _____    ______ ____
ROOT
ATOM      1  N   UNL     1      36.151 -21.091 -19.795  0.00  0.00    +0.389 N 
ATOM      2  N   UNL     1      35.491 -18.631 -21.087  0.00  0.00    -0.312 N 
ATOM      3  C   UNL     1      34.752 -20.665 -19.908  0.00  0.00    -0.055 C 
ATOM      4  C   UNL     1      37.020 -19.918 -19.648  0.00  0.00    -0.055 C 
ATOM      5  C   UNL     1      34.550 -19.757 -21.123  0.00  0.00    +0.068 C 
ATOM      6  C   UNL     1      36.894 -18.985 -20.854  0.00  0.00    +0.068 C 
ATOM      7  H   UNL     1      36.413 -21.590 -20.646  0.00  0.00    -0.080 HD
ENDROOT
BRANCH   2   9
ATOM      8  O   UNL     1      34.240 -14.037 -23.892  0.00  0.00    -0.449 OA
ATOM      9  C   UNL     1      35.177 -17.487 -21.831  0.00  0.00    +0.048 C 
ATOM     10  C   UNL     1      34.926 -16.254 -21.180  0.00  0.00    +0.018 C 
ATOM     11  C   UNL     1      35.102 -17.543 -23.241  0.00  0.00    +0.018 C 
ATOM     12  C   UNL     1      34.612 -15.114 -21.941  0.00  0.00    +0.039 C 
ATOM     13  C   UNL     1      34.556 -15.235 -23.326  0.00  0.00    +0.146 C 
ATOM     14  C   UNL     1      34.793 -16.422 -24.018  0.00  0.00    +0.039 C 
ATOM     15  C   UNL     1      34.311 -13.756 -21.660  0.00  0.00    +0.045 C 
ATOM     16  C   UNL     1      34.094 -13.147 -22.875  0.00  0.00    +0.198 C 
BRANCH  16  19
ATOM     17  O   UNL     1      32.660 -11.253 -22.943  0.00  0.00    -0.267 OA
ATOM     18  N   UNL     1      34.705 -11.034 -23.902  0.00  0.00    -0.323 N 
ATOM     19  C   UNL     1      33.759 -11.805 -23.208  0.00  0.00    +0.277 C 
ATOM     20  H   UNL     1      34.499 -10.103 -24.145  0.00  0.00    +0.145 HD
ATOM     21  H   UNL     1      35.575 -11.425 -24.146  0.00  0.00    +0.145 HD
ENDBRANCH  16  19
ENDBRANCH   2   9
BRANCH   1  22
ATOM     22  C   UNL     1      36.321 -22.001 -18.663  0.00  0.00    -0.077 C 
BRANCH  22  23
ATOM     23  C   UNL     1      36.782 -21.230 -17.427  0.00  0.00    -0.022 C 
BRANCH  23  24
ATOM     24  C   UNL     1      36.286 -21.896 -16.143  0.00  0.00    +0.003 C 
BRANCH  24  25
ATOM     25  C   UNL     1      35.058 -22.773 -16.407  0.00  0.00    +0.028 C 
BRANCH  25  27
ATOM     26  N   UNL     1      33.958 -23.768 -13.070  0.00  0.00    -0.312 N 
ATOM     27  C   UNL     1      34.341 -23.146 -15.144  0.00  0.00    -0.006 C 
ATOM     28  C   UNL     1      32.943 -23.184 -14.970  0.00  0.00    +0.011 C 
ATOM     29  C   UNL     1      34.949 -23.504 -13.978  0.00  0.00    +0.058 C 
ATOM     30  C   UNL     1      32.722 -23.579 -13.648  0.00  0.00    +0.048 C 
ATOM     31  C   UNL     1      31.830 -22.923 -15.794  0.00  0.00    +0.011 C 
ATOM     32  C   UNL     1      31.440 -23.729 -13.109  0.00  0.00    +0.015 C 
ATOM     33  C   UNL     1      30.541 -23.068 -15.267  0.00  0.00    +0.069 C 
ATOM     34  C   UNL     1      30.351 -23.465 -13.945  0.00  0.00    +0.012 C 
ATOM     35  H   UNL     1      34.107 -24.050 -12.139  0.00  0.00    +0.152 HD
BRANCH  33  37
ATOM     36  N   UNL     1      28.487 -22.593 -16.774  0.00  0.00    -0.191 NA
ATOM     37  C   UNL     1      29.407 -22.806 -16.098  0.00  0.00    +0.100 C 
ENDBRANCH  33  37
ENDBRANCH  25  27
ENDBRANCH  24  25
ENDBRANCH  23  24
ENDBRANCH  22  23
ENDBRANCH   1  22
TORSDOF 8
ENDMDL
MODEL 3
REMARK VINA RESULT:     -11.6      4.274     11.650
REMARK  Name = 6918314
REMARK  8 active torsions:
REMARK  status: ('A' for Active; 'I' for Inactive)
REMARK    1  A    between atoms: N_1  and  C_22
REMARK    2  A    between atoms: N_2  and  C_9
REMARK    3  A    between atoms: C_16  and  C_19
REMARK    4  A    between atoms: C_22  and  C_23
REMARK    5  A    between atoms: C_23  and  C_24
REMARK    6  A    between atoms: C_24  and  C_25
REMARK    7  A    between atoms: C_25  and  C_27
REMARK    8  A    between atoms: C_33  and  C_37
REMARK                            x       y       z     vdW  Elec       q    Type
REMARK                         _______ _______ _______ _____ _____    ______ ____
ROOT
ATOM      1  N   UNL     1      35.027 -17.090 -23.872  0.00  0.00    +0.389 N 
ATOM      2  N   UNL     1      35.015 -18.934 -21.691  0.00  0.00    -0.312 N 
ATOM      3  C   UNL     1      35.074 -16.603 -22.489  0.00  0.00    -0.055 C 
ATOM      4  C   UNL     1      34.227 -18.318 -23.942  0.00  0.00    -0.055 C 
ATOM      5  C   UNL     1      35.704 -17.644 -21.561  0.00  0.00    +0.068 C 
ATOM      6  C   UNL     1      34.827 -19.417 -23.063  0.00  0.00    +0.068 C 
ATOM      7  H   UNL     1      35.976 -17.298 -24.181  0.00  0.00    -0.080 HD
ENDROOT
BRANCH   2   9
ATOM      8  O   UNL     1      35.330 -22.571 -17.543  0.00  0.00    -0.449 OA
ATOM      9  C   UNL     1      35.133 -19.852 -20.641  0.00  0.00    +0.048 C 
ATOM     10  C   UNL     1      33.979 -20.434 -20.062  0.00  0.00    +0.018 C 
ATOM     11  C   UNL     1      36.404 -20.212 -20.140  0.00  0.00    +0.018 C 
ATOM     12  C   UNL     1      34.115 -21.355 -19.008  0.00  0.00    +0.039 C 
ATOM     13  C   UNL     1      35.394 -21.668 -18.561  0.00  0.00    +0.146 C 
ATOM     14  C   UNL     1      36.563 -21.126 -19.093  0.00  0.00    +0.039 C 
ATOM     15  C   UNL     1      33.228 -22.119 -18.205  0.00  0.00    +0.045 C 
ATOM     16  C   UNL     1      34.014 -22.838 -17.335  0.00  0.00    +0.198 C 
BRANCH  16  19
ATOM     17  O   UNL     1      34.487 -24.554 -15.761  0.00  0.00    -0.267 OA
ATOM     18  N   UNL     1      32.340 -23.826 -15.880  0.00  0.00    -0.323 N 
ATOM     19  C   UNL     1      33.677 -23.764 -16.308  0.00  0.00    +0.277 C 
ATOM     20  H   UNL     1      32.080 -24.458 -15.171  0.00  0.00    +0.145 HD
ATOM     21  H   UNL     1      31.665 -23.239 -16.289  0.00  0.00    +0.145 HD
ENDBRANCH  16  19
ENDBRANCH   2   9
BRANCH   1  22
ATOM     22  C   UNL     1      34.474 -16.066 -24.758  0.00  0.00    -0.077 C 
BRANCH  22  23
ATOM     23  C   UNL     1      34.416 -14.718 -24.041  0.00  0.00    -0.022 C 
BRANCH  23  24
ATOM     24  C   UNL     1      33.043 -14.063 -24.205  0.00  0.00    +0.003 C 
BRANCH  24  25
ATOM     25  C   UNL     1      33.041 -12.630 -23.664  0.00  0.00    +0.028 C 
BRANCH  25  27
ATOM     26  N   UNL     1      32.144 -13.166 -20.166  0.00  0.00    -0.312 N 
ATOM     27  C   UNL     1      32.635 -12.565 -22.223  0.00  0.00    -0.006 C 
ATOM     28  C   UNL     1      32.290 -11.395 -21.515  0.00  0.00    +0.011 C 
ATOM     29  C   UNL     1      32.542 -13.638 -21.388  0.00  0.00    +0.058 C 
ATOM     30  C   UNL     1      31.983 -11.799 -20.214  0.00  0.00    +0.048 C 
ATOM     31  C   UNL     1      32.204 -10.026 -21.838  0.00  0.00    +0.011 C 
ATOM     32  C   UNL     1      31.592 -10.899 -19.217  0.00  0.00    +0.015 C 
ATOM     33  C   UNL     1      31.814  -9.114 -20.850  0.00  0.00    +0.069 C 
ATOM     34  C   UNL     1      31.514  -9.546 -19.560  0.00  0.00    +0.012 C 
ATOM     35  H   UNL     1      31.995 -13.722 -19.367  0.00  0.00    +0.152 HD
BRANCH  33  37
ATOM     36  N   UNL     1      31.652  -6.595 -21.431  0.00  0.00    -0.191 NA
ATOM     37  C   UNL     1      31.724  -7.724 -21.171  0.00  0.00    +0.100 C 
ENDBRANCH  33  37
ENDBRANCH  25  27
ENDBRANCH  24  25
ENDBRANCH  23  24
ENDBRANCH  22  23
ENDBRANCH   1  22
TORSDOF 8
ENDMDL
MODEL 4
REMARK VINA RESULT:     -11.6      2.402      4.943
REMARK  Name = 6918314
REMARK  8 active torsions:
REMARK  status: ('A' for Active; 'I' for Inactive)
REMARK    1  A    between atoms: N_1  and  C_22
REMARK    2  A    between atoms: N_2  and  C_9
REMARK    3  A    between atoms: C_16  and  C_19
REMARK    4  A    between atoms: C_22  and  C_23
REMARK    5  A    between atoms: C_23  and  C_24
REMARK    6  A    between atoms: C_24  and  C_25
REMARK    7  A    between atoms: C_25  and  C_27
REMARK    8  A    between atoms: C_33  and  C_37
REMARK                            x       y       z     vdW  Elec       q    Type
REMARK                         _______ _______ _______ _____ _____    ______ ____
ROOT
ATOM      1  N   UNL     1      35.669 -21.137 -19.682  0.00  0.00    +0.389 N 
ATOM      2  N   UNL     1      35.217 -18.658 -21.026  0.00  0.00    -0.312 N 
ATOM      3  C   UNL     1      34.304 -20.627 -19.859  0.00  0.00    -0.055 C 
ATOM      4  C   UNL     1      36.601 -20.018 -19.508  0.00  0.00    -0.055 C 
ATOM      5  C   UNL     1      34.211 -19.725 -21.091  0.00  0.00    +0.068 C 
ATOM      6  C   UNL     1      36.585 -19.093 -20.728  0.00  0.00    +0.068 C 
ATOM      7  H   UNL     1      35.936 -21.661 -20.515  0.00  0.00    -0.080 HD
ENDROOT
BRANCH   2   9
ATOM      8  O   UNL     1      34.365 -14.033 -23.928  0.00  0.00    -0.449 OA
ATOM      9  C   UNL     1      35.006 -17.506 -21.794  0.00  0.00    +0.048 C 
ATOM     10  C   UNL     1      34.736 -16.265 -21.167  0.00  0.00    +0.018 C 
ATOM     11  C   UNL     1      35.058 -17.562 -23.204  0.00  0.00    +0.018 C 
ATOM     12  C   UNL     1      34.526 -15.117 -21.953  0.00  0.00    +0.039 C 
ATOM     13  C   UNL     1      34.592 -15.239 -23.337  0.00  0.00    +0.146 C 
ATOM     14  C   UNL     1      34.854 -16.434 -24.005  0.00  0.00    +0.039 C 
ATOM     15  C   UNL     1      34.242 -13.750 -21.699  0.00  0.00    +0.045 C 
ATOM     16  C   UNL     1      34.155 -13.137 -22.927  0.00  0.00    +0.198 C 
BRANCH  16  19
ATOM     17  O   UNL     1      32.800 -11.192 -23.097  0.00  0.00    -0.267 OA
ATOM     18  N   UNL     1      34.908 -11.056 -23.925  0.00  0.00    -0.323 N 
ATOM     19  C   UNL     1      33.891 -11.786 -23.288  0.00  0.00    +0.277 C 
ATOM     20  H   UNL     1      34.753 -10.120 -24.185  0.00  0.00    +0.145 HD
ATOM     21  H   UNL     1      35.776 -11.481 -24.111  0.00  0.00    +0.145 HD
ENDBRANCH  16  19
ENDBRANCH   2   9
BRANCH   1  22
ATOM     22  C   UNL     1      35.733 -22.041 -18.534  0.00  0.00    -0.077 C 
BRANCH  22  23
ATOM     23  C   UNL     1      34.325 -22.419 -18.076  0.00  0.00    -0.022 C 
BRANCH  23  24
ATOM     24  C   UNL     1      34.369 -23.321 -16.842  0.00  0.00    +0.003 C 
BRANCH  24  25
ATOM     25  C   UNL     1      35.290 -22.746 -15.762  0.00  0.00    +0.028 C 
BRANCH  25  27
ATOM     26  N   UNL     1      34.674 -24.616 -12.687  0.00  0.00    -0.312 N 
ATOM     27  C   UNL     1      35.314 -23.591 -14.523  0.00  0.00    -0.006 C 
ATOM     28  C   UNL     1      36.427 -24.301 -14.031  0.00  0.00    +0.011 C 
ATOM     29  C   UNL     1      34.250 -23.792 -13.694  0.00  0.00    +0.058 C 
ATOM     30  C   UNL     1      36.000 -24.944 -12.867  0.00  0.00    +0.048 C 
ATOM     31  C   UNL     1      37.762 -24.472 -14.448  0.00  0.00    +0.011 C 
ATOM     32  C   UNL     1      36.844 -25.750 -12.096  0.00  0.00    +0.015 C 
ATOM     33  C   UNL     1      38.618 -25.276 -13.686  0.00  0.00    +0.069 C 
ATOM     34  C   UNL     1      38.164 -25.905 -12.529  0.00  0.00    +0.012 C 
ATOM     35  H   UNL     1      34.113 -24.930 -11.941  0.00  0.00    +0.152 HD
BRANCH  33  37
ATOM     36  N   UNL     1      41.076 -25.596 -14.441  0.00  0.00    -0.191 NA
ATOM     37  C   UNL     1      39.975 -25.453 -14.103  0.00  0.00    +0.100 C 
ENDBRANCH  33  37
ENDBRANCH  25  27
ENDBRANCH  24  25
ENDBRANCH  23  24
ENDBRANCH  22  23
ENDBRANCH   1  22
TORSDOF 8
ENDMDL
MODEL 5
REMARK VINA RESULT:     -11.6      1.141      2.127
REMARK  Name = 6918314
REMARK  8 active torsions:
REMARK  status: ('A' for Active; 'I' for Inactive)
REMARK    1  A    between atoms: N_1  and  C_22
REMARK    2  A    between atoms: N_2  and  C_9
REMARK    3  A    between atoms: C_16  and  C_19
REMARK    4  A    between atoms: C_22  and  C_23
REMARK    5  A    between atoms: C_23  and  C_24
REMARK    6  A    between atoms: C_24  and  C_25
REMARK    7  A    between atoms: C_25  and  C_27
REMARK    8  A    between atoms: C_33  and  C_37
REMARK                            x       y       z     vdW  Elec       q    Type
REMARK                         _______ _______ _______ _____ _____    ______ ____
ROOT
ATOM      1  N   UNL     1      35.753 -17.168 -22.093  0.00  0.00    +0.389 N 
ATOM      2  N   UNL     1      34.076 -14.859 -21.979  0.00  0.00    -0.312 N 
ATOM      3  C   UNL     1      34.948 -16.777 -23.256  0.00  0.00    -0.055 C 
ATOM      4  C   UNL     1      35.041 -16.827 -20.856  0.00  0.00    -0.055 C 
ATOM      5  C   UNL     1      34.674 -15.272 -23.255  0.00  0.00    +0.068 C 
ATOM      6  C   UNL     1      34.768 -15.324 -20.774  0.00  0.00    +0.068 C 
ATOM      7  H   UNL     1      36.635 -16.656 -22.116  0.00  0.00    -0.080 HD
ENDROOT
BRANCH   2   9
ATOM      8  O   UNL     1      31.311 -10.074 -21.981  0.00  0.00    -0.449 OA
ATOM      9  C   UNL     1      33.356 -13.658 -21.948  0.00  0.00    +0.048 C 
ATOM     10  C   UNL     1      33.575 -12.664 -22.933  0.00  0.00    +0.018 C 
ATOM     11  C   UNL     1      32.403 -13.417 -20.934  0.00  0.00    +0.018 C 
ATOM     12  C   UNL     1      32.844 -11.464 -22.888  0.00  0.00    +0.039 C 
ATOM     13  C   UNL     1      31.919 -11.288 -21.864  0.00  0.00    +0.146 C 
ATOM     14  C   UNL     1      31.664 -12.231 -20.869  0.00  0.00    +0.039 C 
ATOM     15  C   UNL     1      32.786 -10.279 -23.668  0.00  0.00    +0.045 C 
ATOM     16  C   UNL     1      31.843  -9.471 -23.077  0.00  0.00    +0.198 C 
BRANCH  16  19
ATOM     17  O   UNL     1      31.221  -7.750 -24.593  0.00  0.00    -0.267 OA
ATOM     18  N   UNL     1      31.058  -7.282 -22.379  0.00  0.00    -0.323 N 
ATOM     19  C   UNL     1      31.368  -8.174 -23.419  0.00  0.00    +0.277 C 
ATOM     20  H   UNL     1      30.728  -6.379 -22.587  0.00  0.00    +0.145 HD
ATOM     21  H   UNL     1      31.171  -7.561 -21.442  0.00  0.00    +0.145 HD
ENDBRANCH  16  19
ENDBRANCH   2   9
BRANCH   1  22
ATOM     22  C   UNL     1      36.055 -18.598 -22.135  0.00  0.00    -0.077 C 
BRANCH  22  23
ATOM     23  C   UNL     1      35.042 -19.379 -21.300  0.00  0.00    -0.022 C 
BRANCH  23  24
ATOM     24  C   UNL     1      35.727 -20.475 -20.482  0.00  0.00    +0.003 C 
BRANCH  24  25
ATOM     25  C   UNL     1      34.713 -21.267 -19.650  0.00  0.00    +0.028 C 
BRANCH  25  27
ATOM     26  N   UNL     1      36.729 -22.203 -16.753  0.00  0.00    -0.312 N 
ATOM     27  C   UNL     1      35.292 -21.750 -18.354  0.00  0.00    -0.006 C 
ATOM     28  C   UNL     1      34.575 -22.371 -17.311  0.00  0.00    +0.011 C 
ATOM     29  C   UNL     1      36.605 -21.653 -18.001  0.00  0.00    +0.058 C 
ATOM     30  C   UNL     1      35.504 -22.649 -16.307  0.00  0.00    +0.048 C 
ATOM     31  C   UNL     1      33.228 -22.730 -17.107  0.00  0.00    +0.011 C 
ATOM     32  C   UNL     1      35.153 -23.273 -15.105  0.00  0.00    +0.015 C 
ATOM     33  C   UNL     1      32.862 -23.354 -15.908  0.00  0.00    +0.069 C 
ATOM     34  C   UNL     1      33.811 -23.620 -14.924  0.00  0.00    +0.012 C 
ATOM     35  H   UNL     1      37.571 -22.270 -16.247  0.00  0.00    +0.152 HD
BRANCH  33  37
ATOM     36  N   UNL     1      30.388 -24.021 -15.522  0.00  0.00    -0.191 NA
ATOM     37  C   UNL     1      31.496 -23.722 -15.695  0.00  0.00    +0.100 C 
ENDBRANCH  33  37
ENDBRANCH  25  27
ENDBRANCH  24  25
ENDBRANCH  23  24
ENDBRANCH  22  23
ENDBRANCH   1  22
TORSDOF 8
ENDMDL
MODEL 6
REMARK VINA RESULT:     -11.5      4.184     11.962
REMARK  Name = 6918314
REMARK  8 active torsions:
REMARK  status: ('A' for Active; 'I' for Inactive)
REMARK    1  A    between atoms: N_1  and  C_22
REMARK    2  A    between atoms: N_2  and  C_9
REMARK    3  A    between atoms: C_16  and  C_19
REMARK    4  A    between atoms: C_22  and  C_23
REMARK    5  A    between atoms: C_23  and  C_24
REMARK    6  A    between atoms: C_24  and  C_25
REMARK    7  A    between atoms: C_25  and  C_27
REMARK    8  A    between atoms: C_33  and  C_37
REMARK                            x       y       z     vdW  Elec       q    Type
REMARK                         _______ _______ _______ _____ _____    ______ ____
ROOT
ATOM      1  N   UNL     1      35.328 -17.113 -23.728  0.00  0.00    +0.389 N 
ATOM      2  N   UNL     1      34.895 -18.956 -21.590  0.00  0.00    -0.312 N 
ATOM      3  C   UNL     1      35.224 -16.633 -22.345  0.00  0.00    -0.055 C 
ATOM      4  C   UNL     1      34.460 -18.280 -23.918  0.00  0.00    -0.055 C 
ATOM      5  C   UNL     1      35.650 -17.719 -21.354  0.00  0.00    +0.068 C 
ATOM      6  C   UNL     1      34.859 -19.421 -22.980  0.00  0.00    +0.068 C 
ATOM      7  H   UNL     1      36.293 -17.387 -23.910  0.00  0.00    -0.080 HD
ENDROOT
BRANCH   2   9
ATOM      8  O   UNL     1      34.698 -22.590 -17.431  0.00  0.00    -0.449 OA
ATOM      9  C   UNL     1      34.808 -19.883 -20.544  0.00  0.00    +0.048 C 
ATOM     10  C   UNL     1      35.940 -20.172 -19.744  0.00  0.00    +0.018 C 
ATOM     11  C   UNL     1      33.591 -20.547 -20.271  0.00  0.00    +0.018 C 
ATOM     12  C   UNL     1      35.836 -21.105 -18.697  0.00  0.00    +0.039 C 
ATOM     13  C   UNL     1      34.609 -21.724 -18.479  0.00  0.00    +0.146 C 
ATOM     14  C   UNL     1      33.464 -21.478 -19.235  0.00  0.00    +0.039 C 
ATOM     15  C   UNL     1      36.715 -21.635 -17.717  0.00  0.00    +0.045 C 
ATOM     16  C   UNL     1      35.977 -22.529 -16.976  0.00  0.00    +0.198 C 
BRANCH  16  19
ATOM     17  O   UNL     1      35.526 -24.076 -15.230  0.00  0.00    -0.267 OA
ATOM     18  N   UNL     1      37.666 -23.351 -15.439  0.00  0.00    -0.323 N 
ATOM     19  C   UNL     1      36.330 -23.353 -15.871  0.00  0.00    +0.277 C 
ATOM     20  H   UNL     1      37.938 -23.911 -14.676  0.00  0.00    +0.145 HD
ATOM     21  H   UNL     1      38.331 -22.789 -15.898  0.00  0.00    +0.145 HD
ENDBRANCH  16  19
ENDBRANCH   2   9
BRANCH   1  22
ATOM     22  C   UNL     1      34.971 -16.050 -24.667  0.00  0.00    -0.077 C 
BRANCH  22  23
ATOM     23  C   UNL     1      33.452 -15.916 -24.766  0.00  0.00    -0.022 C 
BRANCH  23  24
ATOM     24  C   UNL     1      33.032 -14.449 -24.877  0.00  0.00    +0.003 C 
BRANCH  24  25
ATOM     25  C   UNL     1      33.826 -13.567 -23.909  0.00  0.00    +0.028 C 
BRANCH  25  27
ATOM     26  N   UNL     1      31.681 -12.684 -21.089  0.00  0.00    -0.312 N 
ATOM     27  C   UNL     1      32.953 -12.940 -22.863  0.00  0.00    -0.006 C 
ATOM     28  C   UNL     1      32.571 -11.583 -22.814  0.00  0.00    +0.011 C 
ATOM     29  C   UNL     1      32.404 -13.600 -21.805  0.00  0.00    +0.058 C 
ATOM     30  C   UNL     1      31.766 -11.444 -21.681  0.00  0.00    +0.048 C 
ATOM     31  C   UNL     1      32.822 -10.449 -23.611  0.00  0.00    +0.011 C 
ATOM     32  C   UNL     1      31.195 -10.222 -21.306  0.00  0.00    +0.015 C 
ATOM     33  C   UNL     1      32.258  -9.221 -23.248  0.00  0.00    +0.069 C 
ATOM     34  C   UNL     1      31.458  -9.111 -22.113  0.00  0.00    +0.012 C 
ATOM     35  H   UNL     1      31.175 -12.883 -20.268  0.00  0.00    +0.152 HD
BRANCH  33  37
ATOM     36  N   UNL     1      32.711  -7.128 -24.707  0.00  0.00    -0.191 NA
ATOM     37  C   UNL     1      32.508  -8.065 -24.054  0.00  0.00    +0.100 C 
ENDBRANCH  33  37
ENDBRANCH  25  27
ENDBRANCH  24  25
ENDBRANCH  23  24
ENDBRANCH  22  23
ENDBRANCH   1  22
TORSDOF 8
ENDMDL
MODEL 7
REMARK VINA RESULT:     -11.3      5.034     12.582
REMARK  Name = 6918314
REMARK  8 active torsions:
REMARK  status: ('A' for Active; 'I' for Inactive)
REMARK    1  A    between atoms: N_1  and  C_22
REMARK    2  A    between atoms: N_2  and  C_9
REMARK    3  A    between atoms: C_16  and  C_19
REMARK    4  A    between atoms: C_22  and  C_23
REMARK    5  A    between atoms: C_23  and  C_24
REMARK    6  A    between atoms: C_24  and  C_25
REMARK    7  A    between atoms: C_25  and  C_27
REMARK    8  A    between atoms: C_33  and  C_37
REMARK                            x       y       z     vdW  Elec       q    Type
REMARK                         _______ _______ _______ _____ _____    ______ ____
ROOT
ATOM      1  N   UNL     1      35.139 -20.456 -20.761  0.00  0.00    +0.389 N 
ATOM      2  N   UNL     1      35.115 -21.707 -18.194  0.00  0.00    -0.312 N 
ATOM      3  C   UNL     1      36.275 -20.295 -19.847  0.00  0.00    -0.055 C 
ATOM      4  C   UNL     1      33.892 -20.556 -19.995  0.00  0.00    -0.055 C 
ATOM      5  C   UNL     1      36.387 -21.486 -18.893  0.00  0.00    +0.068 C 
ATOM      6  C   UNL     1      33.923 -21.755 -19.046  0.00  0.00    +0.068 C 
ATOM      7  H   UNL     1      35.266 -21.315 -21.296  0.00  0.00    -0.080 HD
ENDROOT
BRANCH   2   9
ATOM      8  O   UNL     1      35.360 -24.501 -13.432  0.00  0.00    -0.449 OA
ATOM      9  C   UNL     1      35.141 -22.427 -16.993  0.00  0.00    +0.048 C 
ATOM     10  C   UNL     1      36.303 -22.432 -16.183  0.00  0.00    +0.018 C 
ATOM     11  C   UNL     1      34.011 -23.161 -16.570  0.00  0.00    +0.018 C 
ATOM     12  C   UNL     1      36.313 -23.160 -14.980  0.00  0.00    +0.039 C 
ATOM     13  C   UNL     1      35.167 -23.861 -14.619  0.00  0.00    +0.146 C 
ATOM     14  C   UNL     1      33.998 -23.892 -15.377  0.00  0.00    +0.039 C 
ATOM     15  C   UNL     1      37.252 -23.395 -13.943  0.00  0.00    +0.045 C 
ATOM     16  C   UNL     1      36.626 -24.213 -13.031  0.00  0.00    +0.198 C 
BRANCH  16  19
ATOM     17  O   UNL     1      36.635 -25.829 -11.289  0.00  0.00    -0.267 OA
ATOM     18  N   UNL     1      38.077 -24.088 -11.087  0.00  0.00    -0.323 N 
ATOM     19  C   UNL     1      37.078 -24.771 -11.802  0.00  0.00    +0.277 C 
ATOM     20  H   UNL     1      38.407 -24.452 -10.234  0.00  0.00    +0.145 HD
ATOM     21  H   UNL     1      38.445 -23.247 -11.440  0.00  0.00    +0.145 HD
ENDBRANCH  16  19
ENDBRANCH   2   9
BRANCH   1  22
ATOM     22  C   UNL     1      35.076 -19.338 -21.702  0.00  0.00    -0.077 C 
BRANCH  22  23
ATOM     23  C   UNL     1      35.446 -18.032 -21.001  0.00  0.00    -0.022 C 
BRANCH  23  24
ATOM     24  C   UNL     1      35.230 -16.830 -21.923  0.00  0.00    +0.003 C 
BRANCH  24  25
ATOM     25  C   UNL     1      34.708 -15.618 -21.145  0.00  0.00    +0.028 C 
BRANCH  25  27
ATOM     26  N   UNL     1      33.156 -13.664 -23.811  0.00  0.00    -0.312 N 
ATOM     27  C   UNL     1      33.978 -14.648 -22.026  0.00  0.00    -0.006 C 
ATOM     28  C   UNL     1      33.259 -13.517 -21.587  0.00  0.00    +0.011 C 
ATOM     29  C   UNL     1      33.907 -14.726 -23.384  0.00  0.00    +0.058 C 
ATOM     30  C   UNL     1      32.746 -12.909 -22.735  0.00  0.00    +0.048 C 
ATOM     31  C   UNL     1      32.984 -12.938 -20.332  0.00  0.00    +0.011 C 
ATOM     32  C   UNL     1      31.971 -11.745 -22.690  0.00  0.00    +0.015 C 
ATOM     33  C   UNL     1      32.209 -11.774 -20.273  0.00  0.00    +0.069 C 
ATOM     34  C   UNL     1      31.711 -11.188 -21.435  0.00  0.00    +0.012 C 
ATOM     35  H   UNL     1      32.940 -13.468 -24.752  0.00  0.00    +0.152 HD
BRANCH  33  37
ATOM     36  N   UNL     1      31.697 -10.699 -17.972  0.00  0.00    -0.191 NA
ATOM     37  C   UNL     1      31.927 -11.180 -19.003  0.00  0.00    +0.100 C 
ENDBRANCH  33  37
ENDBRANCH  25  27
ENDBRANCH  24  25
ENDBRANCH  23  24
ENDBRANCH  22  23
ENDBRANCH   1  22
TORSDOF 8
ENDMDL
MODEL 8
REMARK VINA RESULT:     -11.2      4.452     12.185
REMARK  Name = 6918314
REMARK  8 active torsions:
REMARK  status: ('A' for Active; 'I' for Inactive)
REMARK    1  A    between atoms: N_1  and  C_22
REMARK    2  A    between atoms: N_2  and  C_9
REMARK    3  A    between atoms: C_16  and  C_19
REMARK    4  A    between atoms: C_22  and  C_23
REMARK    5  A    between atoms: C_23  and  C_24
REMARK    6  A    between atoms: C_24  and  C_25
REMARK    7  A    between atoms: C_25  and  C_27
REMARK    8  A    between atoms: C_33  and  C_37
REMARK                            x       y       z     vdW  Elec       q    Type
REMARK                         _______ _______ _______ _____ _____    ______ ____
ROOT
ATOM      1  N   UNL     1      35.073 -18.237 -22.559  0.00  0.00    +0.389 N 
ATOM      2  N   UNL     1      35.288 -20.120 -20.423  0.00  0.00    -0.312 N 
ATOM      3  C   UNL     1      34.149 -19.374 -22.476  0.00  0.00    -0.055 C 
ATOM      4  C   UNL     1      36.390 -18.625 -22.041  0.00  0.00    -0.055 C 
ATOM      5  C   UNL     1      33.981 -19.842 -21.029  0.00  0.00    +0.068 C 
ATOM      6  C   UNL     1      36.298 -19.069 -20.579  0.00  0.00    +0.068 C 
ATOM      7  H   UNL     1      34.708 -17.473 -21.990  0.00  0.00    -0.080 HD
ENDROOT
BRANCH   2   9
ATOM      8  O   UNL     1      35.590 -23.390 -15.978  0.00  0.00    -0.449 OA
ATOM      9  C   UNL     1      35.329 -20.962 -19.304  0.00  0.00    +0.048 C 
ATOM     10  C   UNL     1      36.478 -21.002 -18.477  0.00  0.00    +0.018 C 
ATOM     11  C   UNL     1      34.227 -21.785 -18.983  0.00  0.00    +0.018 C 
ATOM     12  C   UNL     1      36.503 -21.852 -17.357  0.00  0.00    +0.039 C 
ATOM     13  C   UNL     1      35.385 -22.637 -17.095  0.00  0.00    +0.146 C 
ATOM     14  C   UNL     1      34.229 -22.638 -17.874  0.00  0.00    +0.039 C 
ATOM     15  C   UNL     1      37.437 -22.155 -16.332  0.00  0.00    +0.045 C 
ATOM     16  C   UNL     1      36.835 -23.091 -15.523  0.00  0.00    +0.198 C 
BRANCH  16  19
ATOM     17  O   UNL     1      37.736 -23.179 -13.326  0.00  0.00    -0.267 OA
ATOM     18  N   UNL     1      37.276 -25.160 -14.333  0.00  0.00    -0.323 N 
ATOM     19  C   UNL     1      37.293 -23.756 -14.352  0.00  0.00    +0.277 C 
ATOM     20  H   UNL     1      37.588 -25.645 -13.535  0.00  0.00    +0.145 HD
ATOM     21  H   UNL     1      36.954 -25.659 -15.117  0.00  0.00    +0.145 HD
ENDBRANCH  16  19
ENDBRANCH   2   9
BRANCH   1  22
ATOM     22  C   UNL     1      35.184 -17.765 -23.939  0.00  0.00    -0.077 C 
BRANCH  22  23
ATOM     23  C   UNL     1      34.503 -16.405 -24.090  0.00  0.00    -0.022 C 
BRANCH  23  24
ATOM     24  C   UNL     1      34.713 -15.540 -22.847  0.00  0.00    +0.003 C 
BRANCH  24  25
ATOM     25  C   UNL     1      34.372 -14.073 -23.124  0.00  0.00    +0.028 C 
BRANCH  25  27
ATOM     26  N   UNL     1      32.059 -13.340 -20.394  0.00  0.00    -0.312 N 
ATOM     27  C   UNL     1      33.381 -13.523 -22.141  0.00  0.00    -0.006 C 
ATOM     28  C   UNL     1      32.746 -12.267 -22.226  0.00  0.00    +0.011 C 
ATOM     29  C   UNL     1      32.954 -14.167 -21.019  0.00  0.00    +0.058 C 
ATOM     30  C   UNL     1      31.913 -12.172 -21.109  0.00  0.00    +0.048 C 
ATOM     31  C   UNL     1      32.786 -11.191 -23.136  0.00  0.00    +0.011 C 
ATOM     32  C   UNL     1      31.115 -11.051 -20.856  0.00  0.00    +0.015 C 
ATOM     33  C   UNL     1      31.993 -10.063 -22.894  0.00  0.00    +0.069 C 
ATOM     34  C   UNL     1      31.171  -9.996 -21.771  0.00  0.00    +0.012 C 
ATOM     35  H   UNL     1      31.588 -13.549 -19.555  0.00  0.00    +0.152 HD
BRANCH  33  37
ATOM     36  N   UNL     1      32.057  -8.080 -24.560  0.00  0.00    -0.191 NA
ATOM     37  C   UNL     1      32.028  -8.968 -23.814  0.00  0.00    +0.100 C 
ENDBRANCH  33  37
ENDBRANCH  25  27
ENDBRANCH  24  25
ENDBRANCH  23  24
ENDBRANCH  22  23
ENDBRANCH   1  22
TORSDOF 8
ENDMDL
MODEL 9
REMARK VINA RESULT:     -11.2      4.920     12.054
REMARK  Name = 6918314
REMARK  8 active torsions:
REMARK  status: ('A' for Active; 'I' for Inactive)
REMARK    1  A    between atoms: N_1  and  C_22
REMARK    2  A    between atoms: N_2  and  C_9
REMARK    3  A    between atoms: C_16  and  C_19
REMARK    4  A    between atoms: C_22  and  C_23
REMARK    5  A    between atoms: C_23  and  C_24
REMARK    6  A    between atoms: C_24  and  C_25
REMARK    7  A    between atoms: C_25  and  C_27
REMARK    8  A    between atoms: C_33  and  C_37
REMARK                            x       y       z     vdW  Elec       q    Type
REMARK                         _______ _______ _______ _____ _____    ______ ____
ROOT
ATOM      1  N   UNL     1      35.239 -20.127 -21.148  0.00  0.00    +0.389 N 
ATOM      2  N   UNL     1      34.441 -21.423 -18.732  0.00  0.00    -0.312 N 
ATOM      3  C   UNL     1      36.191 -20.287 -20.043  0.00  0.00    -0.055 C 
ATOM      4  C   UNL     1      33.884 -19.939 -20.618  0.00  0.00    -0.055 C 
ATOM      5  C   UNL     1      35.835 -21.502 -19.183  0.00  0.00    +0.068 C 
ATOM      6  C   UNL     1      33.451 -21.141 -19.776  0.00  0.00    +0.068 C 
ATOM      7  H   UNL     1      35.253 -20.971 -21.721  0.00  0.00    -0.080 HD
ENDROOT
BRANCH   2   9
ATOM      8  O   UNL     1      32.833 -24.354 -14.331  0.00  0.00    -0.449 OA
ATOM      9  C   UNL     1      34.070 -22.169 -17.606  0.00  0.00    +0.048 C 
ATOM     10  C   UNL     1      32.707 -22.460 -17.354  0.00  0.00    +0.018 C 
ATOM     11  C   UNL     1      35.048 -22.641 -16.703  0.00  0.00    +0.018 C 
ATOM     12  C   UNL     1      32.352 -23.210 -16.219  0.00  0.00    +0.039 C 
ATOM     13  C   UNL     1      33.362 -23.647 -15.369  0.00  0.00    +0.146 C 
ATOM     14  C   UNL     1      34.718 -23.390 -15.568  0.00  0.00    +0.039 C 
ATOM     15  C   UNL     1      31.140 -23.685 -15.654  0.00  0.00    +0.045 C 
ATOM     16  C   UNL     1      31.486 -24.371 -14.513  0.00  0.00    +0.198 C 
BRANCH  16  19
ATOM     17  O   UNL     1      30.956 -25.123 -12.322  0.00  0.00    -0.267 OA
ATOM     18  N   UNL     1      29.542 -25.729 -13.990  0.00  0.00    -0.323 N 
ATOM     19  C   UNL     1      30.693 -25.056 -13.549  0.00  0.00    +0.277 C 
ATOM     20  H   UNL     1      28.976 -26.211 -13.345  0.00  0.00    +0.145 HD
ATOM     21  H   UNL     1      29.302 -25.719 -14.945  0.00  0.00    +0.145 HD
ENDBRANCH  16  19
ENDBRANCH   2   9
BRANCH   1  22
ATOM     22  C   UNL     1      35.620 -18.996 -21.994  0.00  0.00    -0.077 C 
BRANCH  22  23
ATOM     23  C   UNL     1      35.653 -17.707 -21.174  0.00  0.00    -0.022 C 
BRANCH  23  24
ATOM     24  C   UNL     1      35.316 -16.492 -22.039  0.00  0.00    +0.003 C 
BRANCH  24  25
ATOM     25  C   UNL     1      34.708 -15.362 -21.203  0.00  0.00    +0.028 C 
BRANCH  25  27
ATOM     26  N   UNL     1      32.839 -13.516 -23.739  0.00  0.00    -0.312 N 
ATOM     27  C   UNL     1      33.856 -14.440 -22.023  0.00  0.00    -0.006 C 
ATOM     28  C   UNL     1      33.113 -13.347 -21.531  0.00  0.00    +0.011 C 
ATOM     29  C   UNL     1      33.680 -14.532 -23.372  0.00  0.00    +0.058 C 
ATOM     30  C   UNL     1      32.476 -12.776 -22.635  0.00  0.00    +0.048 C 
ATOM     31  C   UNL     1      32.909 -12.775 -20.260  0.00  0.00    +0.011 C 
ATOM     32  C   UNL     1      31.644 -11.657 -22.531  0.00  0.00    +0.015 C 
ATOM     33  C   UNL     1      32.078 -11.656 -20.141  0.00  0.00    +0.069 C 
ATOM     34  C   UNL     1      31.455 -11.107 -21.260  0.00  0.00    +0.012 C 
ATOM     35  H   UNL     1      32.537 -13.339 -24.659  0.00  0.00    +0.152 HD
BRANCH  33  37
ATOM     36  N   UNL     1      31.696 -10.593 -17.808  0.00  0.00    -0.191 NA
ATOM     37  C   UNL     1      31.866 -11.069 -18.853  0.00  0.00    +0.100 C 
ENDBRANCH  33  37
ENDBRANCH  25  27
ENDBRANCH  24  25
ENDBRANCH  23  24
ENDBRANCH  22  23
ENDBRANCH   1  22
TORSDOF 8
ENDMDL
