MODEL 1
REMARK VINA RESULT:     -13.3      0.000      0.000
REMARK  Name = 4369496
REMARK  6 active torsions:
REMARK  status: ('A' for Active; 'I' for Inactive)
REMARK    1  A    between atoms: N_2  and  C_21
REMARK    2  A    between atoms: C_3  and  C_10
REMARK    3  A    between atoms: C_5  and  C_11
REMARK    4  A    between atoms: C_11  and  N_12
REMARK    5  A    between atoms: C_23  and  N_27
REMARK    6  A    between atoms: C_31  and  C_36
REMARK                            x       y       z     vdW  Elec       q    Type
REMARK                         _______ _______ _______ _____ _____    ______ ____
ROOT
ATOM      1  O   UNL     1      36.626 -18.179 -20.590  0.00  0.00    -0.270 OA
ATOM      2  N   UNL     1      34.450 -19.027 -20.807  0.00  0.00    -0.280 N 
ATOM      3  C   UNL     1      35.466 -18.086 -21.023  0.00  0.00    +0.249 C 
ATOM      4  H   UNL     1      33.579 -18.816 -21.214  0.00  0.00    +0.155 HD
ENDROOT
BRANCH   3  10
ATOM      5  C   UNL     1      34.373 -14.670 -23.264  0.00  0.00    -0.043 C 
ATOM      6  C   UNL     1      34.518 -14.567 -21.889  0.00  0.00    -0.006 C 
ATOM      7  C   UNL     1      34.581 -15.877 -23.917  0.00  0.00    -0.006 C 
ATOM      8  C   UNL     1      34.880 -15.693 -21.149  0.00  0.00    +0.004 C 
ATOM      9  C   UNL     1      34.943 -17.003 -23.178  0.00  0.00    +0.004 C 
ATOM     10  C   UNL     1      35.092 -16.912 -21.794  0.00  0.00    +0.054 C 
BRANCH   5  11
ATOM     11  C   UNL     1      33.984 -13.454 -24.063  0.00  0.00    -0.050 C 
BRANCH  11  12
ATOM     12  N   UNL     1      33.566 -12.349 -23.203  0.00  0.00    +0.387 N 
ATOM     13  N   UNL     1      31.884 -10.091 -22.545  0.00  0.00    +0.383 N 
ATOM     14  C   UNL     1      32.182 -12.536 -22.750  0.00  0.00    -0.100 C 
ATOM     15  C   UNL     1      33.707 -11.065 -23.899  0.00  0.00    -0.100 C 
ATOM     16  C   UNL     1      31.742 -11.377 -21.850  0.00  0.00    -0.101 C 
ATOM     17  C   UNL     1      33.268  -9.904 -23.000  0.00  0.00    -0.101 C 
ATOM     18  C   UNL     1      31.467  -8.987 -21.684  0.00  0.00    -0.101 C 
ATOM     19  H   UNL     1      34.173 -12.340 -22.385  0.00  0.00    -0.079 HD
ATOM     20  H   UNL     1      31.275 -10.099 -23.364  0.00  0.00    -0.080 HD
ENDBRANCH  11  12
ENDBRANCH   5  11
ENDBRANCH   3  10
BRANCH   2  21
ATOM     21  C   UNL     1      34.511 -20.242 -20.082  0.00  0.00    +0.052 C 
ATOM     22  C   UNL     1      33.390 -20.677 -19.395  0.00  0.00    +0.030 C 
ATOM     23  C   UNL     1      33.452 -21.873 -18.679  0.00  0.00    +0.059 C 
ATOM     24  C   UNL     1      35.691 -20.966 -20.076  0.00  0.00    +0.015 C 
ATOM     25  C   UNL     1      34.633 -22.615 -18.662  0.00  0.00    +0.015 C 
ATOM     26  C   UNL     1      35.752 -22.162 -19.360  0.00  0.00    +0.003 C 
BRANCH  23  27
ATOM     27  N   UNL     1      32.319 -22.332 -17.974  0.00  0.00    -0.247 N 
ATOM     28  N   UNL     1      33.267 -23.011 -15.938  0.00  0.00    -0.337 NA
ATOM     29  N   UNL     1      30.899 -23.219 -16.332  0.00  0.00    -0.170 NA
ATOM     30  C   UNL     1      32.154 -22.880 -16.688  0.00  0.00    +0.149 C 
ATOM     31  C   UNL     1      33.071 -23.539 -14.712  0.00  0.00    +0.147 C 
ATOM     32  C   UNL     1      31.837 -23.924 -14.231  0.00  0.00    +0.055 C 
ATOM     33  C   UNL     1      30.776 -23.740 -15.093  0.00  0.00    +0.114 C 
ATOM     34  H   UNL     1      31.480 -22.255 -18.483  0.00  0.00    +0.165 HD
BRANCH  31  36
ATOM     35  N   UNL     1      35.299 -24.470 -11.872  0.00  0.00    -0.242 NA
ATOM     36  C   UNL     1      34.262 -23.679 -13.908  0.00  0.00    +0.050 C 
ATOM     37  C   UNL     1      35.487 -23.190 -14.350  0.00  0.00    +0.006 C 
ATOM     38  C   UNL     1      34.222 -24.305 -12.673  0.00  0.00    +0.101 C 
ATOM     39  C   UNL     1      36.617 -23.340 -13.553  0.00  0.00    +0.021 C 
ATOM     40  C   UNL     1      36.471 -23.982 -12.334  0.00  0.00    +0.099 C 
ENDBRANCH  31  36
ENDBRANCH  23  27
ENDBRANCH   2  21
TORSDOF 6
ENDMDL
MODEL 2
REMARK VINA RESULT:     -12.7      2.913      5.807
REMARK  Name = 4369496
REMARK  6 active torsions:
REMARK  status: ('A' for Active; 'I' for Inactive)
REMARK    1  A    between atoms: N_2  and  C_21
REMARK    2  A    between atoms: C_3  and  C_10
REMARK    3  A    between atoms: C_5  and  C_11
REMARK    4  A    between atoms: C_11  and  N_12
REMARK    5  A    between atoms: C_23  and  N_27
REMARK    6  A    between atoms: C_31  and  C_36
REMARK                            x       y       z     vdW  Elec       q    Type
REMARK                         _______ _______ _______ _____ _____    ______ ____
ROOT
ATOM      1  O   UNL     1      33.814 -23.868 -18.659  0.00  0.00    -0.270 OA
ATOM      2  N   UNL     1      33.494 -22.309 -16.935  0.00  0.00    -0.280 N 
ATOM      3  C   UNL     1      33.906 -22.713 -18.213  0.00  0.00    +0.249 C 
ATOM      4  H   UNL     1      33.632 -21.358 -16.722  0.00  0.00    +0.155 HD
ENDROOT
BRANCH   3  10
ATOM      5  C   UNL     1      35.651 -19.707 -20.623  0.00  0.00    -0.043 C 
ATOM      6  C   UNL     1      36.465 -20.517 -19.844  0.00  0.00    -0.006 C 
ATOM      7  C   UNL     1      34.272 -19.868 -20.624  0.00  0.00    -0.006 C 
ATOM      8  C   UNL     1      35.890 -21.508 -19.050  0.00  0.00    +0.004 C 
ATOM      9  C   UNL     1      33.697 -20.860 -19.830  0.00  0.00    +0.004 C 
ATOM     10  C   UNL     1      34.506 -21.680 -19.042  0.00  0.00    +0.054 C 
BRANCH   5  11
ATOM     11  C   UNL     1      36.271 -18.637 -21.482  0.00  0.00    -0.050 C 
BRANCH  11  12
ATOM     12  N   UNL     1      35.263 -17.885 -22.227  0.00  0.00    +0.387 N 
ATOM     13  N   UNL     1      34.420 -16.099 -24.339  0.00  0.00    +0.383 N 
ATOM     14  C   UNL     1      35.207 -18.331 -23.624  0.00  0.00    -0.100 C 
ATOM     15  C   UNL     1      35.534 -16.444 -22.160  0.00  0.00    -0.100 C 
ATOM     16  C   UNL     1      34.152 -17.541 -24.406  0.00  0.00    -0.101 C 
ATOM     17  C   UNL     1      34.478 -15.653 -22.941  0.00  0.00    -0.101 C 
ATOM     18  C   UNL     1      33.411 -15.348 -25.082  0.00  0.00    -0.101 C 
ATOM     19  H   UNL     1      34.356 -18.062 -21.796  0.00  0.00    -0.079 HD
ATOM     20  H   UNL     1      35.328 -15.921 -24.771  0.00  0.00    -0.080 HD
ENDBRANCH  11  12
ENDBRANCH   5  11
ENDBRANCH   3  10
BRANCH   2  21
ATOM     21  C   UNL     1      32.906 -23.090 -15.909  0.00  0.00    +0.052 C 
ATOM     22  C   UNL     1      33.459 -23.067 -14.640  0.00  0.00    +0.030 C 
ATOM     23  C   UNL     1      32.881 -23.838 -13.631  0.00  0.00    +0.059 C 
ATOM     24  C   UNL     1      31.793 -23.859 -16.201  0.00  0.00    +0.015 C 
ATOM     25  C   UNL     1      31.758 -24.618 -13.907  0.00  0.00    +0.015 C 
ATOM     26  C   UNL     1      31.214 -24.629 -15.191  0.00  0.00    +0.003 C 
BRANCH  23  27
ATOM     27  N   UNL     1      33.431 -23.825 -12.332  0.00  0.00    -0.247 N 
ATOM     28  N   UNL     1      35.699 -24.236 -12.770  0.00  0.00    -0.337 NA
ATOM     29  N   UNL     1      34.909 -23.929 -10.514  0.00  0.00    -0.170 NA
ATOM     30  C   UNL     1      34.741 -24.005 -11.850  0.00  0.00    +0.149 C 
ATOM     31  C   UNL     1      36.942 -24.403 -12.272  0.00  0.00    +0.147 C 
ATOM     32  C   UNL     1      37.243 -24.347 -10.926  0.00  0.00    +0.055 C 
ATOM     33  C   UNL     1      36.177 -24.105 -10.085  0.00  0.00    +0.114 C 
ATOM     34  H   UNL     1      32.767 -23.659 -11.624  0.00  0.00    +0.165 HD
BRANCH  31  36
ATOM     35  N   UNL     1      39.056 -23.994 -15.314  0.00  0.00    -0.242 NA
ATOM     36  C   UNL     1      37.968 -24.649 -13.256  0.00  0.00    +0.050 C 
ATOM     37  C   UNL     1      38.840 -25.726 -13.130  0.00  0.00    +0.006 C 
ATOM     38  C   UNL     1      38.117 -23.821 -14.357  0.00  0.00    +0.101 C 
ATOM     39  C   UNL     1      39.819 -25.937 -14.096  0.00  0.00    +0.021 C 
ATOM     40  C   UNL     1      39.884 -25.050 -15.158  0.00  0.00    +0.099 C 
ENDBRANCH  31  36
ENDBRANCH  23  27
ENDBRANCH   2  21
TORSDOF 6
ENDMDL
MODEL 3
REMARK VINA RESULT:     -11.6      2.157     12.930
REMARK  Name = 4369496
REMARK  6 active torsions:
REMARK  status: ('A' for Active; 'I' for Inactive)
REMARK    1  A    between atoms: N_2  and  C_21
REMARK    2  A    between atoms: C_3  and  C_10
REMARK    3  A    between atoms: C_5  and  C_11
REMARK    4  A    between atoms: C_11  and  N_12
REMARK    5  A    between atoms: C_23  and  N_27
REMARK    6  A    between atoms: C_31  and  C_36
REMARK                            x       y       z     vdW  Elec       q    Type
REMARK                         _______ _______ _______ _____ _____    ______ ____
ROOT
ATOM      1  O   UNL     1      35.102 -17.113 -23.506  0.00  0.00    -0.270 OA
ATOM      2  N   UNL     1      34.534 -15.951 -21.549  0.00  0.00    -0.280 N 
ATOM      3  C   UNL     1      35.009 -17.056 -22.270  0.00  0.00    +0.249 C 
ATOM      4  H   UNL     1      34.518 -16.054 -20.570  0.00  0.00    +0.155 HD
ENDROOT
BRANCH   3  10
ATOM      5  C   UNL     1      36.120 -20.427 -19.970  0.00  0.00    -0.043 C 
ATOM      6  C   UNL     1      37.092 -19.521 -20.367  0.00  0.00    -0.006 C 
ATOM      7  C   UNL     1      34.788 -20.244 -20.315  0.00  0.00    -0.006 C 
ATOM      8  C   UNL     1      36.726 -18.409 -21.125  0.00  0.00    +0.004 C 
ATOM      9  C   UNL     1      34.422 -19.132 -21.072  0.00  0.00    +0.004 C 
ATOM     10  C   UNL     1      35.391 -18.214 -21.478  0.00  0.00    +0.054 C 
BRANCH   5  11
ATOM     11  C   UNL     1      36.514 -21.628 -19.150  0.00  0.00    -0.050 C 
BRANCH  11  12
ATOM     12  N   UNL     1      35.654 -21.794 -17.980  0.00  0.00    +0.387 N 
ATOM     13  N   UNL     1      34.498 -23.347 -15.833  0.00  0.00    +0.383 N 
ATOM     14  C   UNL     1      36.444 -22.172 -16.803  0.00  0.00    -0.100 C 
ATOM     15  C   UNL     1      34.611 -22.793 -18.239  0.00  0.00    -0.100 C 
ATOM     16  C   UNL     1      35.543 -22.349 -15.576  0.00  0.00    -0.101 C 
ATOM     17  C   UNL     1      33.708 -22.971 -17.013  0.00  0.00    -0.101 C 
ATOM     18  C   UNL     1      33.638 -23.512 -14.664  0.00  0.00    -0.101 C 
ATOM     19  H   UNL     1      35.204 -20.900 -17.791  0.00  0.00    -0.079 HD
ATOM     20  H   UNL     1      34.949 -24.244 -16.021  0.00  0.00    -0.080 HD
ENDBRANCH  11  12
ENDBRANCH   5  11
ENDBRANCH   3  10
BRANCH   2  21
ATOM     21  C   UNL     1      34.072 -14.707 -22.044  0.00  0.00    +0.052 C 
ATOM     22  C   UNL     1      33.408 -13.844 -21.190  0.00  0.00    +0.030 C 
ATOM     23  C   UNL     1      32.952 -12.619 -21.679  0.00  0.00    +0.059 C 
ATOM     24  C   UNL     1      34.295 -14.384 -23.371  0.00  0.00    +0.015 C 
ATOM     25  C   UNL     1      33.168 -12.277 -23.013  0.00  0.00    +0.015 C 
ATOM     26  C   UNL     1      33.840 -13.159 -23.860  0.00  0.00    +0.003 C 
BRANCH  23  27
ATOM     27  N   UNL     1      32.274 -11.726 -20.822  0.00  0.00    -0.247 N 
ATOM     28  N   UNL     1      32.823  -9.649 -21.767  0.00  0.00    -0.337 NA
ATOM     29  N   UNL     1      31.422  -9.788 -19.811  0.00  0.00    -0.170 NA
ATOM     30  C   UNL     1      32.169 -10.322 -20.799  0.00  0.00    +0.149 C 
ATOM     31  C   UNL     1      32.699  -8.307 -21.714  0.00  0.00    +0.147 C 
ATOM     32  C   UNL     1      31.964  -7.642 -20.755  0.00  0.00    +0.055 C 
ATOM     33  C   UNL     1      31.341  -8.441 -19.819  0.00  0.00    +0.114 C 
ATOM     34  H   UNL     1      31.779 -12.172 -20.097  0.00  0.00    +0.165 HD
BRANCH  31  36
ATOM     35  N   UNL     1      33.329  -6.444 -24.881  0.00  0.00    -0.242 NA
ATOM     36  C   UNL     1      33.399  -7.586 -22.750  0.00  0.00    +0.050 C 
ATOM     37  C   UNL     1      34.763  -7.332 -22.652  0.00  0.00    +0.006 C 
ATOM     38  C   UNL     1      32.735  -7.125 -23.875  0.00  0.00    +0.101 C 
ATOM     39  C   UNL     1      35.410  -6.635 -23.667  0.00  0.00    +0.021 C 
ATOM     40  C   UNL     1      34.655  -6.217 -24.749  0.00  0.00    +0.099 C 
ENDBRANCH  31  36
ENDBRANCH  23  27
ENDBRANCH   2  21
TORSDOF 6
ENDMDL
MODEL 4
REMARK VINA RESULT:     -11.2      3.179     14.301
REMARK  Name = 4369496
REMARK  6 active torsions:
REMARK  status: ('A' for Active; 'I' for Inactive)
REMARK    1  A    between atoms: N_2  and  C_21
REMARK    2  A    between atoms: C_3  and  C_10
REMARK    3  A    between atoms: C_5  and  C_11
REMARK    4  A    between atoms: C_11  and  N_12
REMARK    5  A    between atoms: C_23  and  N_27
REMARK    6  A    between atoms: C_31  and  C_36
REMARK                            x       y       z     vdW  Elec       q    Type
REMARK                         _______ _______ _______ _____ _____    ______ ____
ROOT
ATOM      1  O   UNL     1      33.623 -13.997 -24.497  0.00  0.00    -0.270 OA
ATOM      2  N   UNL     1      33.613 -13.148 -22.310  0.00  0.00    -0.280 N 
ATOM      3  C   UNL     1      33.869 -14.121 -23.286  0.00  0.00    +0.249 C 
ATOM      4  H   UNL     1      33.863 -13.391 -21.390  0.00  0.00    +0.155 HD
ENDROOT
BRANCH   3  10
ATOM      5  C   UNL     1      35.545 -17.744 -21.888  0.00  0.00    -0.043 C 
ATOM      6  C   UNL     1      35.306 -16.712 -20.993  0.00  0.00    -0.006 C 
ATOM      7  C   UNL     1      35.242 -17.607 -23.236  0.00  0.00    -0.006 C 
ATOM      8  C   UNL     1      34.752 -15.517 -21.454  0.00  0.00    +0.004 C 
ATOM      9  C   UNL     1      34.688 -16.412 -23.696  0.00  0.00    +0.004 C 
ATOM     10  C   UNL     1      34.444 -15.367 -22.806  0.00  0.00    +0.054 C 
BRANCH   5  11
ATOM     11  C   UNL     1      36.141 -19.035 -21.391  0.00  0.00    -0.050 C 
BRANCH  11  12
ATOM     12  N   UNL     1      35.341 -19.627 -20.321  0.00  0.00    +0.387 N 
ATOM     13  N   UNL     1      33.873 -21.799 -19.101  0.00  0.00    +0.383 N 
ATOM     14  C   UNL     1      36.034 -20.775 -19.726  0.00  0.00    -0.100 C 
ATOM     15  C   UNL     1      34.019 -20.028 -20.819  0.00  0.00    -0.100 C 
ATOM     16  C   UNL     1      35.195 -21.399 -18.605  0.00  0.00    -0.101 C 
ATOM     17  C   UNL     1      33.179 -20.651 -19.698  0.00  0.00    -0.101 C 
ATOM     18  C   UNL     1      33.073 -22.390 -18.031  0.00  0.00    -0.101 C 
ATOM     19  H   UNL     1      35.211 -18.921 -19.597  0.00  0.00    -0.079 HD
ATOM     20  H   UNL     1      34.003 -22.508 -19.825  0.00  0.00    -0.080 HD
ENDBRANCH  11  12
ENDBRANCH   5  11
ENDBRANCH   3  10
BRANCH   2  21
ATOM     21  C   UNL     1      33.041 -11.862 -22.474  0.00  0.00    +0.052 C 
ATOM     22  C   UNL     1      33.691 -10.930 -23.265  0.00  0.00    +0.030 C 
ATOM     23  C   UNL     1      33.129  -9.663 -23.424  0.00  0.00    +0.059 C 
ATOM     24  C   UNL     1      31.847 -11.568 -21.839  0.00  0.00    +0.015 C 
ATOM     25  C   UNL     1      31.925  -9.349 -22.792  0.00  0.00    +0.015 C 
ATOM     26  C   UNL     1      31.285 -10.302 -22.000  0.00  0.00    +0.003 C 
BRANCH  23  27
ATOM     27  N   UNL     1      33.776  -8.700 -24.227  0.00  0.00    -0.247 N 
ATOM     28  N   UNL     1      32.703  -6.723 -23.560  0.00  0.00    -0.337 NA
ATOM     29  N   UNL     1      34.432  -6.688 -25.238  0.00  0.00    -0.170 NA
ATOM     30  C   UNL     1      33.629  -7.305 -24.347  0.00  0.00    +0.149 C 
ATOM     31  C   UNL     1      32.591  -5.386 -23.701  0.00  0.00    +0.147 C 
ATOM     32  C   UNL     1      33.353  -4.641 -24.577  0.00  0.00    +0.055 C 
ATOM     33  C   UNL     1      34.266  -5.352 -25.328  0.00  0.00    +0.114 C 
ATOM     34  H   UNL     1      34.464  -9.079 -24.821  0.00  0.00    +0.165 HD
BRANCH  31  36
ATOM     35  N   UNL     1      29.653  -4.991 -21.441  0.00  0.00    -0.242 NA
ATOM     36  C   UNL     1      31.600  -4.762 -22.858  0.00  0.00    +0.050 C 
ATOM     37  C   UNL     1      31.608  -3.389 -22.636  0.00  0.00    +0.006 C 
ATOM     38  C   UNL     1      30.610  -5.511 -22.242  0.00  0.00    +0.101 C 
ATOM     39  C   UNL     1      30.639  -2.816 -21.818  0.00  0.00    +0.021 C 
ATOM     40  C   UNL     1      29.694  -3.653 -21.250  0.00  0.00    +0.099 C 
ENDBRANCH  31  36
ENDBRANCH  23  27
ENDBRANCH   2  21
TORSDOF 6
ENDMDL
MODEL 5
REMARK VINA RESULT:     -11.2      1.427      2.679
REMARK  Name = 4369496
REMARK  6 active torsions:
REMARK  status: ('A' for Active; 'I' for Inactive)
REMARK    1  A    between atoms: N_2  and  C_21
REMARK    2  A    between atoms: C_3  and  C_10
REMARK    3  A    between atoms: C_5  and  C_11
REMARK    4  A    between atoms: C_11  and  N_12
REMARK    5  A    between atoms: C_23  and  N_27
REMARK    6  A    between atoms: C_31  and  C_36
REMARK                            x       y       z     vdW  Elec       q    Type
REMARK                         _______ _______ _______ _____ _____    ______ ____
ROOT
ATOM      1  O   UNL     1      36.498 -18.595 -21.892  0.00  0.00    -0.270 OA
ATOM      2  N   UNL     1      34.326 -18.751 -21.019  0.00  0.00    -0.280 N 
ATOM      3  C   UNL     1      35.350 -18.141 -21.757  0.00  0.00    +0.249 C 
ATOM      4  H   UNL     1      33.467 -18.271 -21.003  0.00  0.00    +0.155 HD
ENDROOT
BRANCH   3  10
ATOM      5  C   UNL     1      34.372 -14.442 -23.559  0.00  0.00    -0.043 C 
ATOM      6  C   UNL     1      34.610 -14.495 -22.194  0.00  0.00    -0.006 C 
ATOM      7  C   UNL     1      34.449 -15.584 -24.344  0.00  0.00    -0.006 C 
ATOM      8  C   UNL     1      34.934 -15.714 -21.599  0.00  0.00    +0.004 C 
ATOM      9  C   UNL     1      34.773 -16.804 -23.749  0.00  0.00    +0.004 C 
ATOM     10  C   UNL     1      35.015 -16.869 -22.377  0.00  0.00    +0.054 C 
BRANCH   5  11
ATOM     11  C   UNL     1      34.024 -13.125 -24.202  0.00  0.00    -0.050 C 
BRANCH  11  12
ATOM     12  N   UNL     1      33.651 -12.118 -23.211  0.00  0.00    +0.387 N 
ATOM     13  N   UNL     1      31.993  -9.965 -22.224  0.00  0.00    +0.383 N 
ATOM     14  C   UNL     1      32.302 -12.372 -22.692  0.00  0.00    -0.100 C 
ATOM     15  C   UNL     1      33.734 -10.769 -23.782  0.00  0.00    -0.100 C 
ATOM     16  C   UNL     1      31.909 -11.315 -21.654  0.00  0.00    -0.101 C 
ATOM     17  C   UNL     1      33.342  -9.711 -22.745  0.00  0.00    -0.101 C 
ATOM     18  C   UNL     1      31.621  -8.958 -21.232  0.00  0.00    -0.101 C 
ATOM     19  H   UNL     1      34.310 -12.180 -22.435  0.00  0.00    -0.079 HD
ATOM     20  H   UNL     1      31.332  -9.902 -22.999  0.00  0.00    -0.080 HD
ENDBRANCH  11  12
ENDBRANCH   5  11
ENDBRANCH   3  10
BRANCH   2  21
ATOM     21  C   UNL     1      34.366 -19.967 -20.293  0.00  0.00    +0.052 C 
ATOM     22  C   UNL     1      35.459 -20.239 -19.488  0.00  0.00    +0.030 C 
ATOM     23  C   UNL     1      35.498 -21.437 -18.775  0.00  0.00    +0.059 C 
ATOM     24  C   UNL     1      33.310 -20.855 -20.405  0.00  0.00    +0.015 C 
ATOM     25  C   UNL     1      34.443 -22.344 -18.876  0.00  0.00    +0.015 C 
ATOM     26  C   UNL     1      33.349 -22.053 -19.691  0.00  0.00    +0.003 C 
BRANCH  23  27
ATOM     27  N   UNL     1      36.604 -21.731 -17.949  0.00  0.00    -0.247 N 
ATOM     28  N   UNL     1      35.567 -22.755 -16.110  0.00  0.00    -0.337 NA
ATOM     29  N   UNL     1      37.958 -22.463 -16.180  0.00  0.00    -0.170 NA
ATOM     30  C   UNL     1      36.715 -22.345 -16.687  0.00  0.00    +0.149 C 
ATOM     31  C   UNL     1      35.711 -23.339 -14.902  0.00  0.00    +0.147 C 
ATOM     32  C   UNL     1      36.928 -23.519 -14.278  0.00  0.00    +0.055 C 
ATOM     33  C   UNL     1      38.029 -23.057 -14.970  0.00  0.00    +0.114 C 
ATOM     34  H   UNL     1      37.467 -21.449 -18.330  0.00  0.00    +0.165 HD
BRANCH  31  36
ATOM     35  N   UNL     1      33.376 -24.834 -12.412  0.00  0.00    -0.242 NA
ATOM     36  C   UNL     1      34.484 -23.780 -14.285  0.00  0.00    +0.050 C 
ATOM     37  C   UNL     1      33.257 -23.595 -14.915  0.00  0.00    +0.006 C 
ATOM     38  C   UNL     1      34.488 -24.399 -13.045  0.00  0.00    +0.101 C 
ATOM     39  C   UNL     1      32.091 -24.030 -14.295  0.00  0.00    +0.021 C 
ATOM     40  C   UNL     1      32.203 -24.638 -13.055  0.00  0.00    +0.099 C 
ENDBRANCH  31  36
ENDBRANCH  23  27
ENDBRANCH   2  21
TORSDOF 6
ENDMDL
MODEL 6
REMARK VINA RESULT:     -10.8      6.206     16.195
REMARK  Name = 4369496
REMARK  6 active torsions:
REMARK  status: ('A' for Active; 'I' for Inactive)
REMARK    1  A    between atoms: N_2  and  C_21
REMARK    2  A    between atoms: C_3  and  C_10
REMARK    3  A    between atoms: C_5  and  C_11
REMARK    4  A    between atoms: C_11  and  N_12
REMARK    5  A    between atoms: C_23  and  N_27
REMARK    6  A    between atoms: C_31  and  C_36
REMARK                            x       y       z     vdW  Elec       q    Type
REMARK                         _______ _______ _______ _____ _____    ______ ____
ROOT
ATOM      1  O   UNL     1      31.218 -10.110 -20.925  0.00  0.00    -0.270 OA
ATOM      2  N   UNL     1      32.527  -8.815 -22.379  0.00  0.00    -0.280 N 
ATOM      3  C   UNL     1      31.997 -10.017 -21.886  0.00  0.00    +0.249 C 
ATOM      4  H   UNL     1      33.133  -8.900 -23.149  0.00  0.00    +0.155 HD
ENDROOT
BRANCH   3  10
ATOM      5  C   UNL     1      33.276 -13.540 -23.844  0.00  0.00    -0.043 C 
ATOM      6  C   UNL     1      32.372 -13.631 -22.796  0.00  0.00    -0.006 C 
ATOM      7  C   UNL     1      33.768 -12.311 -24.261  0.00  0.00    -0.006 C 
ATOM      8  C   UNL     1      31.949 -12.469 -22.151  0.00  0.00    +0.004 C 
ATOM      9  C   UNL     1      33.345 -11.149 -23.615  0.00  0.00    +0.004 C 
ATOM     10  C   UNL     1      32.436 -11.227 -22.560  0.00  0.00    +0.054 C 
BRANCH   5  11
ATOM     11  C   UNL     1      33.732 -14.795 -24.543  0.00  0.00    -0.050 C 
BRANCH  11  12
ATOM     12  N   UNL     1      34.077 -15.851 -23.593  0.00  0.00    +0.387 N 
ATOM     13  N   UNL     1      35.944 -17.622 -22.275  0.00  0.00    +0.383 N 
ATOM     14  C   UNL     1      35.009 -15.353 -22.575  0.00  0.00    -0.100 C 
ATOM     15  C   UNL     1      34.648 -17.010 -24.289  0.00  0.00    -0.100 C 
ATOM     16  C   UNL     1      35.373 -16.461 -21.581  0.00  0.00    -0.101 C 
ATOM     17  C   UNL     1      35.012 -18.119 -23.295  0.00  0.00    -0.101 C 
ATOM     18  C   UNL     1      36.287 -18.678 -21.325  0.00  0.00    -0.101 C 
ATOM     19  H   UNL     1      33.220 -16.147 -23.126  0.00  0.00    -0.079 HD
ATOM     20  H   UNL     1      36.803 -17.327 -22.741  0.00  0.00    -0.080 HD
ENDBRANCH  11  12
ENDBRANCH   5  11
ENDBRANCH   3  10
BRANCH   2  21
ATOM     21  C   UNL     1      32.303  -7.496 -21.914  0.00  0.00    +0.052 C 
ATOM     22  C   UNL     1      31.509  -6.642 -22.660  0.00  0.00    +0.030 C 
ATOM     23  C   UNL     1      31.291  -5.342 -22.203  0.00  0.00    +0.059 C 
ATOM     24  C   UNL     1      32.883  -7.092 -20.724  0.00  0.00    +0.015 C 
ATOM     25  C   UNL     1      31.868  -4.918 -21.005  0.00  0.00    +0.015 C 
ATOM     26  C   UNL     1      32.663  -5.792 -20.266  0.00  0.00    +0.003 C 
BRANCH  23  27
ATOM     27  N   UNL     1      30.484  -4.458 -22.950  0.00  0.00    -0.247 N 
ATOM     28  N   UNL     1      31.995  -3.691 -24.574  0.00  0.00    -0.337 NA
ATOM     29  N   UNL     1      29.715  -2.910 -24.536  0.00  0.00    -0.170 NA
ATOM     30  C   UNL     1      30.744  -3.648 -24.072  0.00  0.00    +0.149 C 
ATOM     31  C   UNL     1      32.207  -2.903 -25.648  0.00  0.00    +0.147 C 
ATOM     32  C   UNL     1      31.237  -2.103 -26.216  0.00  0.00    +0.055 C 
ATOM     33  C   UNL     1      29.998  -2.147 -25.612  0.00  0.00    +0.114 C 
ATOM     34  H   UNL     1      29.559  -4.394 -22.620  0.00  0.00    +0.165 HD
BRANCH  31  36
ATOM     35  N   UNL     1      35.391  -1.791 -27.234  0.00  0.00    -0.242 NA
ATOM     36  C   UNL     1      33.546  -2.949 -26.186  0.00  0.00    +0.050 C 
ATOM     37  C   UNL     1      34.278  -4.132 -26.189  0.00  0.00    +0.006 C 
ATOM     38  C   UNL     1      34.143  -1.817 -26.716  0.00  0.00    +0.101 C 
ATOM     39  C   UNL     1      35.566  -4.145 -26.714  0.00  0.00    +0.021 C 
ATOM     40  C   UNL     1      36.072  -2.959 -27.220  0.00  0.00    +0.099 C 
ENDBRANCH  31  36
ENDBRANCH  23  27
ENDBRANCH   2  21
TORSDOF 6
ENDMDL
MODEL 7
REMARK VINA RESULT:     -10.5      4.484     15.271
REMARK  Name = 4369496
REMARK  6 active torsions:
REMARK  status: ('A' for Active; 'I' for Inactive)
REMARK    1  A    between atoms: N_2  and  C_21
REMARK    2  A    between atoms: C_3  and  C_10
REMARK    3  A    between atoms: C_5  and  C_11
REMARK    4  A    between atoms: C_11  and  N_12
REMARK    5  A    between atoms: C_23  and  N_27
REMARK    6  A    between atoms: C_31  and  C_36
REMARK                            x       y       z     vdW  Elec       q    Type
REMARK                         _______ _______ _______ _____ _____    ______ ____
ROOT
ATOM      1  O   UNL     1      32.301 -11.772 -23.372  0.00  0.00    -0.270 OA
ATOM      2  N   UNL     1      34.567 -11.169 -23.416  0.00  0.00    -0.280 N 
ATOM      3  C   UNL     1      33.502 -12.080 -23.427  0.00  0.00    +0.249 C 
ATOM      4  H   UNL     1      35.467 -11.564 -23.465  0.00  0.00    +0.155 HD
ENDROOT
BRANCH   3  10
ATOM      5  C   UNL     1      34.567 -16.170 -23.587  0.00  0.00    -0.043 C 
ATOM      6  C   UNL     1      33.848 -15.610 -24.633  0.00  0.00    -0.006 C 
ATOM      7  C   UNL     1      34.942 -15.410 -22.489  0.00  0.00    -0.006 C 
ATOM      8  C   UNL     1      33.498 -14.261 -24.581  0.00  0.00    +0.004 C 
ATOM      9  C   UNL     1      34.592 -14.061 -22.437  0.00  0.00    +0.004 C 
ATOM     10  C   UNL     1      33.869 -13.486 -23.482  0.00  0.00    +0.054 C 
BRANCH   5  11
ATOM     11  C   UNL     1      34.947 -17.627 -23.644  0.00  0.00    -0.050 C 
BRANCH  11  12
ATOM     12  N   UNL     1      35.147 -18.189 -22.309  0.00  0.00    +0.387 N 
ATOM     13  N   UNL     1      35.977 -20.279 -20.493  0.00  0.00    +0.383 N 
ATOM     14  C   UNL     1      36.567 -18.470 -22.070  0.00  0.00    -0.100 C 
ATOM     15  C   UNL     1      34.346 -19.406 -22.132  0.00  0.00    -0.100 C 
ATOM     16  C   UNL     1      36.778 -19.062 -20.672  0.00  0.00    -0.101 C 
ATOM     17  C   UNL     1      34.556 -19.998 -20.734  0.00  0.00    -0.101 C 
ATOM     18  C   UNL     1      36.176 -20.840 -19.158  0.00  0.00    -0.101 C 
ATOM     19  H   UNL     1      34.837 -17.498 -21.627  0.00  0.00    -0.079 HD
ATOM     20  H   UNL     1      36.288 -20.972 -21.175  0.00  0.00    -0.080 HD
ENDBRANCH  11  12
ENDBRANCH   5  11
ENDBRANCH   3  10
BRANCH   2  21
ATOM     21  C   UNL     1      34.518  -9.755 -23.343  0.00  0.00    +0.052 C 
ATOM     22  C   UNL     1      33.498  -9.150 -22.629  0.00  0.00    +0.030 C 
ATOM     23  C   UNL     1      33.449  -7.757 -22.559  0.00  0.00    +0.059 C 
ATOM     24  C   UNL     1      35.492  -9.012 -23.987  0.00  0.00    +0.015 C 
ATOM     25  C   UNL     1      34.422  -6.992 -23.202  0.00  0.00    +0.015 C 
ATOM     26  C   UNL     1      35.444  -7.619 -23.916  0.00  0.00    +0.003 C 
BRANCH  23  27
ATOM     27  N   UNL     1      32.417  -7.123 -21.836  0.00  0.00    -0.247 N 
ATOM     28  N   UNL     1      31.991  -5.237 -23.165  0.00  0.00    -0.337 NA
ATOM     29  N   UNL     1      30.751  -5.627 -21.136  0.00  0.00    -0.170 NA
ATOM     30  C   UNL     1      31.686  -5.940 -22.056  0.00  0.00    +0.149 C 
ATOM     31  C   UNL     1      31.271  -4.110 -23.345  0.00  0.00    +0.147 C 
ATOM     32  C   UNL     1      30.288  -3.682 -22.476  0.00  0.00    +0.055 C 
ATOM     33  C   UNL     1      30.069  -4.488 -21.378  0.00  0.00    +0.114 C 
ATOM     34  H   UNL     1      32.158  -7.602 -21.015  0.00  0.00    +0.165 HD
BRANCH  31  36
ATOM     35  N   UNL     1      30.908  -1.786 -26.235  0.00  0.00    -0.242 NA
ATOM     36  C   UNL     1      31.597  -3.358 -24.532  0.00  0.00    +0.050 C 
ATOM     37  C   UNL     1      32.855  -3.452 -25.119  0.00  0.00    +0.006 C 
ATOM     38  C   UNL     1      30.668  -2.518 -25.125  0.00  0.00    +0.101 C 
ATOM     39  C   UNL     1      33.140  -2.714 -26.263  0.00  0.00    +0.021 C 
ATOM     40  C   UNL     1      32.141  -1.903 -26.777  0.00  0.00    +0.099 C 
ENDBRANCH  31  36
ENDBRANCH  23  27
ENDBRANCH   2  21
TORSDOF 6
ENDMDL
