MODEL 1
REMARK VINA RESULT:     -10.5      0.000      0.000
REMARK  Name = 5287979
REMARK  6 active torsions:
REMARK  status: ('A' for Active; 'I' for Inactive)
REMARK    1  A    between atoms: C_1  and  C_7
REMARK    2  A    between atoms: C_2  and  C_21
REMARK    3  A    between atoms: C_3  and  N_25
REMARK    4  A    between atoms: C_10  and  C_15
REMARK    5  A    between atoms: N_14  and  O_17
REMARK    6  A    between atoms: C_26  and  C_28
REMARK                            x       y       z     vdW  Elec       q    Type
REMARK                         _______ _______ _______ _____ _____    ______ ____
ROOT
ATOM      1  C   UNL     1      33.956 -21.871 -18.291  0.00  0.00    +0.001 C 
ATOM      2  C   UNL     1      32.495 -22.857 -16.638  0.00  0.00    +0.055 C 
ATOM      3  C   UNL     1      34.871 -23.288 -16.560  0.00  0.00    +0.051 C 
ATOM      4  C   UNL     1      32.677 -22.055 -17.765  0.00  0.00    +0.005 C 
ATOM      5  C   UNL     1      35.053 -22.486 -17.688  0.00  0.00    +0.015 C 
ATOM      6  C   UNL     1      33.593 -23.473 -16.035  0.00  0.00    +0.019 C 
ENDROOT
BRANCH   1   7
ATOM      7  C   UNL     1      34.145 -21.039 -19.459  0.00  0.00    +0.000 C 
ATOM      8  C   UNL     1      35.433 -20.735 -19.898  0.00  0.00    +0.000 C 
ATOM      9  C   UNL     1      33.039 -20.541 -20.148  0.00  0.00    +0.000 C 
ATOM     10  C   UNL     1      34.511 -19.435 -21.713  0.00  0.00    +0.055 C 
ATOM     11  C   UNL     1      35.617 -19.933 -21.024  0.00  0.00    +0.005 C 
ATOM     12  C   UNL     1      33.222 -19.739 -21.275  0.00  0.00    +0.005 C 
BRANCH  10  15
ATOM     13  O   UNL     1      34.311 -18.976 -24.006  0.00  0.00    -0.268 OA
ATOM     14  N   UNL     1      35.344 -17.383 -22.700  0.00  0.00    -0.193 N 
ATOM     15  C   UNL     1      34.701 -18.598 -22.887  0.00  0.00    +0.268 C 
ATOM     16  H   UNL     1      35.650 -17.092 -21.810  0.00  0.00    +0.183 HD
BRANCH  14  17
ATOM     17  O   UNL     1      35.538 -16.588 -23.839  0.00  0.00    -0.295 OA
ATOM     18  H   UNL     1      35.596 -15.656 -23.576  0.00  0.00    +0.241 HD
ENDBRANCH  14  17
ENDBRANCH  10  15
ENDBRANCH   1   7
BRANCH   2  21
ATOM     19  O   UNL     1      30.217 -22.575 -16.733  0.00  0.00    -0.270 OA
ATOM     20  N   UNL     1      31.019 -23.741 -14.874  0.00  0.00    -0.273 N 
ATOM     21  C   UNL     1      31.162 -23.050 -16.090  0.00  0.00    +0.249 C 
ATOM     22  C   UNL     1      32.165 -24.285 -14.149  0.00  0.00    +0.115 C 
ATOM     23  C   UNL     1      29.719 -23.960 -14.255  0.00  0.00    +0.115 C 
ENDBRANCH   2  21
BRANCH   3  25
ATOM     24  O   UNL     1      36.164 -22.774 -13.905  0.00  0.00    -0.270 OA
ATOM     25  N   UNL     1      35.969 -23.904 -15.958  0.00  0.00    -0.280 N 
ATOM     26  C   UNL     1      36.535 -23.623 -14.708  0.00  0.00    +0.249 C 
ATOM     27  H   UNL     1      36.398 -24.624 -16.474  0.00  0.00    +0.155 HD
BRANCH  26  28
ATOM     28  C   UNL     1      37.727 -24.439 -14.352  0.00  0.00    +0.054 C 
ATOM     29  C   UNL     1      37.631 -25.335 -13.308  0.00  0.00    +0.004 C 
ATOM     30  C   UNL     1      38.888 -24.271 -15.077  0.00  0.00    +0.004 C 
ATOM     31  C   UNL     1      39.937 -25.950 -13.691  0.00  0.00    -0.022 C 
ATOM     32  C   UNL     1      38.749 -26.099 -12.974  0.00  0.00    -0.004 C 
ATOM     33  C   UNL     1      40.006 -25.036 -14.743  0.00  0.00    -0.004 C 
ATOM     34  C   UNL     1      41.131 -26.768 -13.334  0.00  0.00    +0.031 C 
ENDBRANCH  26  28
ENDBRANCH   3  25
TORSDOF 6
ENDMDL
MODEL 2
REMARK VINA RESULT:      -9.4      9.800     15.904
REMARK  Name = 5287979
REMARK  6 active torsions:
REMARK  status: ('A' for Active; 'I' for Inactive)
REMARK    1  A    between atoms: C_1  and  C_7
REMARK    2  A    between atoms: C_2  and  C_21
REMARK    3  A    between atoms: C_3  and  N_25
REMARK    4  A    between atoms: C_10  and  C_15
REMARK    5  A    between atoms: N_14  and  O_17
REMARK    6  A    between atoms: C_26  and  C_28
REMARK                            x       y       z     vdW  Elec       q    Type
REMARK                         _______ _______ _______ _____ _____    ______ ____
ROOT
ATOM      1  C   UNL     1      33.180 -11.663 -22.862  0.00  0.00    +0.001 C 
ATOM      2  C   UNL     1      32.097 -10.067 -21.406  0.00  0.00    +0.055 C 
ATOM      3  C   UNL     1      33.099  -9.327 -23.476  0.00  0.00    +0.051 C 
ATOM      4  C   UNL     1      32.484 -11.377 -21.687  0.00  0.00    +0.005 C 
ATOM      5  C   UNL     1      33.486 -10.638 -23.757  0.00  0.00    +0.015 C 
ATOM      6  C   UNL     1      32.404  -9.041 -22.302  0.00  0.00    +0.019 C 
ENDROOT
BRANCH   1   7
ATOM      7  C   UNL     1      33.581 -13.022 -23.154  0.00  0.00    +0.000 C 
ATOM      8  C   UNL     1      34.357 -13.732 -22.238  0.00  0.00    +0.000 C 
ATOM      9  C   UNL     1      33.192 -13.622 -24.352  0.00  0.00    +0.000 C 
ATOM     10  C   UNL     1      34.356 -15.643 -23.716  0.00  0.00    +0.055 C 
ATOM     11  C   UNL     1      34.744 -15.042 -22.519  0.00  0.00    +0.005 C 
ATOM     12  C   UNL     1      33.580 -14.933 -24.632  0.00  0.00    +0.005 C 
BRANCH  10  15
ATOM     13  O   UNL     1      34.519 -17.519 -25.118  0.00  0.00    -0.268 OA
ATOM     14  N   UNL     1      35.407 -17.707 -22.999  0.00  0.00    -0.193 N 
ATOM     15  C   UNL     1      34.761 -17.008 -24.009  0.00  0.00    +0.268 C 
ATOM     16  H   UNL     1      35.594 -17.295 -22.124  0.00  0.00    +0.183 HD
BRANCH  14  17
ATOM     17  O   UNL     1      35.781 -19.028 -23.284  0.00  0.00    -0.295 OA
ATOM     18  H   UNL     1      36.116 -19.080 -24.193  0.00  0.00    +0.241 HD
ENDBRANCH  14  17
ENDBRANCH  10  15
ENDBRANCH   1   7
BRANCH   2  21
ATOM     19  O   UNL     1      30.422 -10.509 -19.897  0.00  0.00    -0.270 OA
ATOM     20  N   UNL     1      31.773  -8.667 -19.404  0.00  0.00    -0.273 N 
ATOM     21  C   UNL     1      31.373  -9.769 -20.180  0.00  0.00    +0.249 C 
ATOM     22  C   UNL     1      32.902  -7.820 -19.779  0.00  0.00    +0.115 C 
ATOM     23  C   UNL     1      31.088  -8.297 -18.173  0.00  0.00    +0.115 C 
ENDBRANCH   2  21
BRANCH   3  25
ATOM     24  O   UNL     1      34.510  -6.720 -23.027  0.00  0.00    -0.270 OA
ATOM     25  N   UNL     1      33.406  -8.302 -24.372  0.00  0.00    -0.280 N 
ATOM     26  C   UNL     1      34.071  -7.098 -24.108  0.00  0.00    +0.249 C 
ATOM     27  H   UNL     1      33.121  -8.443 -25.304  0.00  0.00    +0.155 HD
BRANCH  26  28
ATOM     28  C   UNL     1      34.226  -6.188 -25.274  0.00  0.00    +0.054 C 
ATOM     29  C   UNL     1      35.428  -5.539 -25.457  0.00  0.00    +0.004 C 
ATOM     30  C   UNL     1      33.160  -6.022 -26.134  0.00  0.00    +0.004 C 
ATOM     31  C   UNL     1      34.511  -4.499 -27.436  0.00  0.00    -0.022 C 
ATOM     32  C   UNL     1      35.573  -4.685 -26.550  0.00  0.00    -0.004 C 
ATOM     33  C   UNL     1      33.304  -5.168 -27.227  0.00  0.00    -0.004 C 
ATOM     34  C   UNL     1      34.666  -3.588 -28.605  0.00  0.00    +0.031 C 
ENDBRANCH  26  28
ENDBRANCH   3  25
TORSDOF 6
ENDMDL
MODEL 3
REMARK VINA RESULT:      -9.4      9.800     15.908
REMARK  Name = 5287979
REMARK  6 active torsions:
REMARK  status: ('A' for Active; 'I' for Inactive)
REMARK    1  A    between atoms: C_1  and  C_7
REMARK    2  A    between atoms: C_2  and  C_21
REMARK    3  A    between atoms: C_3  and  N_25
REMARK    4  A    between atoms: C_10  and  C_15
REMARK    5  A    between atoms: N_14  and  O_17
REMARK    6  A    between atoms: C_26  and  C_28
REMARK                            x       y       z     vdW  Elec       q    Type
REMARK                         _______ _______ _______ _____ _____    ______ ____
ROOT
ATOM      1  C   UNL     1      33.182 -11.662 -22.862  0.00  0.00    +0.001 C 
ATOM      2  C   UNL     1      32.098 -10.066 -21.407  0.00  0.00    +0.055 C 
ATOM      3  C   UNL     1      33.103  -9.325 -23.475  0.00  0.00    +0.051 C 
ATOM      4  C   UNL     1      32.485 -11.376 -21.687  0.00  0.00    +0.005 C 
ATOM      5  C   UNL     1      33.490 -10.636 -23.756  0.00  0.00    +0.015 C 
ATOM      6  C   UNL     1      32.406  -9.040 -22.302  0.00  0.00    +0.019 C 
ENDROOT
BRANCH   1   7
ATOM      7  C   UNL     1      33.584 -13.020 -23.153  0.00  0.00    +0.000 C 
ATOM      8  C   UNL     1      33.198 -13.620 -24.351  0.00  0.00    +0.000 C 
ATOM      9  C   UNL     1      34.358 -13.732 -22.235  0.00  0.00    +0.000 C 
ATOM     10  C   UNL     1      34.358 -15.642 -23.716  0.00  0.00    +0.055 C 
ATOM     11  C   UNL     1      33.585 -14.930 -24.633  0.00  0.00    +0.005 C 
ATOM     12  C   UNL     1      34.745 -15.042 -22.517  0.00  0.00    +0.005 C 
BRANCH  10  15
ATOM     13  O   UNL     1      34.515 -17.519 -25.116  0.00  0.00    -0.268 OA
ATOM     14  N   UNL     1      35.409 -17.707 -23.001  0.00  0.00    -0.193 N 
ATOM     15  C   UNL     1      34.760 -17.008 -24.009  0.00  0.00    +0.268 C 
ATOM     16  H   UNL     1      35.599 -17.293 -22.126  0.00  0.00    +0.183 HD
BRANCH  14  17
ATOM     17  O   UNL     1      35.781 -19.028 -23.285  0.00  0.00    -0.295 OA
ATOM     18  H   UNL     1      35.123 -19.429 -23.876  0.00  0.00    +0.241 HD
ENDBRANCH  14  17
ENDBRANCH  10  15
ENDBRANCH   1   7
BRANCH   2  21
ATOM     19  O   UNL     1      30.420 -10.508 -19.901  0.00  0.00    -0.270 OA
ATOM     20  N   UNL     1      31.772  -8.668 -19.403  0.00  0.00    -0.273 N 
ATOM     21  C   UNL     1      31.372  -9.768 -20.182  0.00  0.00    +0.249 C 
ATOM     22  C   UNL     1      32.904  -7.822 -19.776  0.00  0.00    +0.115 C 
ATOM     23  C   UNL     1      31.086  -8.298 -18.173  0.00  0.00    +0.115 C 
ENDBRANCH   2  21
BRANCH   3  25
ATOM     24  O   UNL     1      34.509  -6.717 -23.023  0.00  0.00    -0.270 OA
ATOM     25  N   UNL     1      33.411  -8.300 -24.370  0.00  0.00    -0.280 N 
ATOM     26  C   UNL     1      34.073  -7.095 -24.105  0.00  0.00    +0.249 C 
ATOM     27  H   UNL     1      33.128  -8.442 -25.303  0.00  0.00    +0.155 HD
BRANCH  26  28
ATOM     28  C   UNL     1      34.230  -6.185 -25.271  0.00  0.00    +0.054 C 
ATOM     29  C   UNL     1      33.167  -6.019 -26.132  0.00  0.00    +0.004 C 
ATOM     30  C   UNL     1      35.435  -5.539 -25.452  0.00  0.00    +0.004 C 
ATOM     31  C   UNL     1      34.522  -4.499 -27.434  0.00  0.00    -0.022 C 
ATOM     32  C   UNL     1      33.314  -5.166 -27.226  0.00  0.00    -0.004 C 
ATOM     33  C   UNL     1      35.583  -4.686 -26.546  0.00  0.00    -0.004 C 
ATOM     34  C   UNL     1      34.680  -3.587 -28.602  0.00  0.00    +0.031 C 
ENDBRANCH  26  28
ENDBRANCH   3  25
TORSDOF 6
ENDMDL
MODEL 4
REMARK VINA RESULT:      -8.6     12.178     18.479
REMARK  Name = 5287979
REMARK  6 active torsions:
REMARK  status: ('A' for Active; 'I' for Inactive)
REMARK    1  A    between atoms: C_1  and  C_7
REMARK    2  A    between atoms: C_2  and  C_21
REMARK    3  A    between atoms: C_3  and  N_25
REMARK    4  A    between atoms: C_10  and  C_15
REMARK    5  A    between atoms: N_14  and  O_17
REMARK    6  A    between atoms: C_26  and  C_28
REMARK                            x       y       z     vdW  Elec       q    Type
REMARK                         _______ _______ _______ _____ _____    ______ ____
ROOT
ATOM      1  C   UNL     1      32.965  -7.857 -23.514  0.00  0.00    +0.001 C 
ATOM      2  C   UNL     1      32.082  -5.611 -23.644  0.00  0.00    +0.055 C 
ATOM      3  C   UNL     1      34.158  -6.158 -24.752  0.00  0.00    +0.051 C 
ATOM      4  C   UNL     1      31.978  -6.926 -23.188  0.00  0.00    +0.005 C 
ATOM      5  C   UNL     1      34.054  -7.473 -24.296  0.00  0.00    +0.015 C 
ATOM      6  C   UNL     1      33.172  -5.228 -24.427  0.00  0.00    +0.019 C 
ENDROOT
BRANCH   1   7
ATOM      7  C   UNL     1      32.858  -9.220 -23.042  0.00  0.00    +0.000 C 
ATOM      8  C   UNL     1      32.012  -9.525 -21.976  0.00  0.00    +0.000 C 
ATOM      9  C   UNL     1      33.602 -10.231 -23.652  0.00  0.00    +0.000 C 
ATOM     10  C   UNL     1      32.652 -11.849 -22.130  0.00  0.00    +0.055 C 
ATOM     11  C   UNL     1      31.908 -10.839 -21.520  0.00  0.00    +0.005 C 
ATOM     12  C   UNL     1      33.498 -11.545 -23.196  0.00  0.00    +0.005 C 
BRANCH  10  15
ATOM     13  O   UNL     1      32.933 -14.168 -22.358  0.00  0.00    -0.268 OA
ATOM     14  N   UNL     1      31.981 -13.411 -20.401  0.00  0.00    -0.193 N 
ATOM     15  C   UNL     1      32.544 -13.219 -21.654  0.00  0.00    +0.268 C 
ATOM     16  H   UNL     1      31.675 -12.653 -19.851  0.00  0.00    +0.183 HD
BRANCH  14  17
ATOM     17  O   UNL     1      31.867 -14.736 -19.955  0.00  0.00    -0.295 OA
ATOM     18  H   UNL     1      32.745 -15.073 -19.718  0.00  0.00    +0.241 HD
ENDBRANCH  14  17
ENDBRANCH  10  15
ENDBRANCH   1   7
BRANCH   2  21
ATOM     19  O   UNL     1      30.241  -4.350 -24.192  0.00  0.00    -0.270 OA
ATOM     20  N   UNL     1      31.044  -4.081 -22.014  0.00  0.00    -0.273 N 
ATOM     21  C   UNL     1      31.053  -4.640 -23.304  0.00  0.00    +0.249 C 
ATOM     22  C   UNL     1      32.025  -4.455 -20.998  0.00  0.00    +0.115 C 
ATOM     23  C   UNL     1      30.057  -3.093 -21.604  0.00  0.00    +0.115 C 
ENDBRANCH   2  21
BRANCH   3  25
ATOM     24  O   UNL     1      34.403  -5.879 -27.727  0.00  0.00    -0.270 OA
ATOM     25  N   UNL     1      35.247  -5.775 -25.535  0.00  0.00    -0.280 N 
ATOM     26  C   UNL     1      35.309  -5.660 -26.929  0.00  0.00    +0.249 C 
ATOM     27  H   UNL     1      36.075  -5.558 -25.047  0.00  0.00    +0.155 HD
BRANCH  26  28
ATOM     28  C   UNL     1      36.630  -5.253 -27.477  0.00  0.00    +0.054 C 
ATOM     29  C   UNL     1      37.166  -5.970 -28.525  0.00  0.00    +0.004 C 
ATOM     30  C   UNL     1      37.276  -4.171 -26.916  0.00  0.00    +0.004 C 
ATOM     31  C   UNL     1      39.081  -4.498 -28.490  0.00  0.00    -0.022 C 
ATOM     32  C   UNL     1      38.405  -5.588 -29.037  0.00  0.00    -0.004 C 
ATOM     33  C   UNL     1      38.516  -3.789 -27.429  0.00  0.00    -0.004 C 
ATOM     34  C   UNL     1      40.405  -4.088 -29.039  0.00  0.00    +0.031 C 
ENDBRANCH  26  28
ENDBRANCH   3  25
TORSDOF 6
ENDMDL
MODEL 5
REMARK VINA RESULT:      -8.1      1.629      5.899
REMARK  Name = 5287979
REMARK  6 active torsions:
REMARK  status: ('A' for Active; 'I' for Inactive)
REMARK    1  A    between atoms: C_1  and  C_7
REMARK    2  A    between atoms: C_2  and  C_21
REMARK    3  A    between atoms: C_3  and  N_25
REMARK    4  A    between atoms: C_10  and  C_15
REMARK    5  A    between atoms: N_14  and  O_17
REMARK    6  A    between atoms: C_26  and  C_28
REMARK                            x       y       z     vdW  Elec       q    Type
REMARK                         _______ _______ _______ _____ _____    ______ ____
ROOT
ATOM      1  C   UNL     1      35.477 -21.645 -18.079  0.00  0.00    +0.001 C 
ATOM      2  C   UNL     1      36.722 -22.677 -16.283  0.00  0.00    +0.055 C 
ATOM      3  C   UNL     1      34.347 -23.069 -16.487  0.00  0.00    +0.051 C 
ATOM      4  C   UNL     1      36.684 -21.859 -17.413  0.00  0.00    +0.005 C 
ATOM      5  C   UNL     1      34.309 -22.251 -17.617  0.00  0.00    +0.015 C 
ATOM      6  C   UNL     1      35.553 -23.283 -15.821  0.00  0.00    +0.019 C 
ENDROOT
BRANCH   1   7
ATOM      7  C   UNL     1      35.437 -20.797 -19.251  0.00  0.00    +0.000 C 
ATOM      8  C   UNL     1      34.244 -20.635 -19.954  0.00  0.00    +0.000 C 
ATOM      9  C   UNL     1      36.593 -20.142 -19.677  0.00  0.00    +0.000 C 
ATOM     10  C   UNL     1      35.360 -19.163 -21.511  0.00  0.00    +0.055 C 
ATOM     11  C   UNL     1      34.205 -19.818 -21.084  0.00  0.00    +0.005 C 
ATOM     12  C   UNL     1      36.554 -19.325 -20.807  0.00  0.00    +0.005 C 
BRANCH  10  15
ATOM     13  O   UNL     1      34.983 -18.772 -23.794  0.00  0.00    -0.268 OA
ATOM     14  N   UNL     1      35.685 -16.983 -22.522  0.00  0.00    -0.193 N 
ATOM     15  C   UNL     1      35.320 -18.311 -22.689  0.00  0.00    +0.268 C 
ATOM     16  H   UNL     1      35.951 -16.627 -21.643  0.00  0.00    +0.183 HD
BRANCH  14  17
ATOM     17  O   UNL     1      35.658 -16.172 -23.665  0.00  0.00    -0.295 OA
ATOM     18  H   UNL     1      34.829 -16.321 -24.148  0.00  0.00    +0.241 HD
ENDBRANCH  14  17
ENDBRANCH  10  15
ENDBRANCH   1   7
BRANCH   2  21
ATOM     19  O   UNL     1      38.844 -22.020 -15.697  0.00  0.00    -0.270 OA
ATOM     20  N   UNL     1      38.152 -24.087 -14.855  0.00  0.00    -0.273 N 
ATOM     21  C   UNL     1      37.980 -22.900 -15.588  0.00  0.00    +0.249 C 
ATOM     22  C   UNL     1      37.103 -25.099 -14.755  0.00  0.00    +0.115 C 
ATOM     23  C   UNL     1      39.388 -24.388 -14.146  0.00  0.00    +0.115 C 
ENDBRANCH   2  21
BRANCH   3  25
ATOM     24  O   UNL     1      32.311 -22.096 -14.513  0.00  0.00    -0.270 OA
ATOM     25  N   UNL     1      33.178 -23.675 -16.025  0.00  0.00    -0.280 N 
ATOM     26  C   UNL     1      32.257 -23.174 -15.096  0.00  0.00    +0.249 C 
ATOM     27  H   UNL     1      32.975 -24.563 -16.398  0.00  0.00    +0.155 HD
BRANCH  26  28
ATOM     28  C   UNL     1      31.114 -24.073 -14.784  0.00  0.00    +0.054 C 
ATOM     29  C   UNL     1      29.988 -24.017 -15.577  0.00  0.00    +0.004 C 
ATOM     30  C   UNL     1      31.219 -24.933 -13.711  0.00  0.00    +0.004 C 
ATOM     31  C   UNL     1      28.995 -25.740 -14.204  0.00  0.00    -0.022 C 
ATOM     32  C   UNL     1      28.916 -24.860 -15.283  0.00  0.00    -0.004 C 
ATOM     33  C   UNL     1      30.148 -25.776 -13.417  0.00  0.00    -0.004 C 
ATOM     34  C   UNL     1      27.851 -26.642 -13.891  0.00  0.00    +0.031 C 
ENDBRANCH  26  28
ENDBRANCH   3  25
TORSDOF 6
ENDMDL
MODEL 6
REMARK VINA RESULT:      -8.0     14.930     20.176
REMARK  Name = 5287979
REMARK  6 active torsions:
REMARK  status: ('A' for Active; 'I' for Inactive)
REMARK    1  A    between atoms: C_1  and  C_7
REMARK    2  A    between atoms: C_2  and  C_21
REMARK    3  A    between atoms: C_3  and  N_25
REMARK    4  A    between atoms: C_10  and  C_15
REMARK    5  A    between atoms: N_14  and  O_17
REMARK    6  A    between atoms: C_26  and  C_28
REMARK                            x       y       z     vdW  Elec       q    Type
REMARK                         _______ _______ _______ _____ _____    ______ ____
ROOT
ATOM      1  C   UNL     1      33.446  -5.668 -24.860  0.00  0.00    +0.001 C 
ATOM      2  C   UNL     1      32.906  -3.901 -26.416  0.00  0.00    +0.055 C 
ATOM      3  C   UNL     1      35.039  -5.026 -26.560  0.00  0.00    +0.051 C 
ATOM      4  C   UNL     1      32.555  -4.705 -25.331  0.00  0.00    +0.005 C 
ATOM      5  C   UNL     1      34.688  -5.829 -25.475  0.00  0.00    +0.015 C 
ATOM      6  C   UNL     1      34.148  -4.063 -27.031  0.00  0.00    +0.019 C 
ENDROOT
BRANCH   1   7
ATOM      7  C   UNL     1      33.083  -6.502 -23.734  0.00  0.00    +0.000 C 
ATOM      8  C   UNL     1      31.811  -7.069 -23.669  0.00  0.00    +0.000 C 
ATOM      9  C   UNL     1      34.005  -6.738 -22.714  0.00  0.00    +0.000 C 
ATOM     10  C   UNL     1      32.381  -8.109 -21.564  0.00  0.00    +0.055 C 
ATOM     11  C   UNL     1      31.460  -7.873 -22.585  0.00  0.00    +0.005 C 
ATOM     12  C   UNL     1      33.654  -7.542 -21.630  0.00  0.00    +0.005 C 
BRANCH  10  15
ATOM     13  O   UNL     1      31.263  -9.926 -20.585  0.00  0.00    -0.268 OA
ATOM     14  N   UNL     1      32.526  -8.593 -19.192  0.00  0.00    -0.193 N 
ATOM     15  C   UNL     1      32.014  -8.946 -20.433  0.00  0.00    +0.268 C 
ATOM     16  H   UNL     1      33.120  -7.815 -19.082  0.00  0.00    +0.183 HD
BRANCH  14  17
ATOM     17  O   UNL     1      32.157  -9.396 -18.104  0.00  0.00    -0.295 OA
ATOM     18  H   UNL     1      32.524  -9.022 -17.287  0.00  0.00    +0.241 HD
ENDBRANCH  14  17
ENDBRANCH  10  15
ENDBRANCH   1   7
BRANCH   2  21
ATOM     19  O   UNL     1      31.666  -1.989 -26.124  0.00  0.00    -0.270 OA
ATOM     20  N   UNL     1      31.476  -3.013 -28.217  0.00  0.00    -0.273 N 
ATOM     21  C   UNL     1      31.976  -2.896 -26.908  0.00  0.00    +0.249 C 
ATOM     22  C   UNL     1      31.871  -4.102 -29.106  0.00  0.00    +0.115 C 
ATOM     23  C   UNL     1      30.530  -2.055 -28.774  0.00  0.00    +0.115 C 
ENDBRANCH   2  21
BRANCH   3  25
ATOM     24  O   UNL     1      35.811  -6.624 -28.976  0.00  0.00    -0.270 OA
ATOM     25  N   UNL     1      36.281  -5.187 -27.175  0.00  0.00    -0.280 N 
ATOM     26  C   UNL     1      36.588  -5.950 -28.308  0.00  0.00    +0.249 C 
ATOM     27  H   UNL     1      37.034  -4.705 -26.762  0.00  0.00    +0.155 HD
BRANCH  26  28
ATOM     28  C   UNL     1      38.021  -5.945 -28.709  0.00  0.00    +0.054 C 
ATOM     29  C   UNL     1      38.459  -6.880 -29.623  0.00  0.00    +0.004 C 
ATOM     30  C   UNL     1      38.863  -5.005 -28.153  0.00  0.00    +0.004 C 
ATOM     31  C   UNL     1      40.677  -5.936 -29.451  0.00  0.00    -0.022 C 
ATOM     32  C   UNL     1      39.802  -6.875 -29.998  0.00  0.00    -0.004 C 
ATOM     33  C   UNL     1      40.206  -5.001 -28.528  0.00  0.00    -0.004 C 
ATOM     34  C   UNL     1      42.112  -5.930 -29.853  0.00  0.00    +0.031 C 
ENDBRANCH  26  28
ENDBRANCH   3  25
TORSDOF 6
ENDMDL
MODEL 7
REMARK VINA RESULT:      -8.0     12.920     18.119
REMARK  Name = 5287979
REMARK  6 active torsions:
REMARK  status: ('A' for Active; 'I' for Inactive)
REMARK    1  A    between atoms: C_1  and  C_7
REMARK    2  A    between atoms: C_2  and  C_21
REMARK    3  A    between atoms: C_3  and  N_25
REMARK    4  A    between atoms: C_10  and  C_15
REMARK    5  A    between atoms: N_14  and  O_17
REMARK    6  A    between atoms: C_26  and  C_28
REMARK                            x       y       z     vdW  Elec       q    Type
REMARK                         _______ _______ _______ _____ _____    ______ ____
ROOT
ATOM      1  C   UNL     1      34.031  -5.139 -25.325  0.00  0.00    +0.001 C 
ATOM      2  C   UNL     1      32.029  -4.977 -23.981  0.00  0.00    +0.055 C 
ATOM      3  C   UNL     1      33.187  -7.089 -24.174  0.00  0.00    +0.051 C 
ATOM      4  C   UNL     1      32.978  -4.381 -24.812  0.00  0.00    +0.005 C 
ATOM      5  C   UNL     1      34.136  -6.492 -25.005  0.00  0.00    +0.015 C 
ATOM      6  C   UNL     1      32.135  -6.332 -23.662  0.00  0.00    +0.019 C 
ENDROOT
BRANCH   1   7
ATOM      7  C   UNL     1      35.016  -4.520 -26.186  0.00  0.00    +0.000 C 
ATOM      8  C   UNL     1      34.677  -3.396 -26.938  0.00  0.00    +0.000 C 
ATOM      9  C   UNL     1      36.304  -5.050 -26.265  0.00  0.00    +0.000 C 
ATOM     10  C   UNL     1      36.914  -3.328 -27.849  0.00  0.00    +0.055 C 
ATOM     11  C   UNL     1      35.625  -2.800 -27.769  0.00  0.00    +0.005 C 
ATOM     12  C   UNL     1      37.253  -4.453 -27.096  0.00  0.00    +0.005 C 
BRANCH  10  15
ATOM     13  O   UNL     1      37.577  -2.254 -29.827  0.00  0.00    -0.268 OA
ATOM     14  N   UNL     1      39.210  -2.660 -28.252  0.00  0.00    -0.193 N 
ATOM     15  C   UNL     1      37.902  -2.707 -28.715  0.00  0.00    +0.268 C 
ATOM     16  H   UNL     1      39.458  -3.022 -27.370  0.00  0.00    +0.183 HD
BRANCH  14  17
ATOM     17  O   UNL     1      40.160  -2.073 -29.099  0.00  0.00    -0.295 OA
ATOM     18  H   UNL     1      40.608  -1.351 -28.630  0.00  0.00    +0.241 HD
ENDBRANCH  14  17
ENDBRANCH  10  15
ENDBRANCH   1   7
BRANCH   2  21
ATOM     19  O   UNL     1      30.066  -3.814 -24.250  0.00  0.00    -0.270 OA
ATOM     20  N   UNL     1      30.917  -3.881 -22.075  0.00  0.00    -0.273 N 
ATOM     21  C   UNL     1      30.931  -4.187 -23.447  0.00  0.00    +0.249 C 
ATOM     22  C   UNL     1      31.962  -4.344 -21.164  0.00  0.00    +0.115 C 
ATOM     23  C   UNL     1      29.861  -3.082 -21.469  0.00  0.00    +0.115 C 
ENDBRANCH   2  21
BRANCH   3  25
ATOM     24  O   UNL     1      31.127  -8.998 -23.125  0.00  0.00    -0.270 OA
ATOM     25  N   UNL     1      33.292  -8.443 -23.855  0.00  0.00    -0.280 N 
ATOM     26  C   UNL     1      32.293  -9.293 -23.366  0.00  0.00    +0.249 C 
ATOM     27  H   UNL     1      34.178  -8.852 -23.992  0.00  0.00    +0.155 HD
BRANCH  26  28
ATOM     28  C   UNL     1      32.723 -10.691 -23.093  0.00  0.00    +0.054 C 
ATOM     29  C   UNL     1      32.139 -11.374 -22.049  0.00  0.00    +0.004 C 
ATOM     30  C   UNL     1      33.693 -11.255 -23.895  0.00  0.00    +0.004 C 
ATOM     31  C   UNL     1      33.522 -13.281 -22.588  0.00  0.00    -0.022 C 
ATOM     32  C   UNL     1      32.543 -12.685 -21.793  0.00  0.00    -0.004 C 
ATOM     33  C   UNL     1      34.097 -12.566 -23.640  0.00  0.00    -0.004 C 
ATOM     34  C   UNL     1      33.953 -14.682 -22.316  0.00  0.00    +0.031 C 
ENDBRANCH  26  28
ENDBRANCH   3  25
TORSDOF 6
ENDMDL
MODEL 8
REMARK VINA RESULT:      -8.0     12.305     17.328
REMARK  Name = 5287979
REMARK  6 active torsions:
REMARK  status: ('A' for Active; 'I' for Inactive)
REMARK    1  A    between atoms: C_1  and  C_7
REMARK    2  A    between atoms: C_2  and  C_21
REMARK    3  A    between atoms: C_3  and  N_25
REMARK    4  A    between atoms: C_10  and  C_15
REMARK    5  A    between atoms: N_14  and  O_17
REMARK    6  A    between atoms: C_26  and  C_28
REMARK                            x       y       z     vdW  Elec       q    Type
REMARK                         _______ _______ _______ _____ _____    ______ ____
ROOT
ATOM      1  C   UNL     1      33.059  -5.914 -24.344  0.00  0.00    +0.001 C 
ATOM      2  C   UNL     1      31.447  -5.238 -22.676  0.00  0.00    +0.055 C 
ATOM      3  C   UNL     1      32.292  -7.501 -22.691  0.00  0.00    +0.051 C 
ATOM      4  C   UNL     1      32.240  -4.934 -23.782  0.00  0.00    +0.005 C 
ATOM      5  C   UNL     1      33.086  -7.197 -23.797  0.00  0.00    +0.015 C 
ATOM      6  C   UNL     1      31.474  -6.521 -22.129  0.00  0.00    +0.019 C 
ENDROOT
BRANCH   1   7
ATOM      7  C   UNL     1      33.882  -5.599 -25.491  0.00  0.00    +0.000 C 
ATOM      8  C   UNL     1      33.290  -5.371 -26.733  0.00  0.00    +0.000 C 
ATOM      9  C   UNL     1      35.269  -5.524 -25.356  0.00  0.00    +0.000 C 
ATOM     10  C   UNL     1      35.469  -4.993 -27.705  0.00  0.00    +0.055 C 
ATOM     11  C   UNL     1      34.083  -5.068 -27.839  0.00  0.00    +0.005 C 
ATOM     12  C   UNL     1      36.062  -5.220 -26.462  0.00  0.00    +0.005 C 
BRANCH  10  15
ATOM     13  O   UNL     1      35.781  -4.472 -29.972  0.00  0.00    -0.268 OA
ATOM     14  N   UNL     1      37.669  -4.632 -28.660  0.00  0.00    -0.193 N 
ATOM     15  C   UNL     1      36.296  -4.677 -28.859  0.00  0.00    +0.268 C 
ATOM     16  H   UNL     1      38.068  -4.796 -27.774  0.00  0.00    +0.183 HD
BRANCH  14  17
ATOM     17  O   UNL     1      38.460  -4.342 -29.780  0.00  0.00    -0.295 OA
ATOM     18  H   UNL     1      38.269  -4.981 -30.485  0.00  0.00    +0.241 HD
ENDBRANCH  14  17
ENDBRANCH  10  15
ENDBRANCH   1   7
BRANCH   2  21
ATOM     19  O   UNL     1      29.657  -4.607 -21.381  0.00  0.00    -0.270 OA
ATOM     20  N   UNL     1      30.860  -2.864 -22.369  0.00  0.00    -0.273 N 
ATOM     21  C   UNL     1      30.593  -4.216 -22.091  0.00  0.00    +0.249 C 
ATOM     22  C   UNL     1      31.978  -2.450 -23.214  0.00  0.00    +0.115 C 
ATOM     23  C   UNL     1      30.041  -1.785 -21.833  0.00  0.00    +0.115 C 
ENDBRANCH   2  21
BRANCH   3  25
ATOM     24  O   UNL     1      32.335 -10.179 -24.038  0.00  0.00    -0.270 OA
ATOM     25  N   UNL     1      32.319  -8.785 -22.144  0.00  0.00    -0.280 N 
ATOM     26  C   UNL     1      32.339 -10.009 -22.823  0.00  0.00    +0.249 C 
ATOM     27  H   UNL     1      32.327  -8.836 -21.161  0.00  0.00    +0.155 HD
BRANCH  26  28
ATOM     28  C   UNL     1      32.338 -11.218 -21.956  0.00  0.00    +0.054 C 
ATOM     29  C   UNL     1      31.883 -11.105 -20.659  0.00  0.00    +0.004 C 
ATOM     30  C   UNL     1      32.794 -12.410 -22.478  0.00  0.00    +0.004 C 
ATOM     31  C   UNL     1      32.339 -13.458 -20.348  0.00  0.00    -0.022 C 
ATOM     32  C   UNL     1      31.884 -12.239 -19.846  0.00  0.00    -0.004 C 
ATOM     33  C   UNL     1      32.794 -13.543 -21.664  0.00  0.00    -0.004 C 
ATOM     34  C   UNL     1      32.338 -14.669 -19.479  0.00  0.00    +0.031 C 
ENDBRANCH  26  28
ENDBRANCH   3  25
TORSDOF 6
ENDMDL
MODEL 9
REMARK VINA RESULT:      -7.9     11.679     16.792
REMARK  Name = 5287979
REMARK  6 active torsions:
REMARK  status: ('A' for Active; 'I' for Inactive)
REMARK    1  A    between atoms: C_1  and  C_7
REMARK    2  A    between atoms: C_2  and  C_21
REMARK    3  A    between atoms: C_3  and  N_25
REMARK    4  A    between atoms: C_10  and  C_15
REMARK    5  A    between atoms: N_14  and  O_17
REMARK    6  A    between atoms: C_26  and  C_28
REMARK                            x       y       z     vdW  Elec       q    Type
REMARK                         _______ _______ _______ _____ _____    ______ ____
ROOT
ATOM      1  C   UNL     1      34.256  -6.476 -24.683  0.00  0.00    +0.001 C 
ATOM      2  C   UNL     1      32.911  -6.464 -22.675  0.00  0.00    +0.055 C 
ATOM      3  C   UNL     1      33.821  -8.542 -23.507  0.00  0.00    +0.051 C 
ATOM      4  C   UNL     1      33.505  -5.779 -23.736  0.00  0.00    +0.005 C 
ATOM      5  C   UNL     1      34.414  -7.857 -24.568  0.00  0.00    +0.015 C 
ATOM      6  C   UNL     1      33.070  -7.845 -22.560  0.00  0.00    +0.019 C 
ENDROOT
BRANCH   1   7
ATOM      7  C   UNL     1      34.872  -5.766 -25.783  0.00  0.00    +0.000 C 
ATOM      8  C   UNL     1      34.172  -5.586 -26.976  0.00  0.00    +0.000 C 
ATOM      9  C   UNL     1      36.167  -5.263 -25.651  0.00  0.00    +0.000 C 
ATOM     10  C   UNL     1      36.060  -4.399 -27.906  0.00  0.00    +0.055 C 
ATOM     11  C   UNL     1      34.766  -4.902 -28.037  0.00  0.00    +0.005 C 
ATOM     12  C   UNL     1      36.760  -4.579 -26.712  0.00  0.00    +0.005 C 
BRANCH  10  15
ATOM     13  O   UNL     1      36.007  -3.340 -30.000  0.00  0.00    -0.268 OA
ATOM     14  N   UNL     1      38.040  -3.431 -28.917  0.00  0.00    -0.193 N 
ATOM     15  C   UNL     1      36.679  -3.687 -29.012  0.00  0.00    +0.268 C 
ATOM     16  H   UNL     1      38.564  -3.709 -28.131  0.00  0.00    +0.183 HD
BRANCH  14  17
ATOM     17  O   UNL     1      38.632  -2.757 -29.994  0.00  0.00    -0.295 OA
ATOM     18  H   UNL     1      38.872  -3.397 -30.683  0.00  0.00    +0.241 HD
ENDBRANCH  14  17
ENDBRANCH  10  15
ENDBRANCH   1   7
BRANCH   2  21
ATOM     19  O   UNL     1      32.464  -5.861 -20.503  0.00  0.00    -0.270 OA
ATOM     20  N   UNL     1      31.040  -4.958 -22.122  0.00  0.00    -0.273 N 
ATOM     21  C   UNL     1      32.128  -5.737 -21.688  0.00  0.00    +0.249 C 
ATOM     22  C   UNL     1      30.680  -4.842 -23.533  0.00  0.00    +0.115 C 
ATOM     23  C   UNL     1      30.200  -4.215 -21.193  0.00  0.00    +0.115 C 
ENDBRANCH   2  21
BRANCH   3  25
ATOM     24  O   UNL     1      31.784 -10.695 -23.053  0.00  0.00    -0.270 OA
ATOM     25  N   UNL     1      33.979  -9.923 -23.392  0.00  0.00    -0.280 N 
ATOM     26  C   UNL     1      32.988 -10.890 -23.179  0.00  0.00    +0.249 C 
ATOM     27  H   UNL     1      34.901 -10.260 -23.472  0.00  0.00    +0.155 HD
BRANCH  26  28
ATOM     28  C   UNL     1      33.478 -12.290 -23.074  0.00  0.00    +0.054 C 
ATOM     29  C   UNL     1      33.938 -12.744 -21.857  0.00  0.00    +0.004 C 
ATOM     30  C   UNL     1      33.456 -13.088 -24.199  0.00  0.00    +0.004 C 
ATOM     31  C   UNL     1      34.386 -14.887 -22.880  0.00  0.00    -0.022 C 
ATOM     32  C   UNL     1      34.397 -14.058 -21.759  0.00  0.00    -0.004 C 
ATOM     33  C   UNL     1      33.915 -14.401 -24.101  0.00  0.00    -0.004 C 
ATOM     34  C   UNL     1      34.876 -16.291 -22.776  0.00  0.00    +0.031 C 
ENDBRANCH  26  28
ENDBRANCH   3  25
TORSDOF 6
ENDMDL
