MODEL 1
REMARK VINA RESULT:     -12.2      0.000      0.000
REMARK  Name = 448384
REMARK  11 active torsions:
REMARK  status: ('A' for Active; 'I' for Inactive)
REMARK    1  A    between atoms: C_1  and  C_3
REMARK    2  A    between atoms: C_1  and  C_6
REMARK    3  A    between atoms: C_1  and  C_19
REMARK    4  A    between atoms: C_3  and  O_4
REMARK    5  A    between atoms: C_6  and  C_7
REMARK    6  A    between atoms: C_7  and  N_10
REMARK    7  A    between atoms: C_19  and  C_21
REMARK    8  A    between atoms: C_21  and  C_22
REMARK    9  A    between atoms: C_25  and  C_28
REMARK   10  A    between atoms: C_33  and  O_34
REMARK   11  A    between atoms: O_34  and  C_35
REMARK                            x       y       z     vdW  Elec       q    Type
REMARK                         _______ _______ _______ _____ _____    ______ ____
ROOT
ATOM      1  C   UNL     1      32.398 -22.782 -15.900  0.00  0.00    +0.108 C 
ENDROOT
BRANCH   1   3
ATOM      2  O   UNL     1      30.480 -24.248 -15.593  0.00  0.00    -0.250 OA
ATOM      3  C   UNL     1      30.948 -23.216 -16.059  0.00  0.00    +0.314 C 
BRANCH   3   4
ATOM      4  O   UNL     1      30.208 -22.330 -16.772  0.00  0.00    -0.480 OA
ATOM      5  H   UNL     1      29.274 -22.406 -16.789  0.00  0.00    +0.295 HD
ENDBRANCH   3   4
ENDBRANCH   1   3
BRANCH   1   6
ATOM      6  C   UNL     1      32.899 -23.111 -14.479  0.00  0.00    +0.034 C 
BRANCH   6   7
ATOM      7  C   UNL     1      33.292 -24.576 -14.285  0.00  0.00    +0.102 C 
BRANCH   7  10
ATOM      8  O   UNL     1      35.587 -26.037 -15.500  0.00  0.00    -0.269 OA
ATOM      9  O   UNL     1      34.482 -23.561 -11.744  0.00  0.00    -0.269 OA
ATOM     10  N   UNL     1      34.624 -24.744 -13.780  0.00  0.00    -0.223 N 
ATOM     11  C   UNL     1      35.623 -25.448 -14.436  0.00  0.00    +0.255 C 
ATOM     12  C   UNL     1      35.074 -24.221 -12.577  0.00  0.00    +0.255 C 
ATOM     13  C   UNL     1      36.810 -25.359 -13.585  0.00  0.00    +0.058 C 
ATOM     14  C   UNL     1      36.478 -24.617 -12.461  0.00  0.00    +0.058 C 
ATOM     15  C   UNL     1      38.074 -25.879 -13.769  0.00  0.00    +0.005 C 
ATOM     16  C   UNL     1      37.392 -24.357 -11.462  0.00  0.00    +0.005 C 
ATOM     17  C   UNL     1      39.018 -25.628 -12.770  0.00  0.00    +0.000 C 
ATOM     18  C   UNL     1      38.680 -24.875 -11.627  0.00  0.00    +0.000 C 
ENDBRANCH   7  10
ENDBRANCH   6   7
ENDBRANCH   1   6
BRANCH   1  19
ATOM     19  C   UNL     1      33.247 -23.522 -16.953  0.00  0.00    +0.080 C 
BRANCH  19  21
ATOM     20  O   UNL     1      35.581 -23.007 -16.596  0.00  0.00    -0.291 OA
ATOM     21  C   UNL     1      34.565 -22.818 -17.260  0.00  0.00    +0.174 C 
BRANCH  21  22
ATOM     22  C   UNL     1      34.612 -21.858 -18.401  0.00  0.00    +0.035 C 
ATOM     23  C   UNL     1      33.428 -21.427 -19.000  0.00  0.00    +0.003 C 
ATOM     24  C   UNL     1      35.841 -21.391 -18.868  0.00  0.00    +0.003 C 
ATOM     25  C   UNL     1      34.703 -20.063 -20.534  0.00  0.00    +0.000 C 
ATOM     26  C   UNL     1      33.474 -20.530 -20.067  0.00  0.00    +0.000 C 
ATOM     27  C   UNL     1      35.886 -20.493 -19.935  0.00  0.00    +0.000 C 
BRANCH  25  28
ATOM     28  C   UNL     1      34.751 -19.132 -21.641  0.00  0.00    +0.000 C 
ATOM     29  C   UNL     1      35.286 -17.856 -21.456  0.00  0.00    +0.003 C 
ATOM     30  C   UNL     1      34.260 -19.508 -22.891  0.00  0.00    +0.003 C 
ATOM     31  C   UNL     1      35.331 -16.958 -22.522  0.00  0.00    +0.037 C 
ATOM     32  C   UNL     1      34.305 -18.609 -23.956  0.00  0.00    +0.037 C 
ATOM     33  C   UNL     1      34.840 -17.334 -23.772  0.00  0.00    +0.139 C 
BRANCH  33  34
ATOM     34  O   UNL     1      34.886 -16.457 -24.812  0.00  0.00    -0.475 OA
BRANCH  34  35
ATOM     35  C   UNL     1      33.688 -15.742 -25.113  0.00  0.00    +0.206 C 
ATOM     36  C   UNL     1      33.591 -14.538 -24.200  0.00  0.00    +0.051 C 
ENDBRANCH  34  35
ENDBRANCH  33  34
ENDBRANCH  25  28
ENDBRANCH  21  22
ENDBRANCH  19  21
ENDBRANCH   1  19
TORSDOF 11
ENDMDL
MODEL 2
REMARK VINA RESULT:     -11.8      4.962     13.239
REMARK  Name = 448384
REMARK  11 active torsions:
REMARK  status: ('A' for Active; 'I' for Inactive)
REMARK    1  A    between atoms: C_1  and  C_3
REMARK    2  A    between atoms: C_1  and  C_6
REMARK    3  A    between atoms: C_1  and  C_19
REMARK    4  A    between atoms: C_3  and  O_4
REMARK    5  A    between atoms: C_6  and  C_7
REMARK    6  A    between atoms: C_7  and  N_10
REMARK    7  A    between atoms: C_19  and  C_21
REMARK    8  A    between atoms: C_21  and  C_22
REMARK    9  A    between atoms: C_25  and  C_28
REMARK   10  A    between atoms: C_33  and  O_34
REMARK   11  A    between atoms: O_34  and  C_35
REMARK                            x       y       z     vdW  Elec       q    Type
REMARK                         _______ _______ _______ _____ _____    ______ ____
ROOT
ATOM      1  C   UNL     1      33.414 -14.065 -23.232  0.00  0.00    +0.108 C 
ENDROOT
BRANCH   1   3
ATOM      2  O   UNL     1      34.214 -13.769 -20.952  0.00  0.00    -0.250 OA
ATOM      3  C   UNL     1      33.276 -13.800 -21.739  0.00  0.00    +0.314 C 
BRANCH   3   4
ATOM      4  O   UNL     1      31.990 -13.593 -21.358  0.00  0.00    -0.480 OA
ATOM      5  H   UNL     1      31.339 -14.241 -21.537  0.00  0.00    +0.295 HD
ENDBRANCH   3   4
ENDBRANCH   1   3
BRANCH   1   6
ATOM      6  C   UNL     1      33.128 -12.776 -24.028  0.00  0.00    +0.034 C 
BRANCH   6   7
ATOM      7  C   UNL     1      34.247 -11.737 -23.948  0.00  0.00    +0.102 C 
BRANCH   7  10
ATOM      8  O   UNL     1      31.611 -11.010 -22.762  0.00  0.00    -0.269 OA
ATOM      9  O   UNL     1      35.750  -9.168 -23.731  0.00  0.00    -0.269 OA
ATOM     10  N   UNL     1      33.815 -10.479 -23.409  0.00  0.00    -0.223 N 
ATOM     11  C   UNL     1      32.555 -10.251 -22.876  0.00  0.00    +0.255 C 
ATOM     12  C   UNL     1      34.606  -9.341 -23.356  0.00  0.00    +0.255 C 
ATOM     13  C   UNL     1      32.545  -8.855 -22.438  0.00  0.00    +0.058 C 
ATOM     14  C   UNL     1      33.785  -8.305 -22.728  0.00  0.00    +0.058 C 
ATOM     15  C   UNL     1      31.543  -8.121 -21.838  0.00  0.00    +0.005 C 
ATOM     16  C   UNL     1      34.088  -6.992 -22.434  0.00  0.00    +0.005 C 
ATOM     17  C   UNL     1      31.827  -6.788 -21.531  0.00  0.00    +0.000 C 
ATOM     18  C   UNL     1      33.087  -6.228 -21.827  0.00  0.00    +0.000 C 
ENDBRANCH   7  10
ENDBRANCH   6   7
ENDBRANCH   1   6
BRANCH   1  19
ATOM     19  C   UNL     1      34.847 -14.560 -23.509  0.00  0.00    +0.080 C 
BRANCH  19  21
ATOM     20  O   UNL     1      34.952 -16.272 -25.212  0.00  0.00    -0.291 OA
ATOM     21  C   UNL     1      34.894 -15.998 -24.015  0.00  0.00    +0.174 C 
BRANCH  21  22
ATOM     22  C   UNL     1      34.858 -17.107 -23.018  0.00  0.00    +0.035 C 
ATOM     23  C   UNL     1      34.422 -18.376 -23.401  0.00  0.00    +0.003 C 
ATOM     24  C   UNL     1      35.261 -16.875 -21.703  0.00  0.00    +0.003 C 
ATOM     25  C   UNL     1      34.792 -19.180 -21.153  0.00  0.00    +0.000 C 
ATOM     26  C   UNL     1      34.389 -19.412 -22.468  0.00  0.00    +0.000 C 
ATOM     27  C   UNL     1      35.228 -17.912 -20.770  0.00  0.00    +0.000 C 
BRANCH  25  28
ATOM     28  C   UNL     1      34.757 -20.255 -20.184  0.00  0.00    +0.000 C 
ATOM     29  C   UNL     1      35.948 -20.753 -19.653  0.00  0.00    +0.003 C 
ATOM     30  C   UNL     1      33.535 -20.795 -19.784  0.00  0.00    +0.003 C 
ATOM     31  C   UNL     1      35.915 -21.790 -18.721  0.00  0.00    +0.037 C 
ATOM     32  C   UNL     1      33.503 -21.831 -18.852  0.00  0.00    +0.037 C 
ATOM     33  C   UNL     1      34.692 -22.330 -18.321  0.00  0.00    +0.139 C 
BRANCH  33  34
ATOM     34  O   UNL     1      34.661 -23.340 -17.409  0.00  0.00    -0.475 OA
BRANCH  34  35
ATOM     35  C   UNL     1      33.462 -23.495 -16.652  0.00  0.00    +0.206 C 
ATOM     36  C   UNL     1      33.745 -23.156 -15.204  0.00  0.00    +0.051 C 
ENDBRANCH  34  35
ENDBRANCH  33  34
ENDBRANCH  25  28
ENDBRANCH  21  22
ENDBRANCH  19  21
ENDBRANCH   1  19
TORSDOF 11
ENDMDL
MODEL 3
REMARK VINA RESULT:     -11.8      1.910      4.730
REMARK  Name = 448384
REMARK  11 active torsions:
REMARK  status: ('A' for Active; 'I' for Inactive)
REMARK    1  A    between atoms: C_1  and  C_3
REMARK    2  A    between atoms: C_1  and  C_6
REMARK    3  A    between atoms: C_1  and  C_19
REMARK    4  A    between atoms: C_3  and  O_4
REMARK    5  A    between atoms: C_6  and  C_7
REMARK    6  A    between atoms: C_7  and  N_10
REMARK    7  A    between atoms: C_19  and  C_21
REMARK    8  A    between atoms: C_21  and  C_22
REMARK    9  A    between atoms: C_25  and  C_28
REMARK   10  A    between atoms: C_33  and  O_34
REMARK   11  A    between atoms: O_34  and  C_35
REMARK                            x       y       z     vdW  Elec       q    Type
REMARK                         _______ _______ _______ _____ _____    ______ ____
ROOT
ATOM      1  C   UNL     1      36.360 -23.437 -15.780  0.00  0.00    +0.108 C 
ENDROOT
BRANCH   1   3
ATOM      2  O   UNL     1      37.607 -22.789 -13.793  0.00  0.00    -0.250 OA
ATOM      3  C   UNL     1      37.609 -23.096 -14.979  0.00  0.00    +0.314 C 
BRANCH   3   4
ATOM      4  O   UNL     1      38.745 -23.172 -15.717  0.00  0.00    -0.480 OA
ATOM      5  H   UNL     1      38.815 -22.691 -16.518  0.00  0.00    +0.295 HD
ENDBRANCH   3   4
ENDBRANCH   1   3
BRANCH   1   6
ATOM      6  C   UNL     1      35.233 -23.901 -14.834  0.00  0.00    +0.034 C 
BRANCH   6   7
ATOM      7  C   UNL     1      34.165 -22.837 -14.576  0.00  0.00    +0.102 C 
BRANCH   7  10
ATOM      8  O   UNL     1      32.018 -22.289 -16.569  0.00  0.00    -0.269 OA
ATOM      9  O   UNL     1      32.806 -24.730 -12.711  0.00  0.00    -0.269 OA
ATOM     10  N   UNL     1      32.827 -23.353 -14.627  0.00  0.00    -0.223 N 
ATOM     11  C   UNL     1      31.904 -23.030 -15.610  0.00  0.00    +0.255 C 
ATOM     12  C   UNL     1      32.296 -24.239 -13.700  0.00  0.00    +0.255 C 
ATOM     13  C   UNL     1      30.688 -23.777 -15.289  0.00  0.00    +0.058 C 
ATOM     14  C   UNL     1      30.926 -24.508 -14.134  0.00  0.00    +0.058 C 
ATOM     15  C   UNL     1      29.474 -23.820 -15.943  0.00  0.00    +0.005 C 
ATOM     16  C   UNL     1      29.962 -25.319 -13.573  0.00  0.00    +0.005 C 
ATOM     17  C   UNL     1      28.483 -24.635 -15.393  0.00  0.00    +0.000 C 
ATOM     18  C   UNL     1      28.723 -25.377 -14.218  0.00  0.00    +0.000 C 
ENDBRANCH   7  10
ENDBRANCH   6   7
ENDBRANCH   1   6
BRANCH   1  19
ATOM     19  C   UNL     1      35.923 -22.182 -16.561  0.00  0.00    +0.080 C 
BRANCH  19  21
ATOM     20  O   UNL     1      34.509 -23.574 -17.942  0.00  0.00    -0.291 OA
ATOM     21  C   UNL     1      35.108 -22.509 -17.808  0.00  0.00    +0.174 C 
BRANCH  21  22
ATOM     22  C   UNL     1      35.048 -21.501 -18.906  0.00  0.00    +0.035 C 
ATOM     23  C   UNL     1      36.223 -20.921 -19.386  0.00  0.00    +0.003 C 
ATOM     24  C   UNL     1      33.817 -21.139 -19.454  0.00  0.00    +0.003 C 
ATOM     25  C   UNL     1      34.935 -19.617 -20.960  0.00  0.00    +0.000 C 
ATOM     26  C   UNL     1      36.166 -19.979 -20.413  0.00  0.00    +0.000 C 
ATOM     27  C   UNL     1      33.760 -20.197 -20.481  0.00  0.00    +0.000 C 
BRANCH  25  28
ATOM     28  C   UNL     1      34.875 -18.639 -22.025  0.00  0.00    +0.000 C 
ATOM     29  C   UNL     1      34.379 -19.003 -23.278  0.00  0.00    +0.003 C 
ATOM     30  C   UNL     1      35.315 -17.334 -21.801  0.00  0.00    +0.003 C 
ATOM     31  C   UNL     1      34.323 -18.061 -24.305  0.00  0.00    +0.037 C 
ATOM     32  C   UNL     1      35.259 -16.394 -22.828  0.00  0.00    +0.037 C 
ATOM     33  C   UNL     1      34.763 -16.757 -24.081  0.00  0.00    +0.139 C 
BRANCH  33  34
ATOM     34  O   UNL     1      34.706 -15.838 -25.084  0.00  0.00    -0.475 OA
BRANCH  34  35
ATOM     35  C   UNL     1      33.435 -15.245 -25.349  0.00  0.00    +0.206 C 
ATOM     36  C   UNL     1      33.188 -14.139 -24.345  0.00  0.00    +0.051 C 
ENDBRANCH  34  35
ENDBRANCH  33  34
ENDBRANCH  25  28
ENDBRANCH  21  22
ENDBRANCH  19  21
ENDBRANCH   1  19
TORSDOF 11
ENDMDL
MODEL 4
REMARK VINA RESULT:     -11.7      4.047      7.932
REMARK  Name = 448384
REMARK  11 active torsions:
REMARK  status: ('A' for Active; 'I' for Inactive)
REMARK    1  A    between atoms: C_1  and  C_3
REMARK    2  A    between atoms: C_1  and  C_6
REMARK    3  A    between atoms: C_1  and  C_19
REMARK    4  A    between atoms: C_3  and  O_4
REMARK    5  A    between atoms: C_6  and  C_7
REMARK    6  A    between atoms: C_7  and  N_10
REMARK    7  A    between atoms: C_19  and  C_21
REMARK    8  A    between atoms: C_21  and  C_22
REMARK    9  A    between atoms: C_25  and  C_28
REMARK   10  A    between atoms: C_33  and  O_34
REMARK   11  A    between atoms: O_34  and  C_35
REMARK                            x       y       z     vdW  Elec       q    Type
REMARK                         _______ _______ _______ _____ _____    ______ ____
ROOT
ATOM      1  C   UNL     1      35.812 -18.716 -21.420  0.00  0.00    +0.108 C 
ENDROOT
BRANCH   1   3
ATOM      2  O   UNL     1      37.496 -19.076 -19.701  0.00  0.00    -0.250 OA
ATOM      3  C   UNL     1      37.227 -18.841 -20.873  0.00  0.00    +0.314 C 
BRANCH   3   4
ATOM      4  O   UNL     1      38.177 -18.672 -21.825  0.00  0.00    -0.480 OA
ATOM      5  H   UNL     1      38.462 -19.402 -22.338  0.00  0.00    +0.295 HD
ENDBRANCH   3   4
ENDBRANCH   1   3
BRANCH   1   6
ATOM      6  C   UNL     1      34.848 -19.609 -20.612  0.00  0.00    +0.034 C 
BRANCH   6   7
ATOM      7  C   UNL     1      35.364 -21.030 -20.386  0.00  0.00    +0.102 C 
BRANCH   7  10
ATOM      8  O   UNL     1      32.586 -21.834 -19.666  0.00  0.00    -0.269 OA
ATOM      9  O   UNL     1      36.878 -21.768 -17.923  0.00  0.00    -0.269 OA
ATOM     10  N   UNL     1      34.882 -21.622 -19.171  0.00  0.00    -0.223 N 
ATOM     11  C   UNL     1      33.557 -21.961 -18.942  0.00  0.00    +0.255 C 
ATOM     12  C   UNL     1      35.683 -21.928 -18.081  0.00  0.00    +0.255 C 
ATOM     13  C   UNL     1      33.511 -22.538 -17.599  0.00  0.00    +0.058 C 
ATOM     14  C   UNL     1      34.797 -22.519 -17.078  0.00  0.00    +0.058 C 
ATOM     15  C   UNL     1      32.442 -23.040 -16.885  0.00  0.00    +0.005 C 
ATOM     16  C   UNL     1      35.081 -22.998 -15.817  0.00  0.00    +0.005 C 
ATOM     17  C   UNL     1      32.706 -23.531 -15.605  0.00  0.00    +0.000 C 
ATOM     18  C   UNL     1      34.013 -23.511 -15.075  0.00  0.00    +0.000 C 
ENDBRANCH   7  10
ENDBRANCH   6   7
ENDBRANCH   1   6
BRANCH   1  19
ATOM     19  C   UNL     1      35.381 -17.238 -21.326  0.00  0.00    +0.080 C 
BRANCH  19  21
ATOM     20  O   UNL     1      35.198 -17.232 -23.736  0.00  0.00    -0.291 OA
ATOM     21  C   UNL     1      35.006 -16.639 -22.678  0.00  0.00    +0.174 C 
BRANCH  21  22
ATOM     22  C   UNL     1      34.393 -15.279 -22.710  0.00  0.00    +0.035 C 
ATOM     23  C   UNL     1      33.928 -14.751 -23.914  0.00  0.00    +0.003 C 
ATOM     24  C   UNL     1      34.285 -14.536 -21.534  0.00  0.00    +0.003 C 
ATOM     25  C   UNL     1      33.247 -12.737 -22.767  0.00  0.00    +0.000 C 
ATOM     26  C   UNL     1      33.356 -13.480 -23.943  0.00  0.00    +0.000 C 
ATOM     27  C   UNL     1      33.712 -13.264 -21.563  0.00  0.00    +0.000 C 
BRANCH  25  28
ATOM     28  C   UNL     1      32.654 -11.417 -22.796  0.00  0.00    +0.000 C 
ATOM     29  C   UNL     1      31.825 -11.003 -21.753  0.00  0.00    +0.003 C 
ATOM     30  C   UNL     1      32.908 -10.560 -23.868  0.00  0.00    +0.003 C 
ATOM     31  C   UNL     1      31.251  -9.732 -21.781  0.00  0.00    +0.037 C 
ATOM     32  C   UNL     1      32.334  -9.290 -23.895  0.00  0.00    +0.037 C 
ATOM     33  C   UNL     1      31.505  -8.876 -22.853  0.00  0.00    +0.139 C 
BRANCH  33  34
ATOM     34  O   UNL     1      30.946  -7.634 -22.878  0.00  0.00    -0.475 OA
BRANCH  34  35
ATOM     35  C   UNL     1      31.487  -6.661 -21.986  0.00  0.00    +0.206 C 
ATOM     36  C   UNL     1      30.480  -5.545 -21.805  0.00  0.00    +0.051 C 
ENDBRANCH  34  35
ENDBRANCH  33  34
ENDBRANCH  25  28
ENDBRANCH  21  22
ENDBRANCH  19  21
ENDBRANCH   1  19
TORSDOF 11
ENDMDL
MODEL 5
REMARK VINA RESULT:     -11.7      3.605     11.514
REMARK  Name = 448384
REMARK  11 active torsions:
REMARK  status: ('A' for Active; 'I' for Inactive)
REMARK    1  A    between atoms: C_1  and  C_3
REMARK    2  A    between atoms: C_1  and  C_6
REMARK    3  A    between atoms: C_1  and  C_19
REMARK    4  A    between atoms: C_3  and  O_4
REMARK    5  A    between atoms: C_6  and  C_7
REMARK    6  A    between atoms: C_7  and  N_10
REMARK    7  A    between atoms: C_19  and  C_21
REMARK    8  A    between atoms: C_21  and  C_22
REMARK    9  A    between atoms: C_25  and  C_28
REMARK   10  A    between atoms: C_33  and  O_34
REMARK   11  A    between atoms: O_34  and  C_35
REMARK                            x       y       z     vdW  Elec       q    Type
REMARK                         _______ _______ _______ _____ _____    ______ ____
ROOT
ATOM      1  C   UNL     1      34.950 -17.727 -23.630  0.00  0.00    +0.108 C 
ENDROOT
BRANCH   1   3
ATOM      2  O   UNL     1      33.633 -16.602 -25.340  0.00  0.00    -0.250 OA
ATOM      3  C   UNL     1      33.859 -17.613 -24.685  0.00  0.00    +0.314 C 
BRANCH   3   4
ATOM      4  O   UNL     1      33.152 -18.760 -24.839  0.00  0.00    -0.480 OA
ATOM      5  H   UNL     1      32.234 -18.723 -25.020  0.00  0.00    +0.295 HD
ENDBRANCH   3   4
ENDBRANCH   1   3
BRANCH   1   6
ATOM      6  C   UNL     1      34.703 -16.708 -22.498  0.00  0.00    +0.034 C 
BRANCH   6   7
ATOM      7  C   UNL     1      35.020 -15.264 -22.886  0.00  0.00    +0.102 C 
BRANCH   7  10
ATOM      8  O   UNL     1      34.439 -14.632 -20.031  0.00  0.00    -0.269 OA
ATOM      9  O   UNL     1      33.164 -13.416 -24.316  0.00  0.00    -0.269 OA
ATOM     10  N   UNL     1      34.091 -14.314 -22.341  0.00  0.00    -0.223 N 
ATOM     11  C   UNL     1      33.903 -14.099 -20.984  0.00  0.00    +0.255 C 
ATOM     12  C   UNL     1      33.273 -13.497 -23.107  0.00  0.00    +0.255 C 
ATOM     13  C   UNL     1      32.887 -13.052 -20.876  0.00  0.00    +0.058 C 
ATOM     14  C   UNL     1      32.506 -12.688 -22.160  0.00  0.00    +0.058 C 
ATOM     15  C   UNL     1      32.336 -12.463 -19.757  0.00  0.00    +0.005 C 
ATOM     16  C   UNL     1      31.555 -11.717 -22.391  0.00  0.00    +0.005 C 
ATOM     17  C   UNL     1      31.370 -11.476 -19.966  0.00  0.00    +0.000 C 
ATOM     18  C   UNL     1      30.982 -11.107 -21.271  0.00  0.00    +0.000 C 
ENDBRANCH   7  10
ENDBRANCH   6   7
ENDBRANCH   1   6
BRANCH   1  19
ATOM     19  C   UNL     1      34.940 -19.163 -23.071  0.00  0.00    +0.080 C 
BRANCH  19  21
ATOM     20  O   UNL     1      36.877 -18.813 -21.669  0.00  0.00    -0.291 OA
ATOM     21  C   UNL     1      35.762 -19.313 -21.795  0.00  0.00    +0.174 C 
BRANCH  21  22
ATOM     22  C   UNL     1      35.191 -20.104 -20.667  0.00  0.00    +0.035 C 
ATOM     23  C   UNL     1      33.808 -20.169 -20.489  0.00  0.00    +0.003 C 
ATOM     24  C   UNL     1      36.039 -20.782 -19.791  0.00  0.00    +0.003 C 
ATOM     25  C   UNL     1      34.124 -21.586 -18.558  0.00  0.00    +0.000 C 
ATOM     26  C   UNL     1      33.275 -20.909 -19.434  0.00  0.00    +0.000 C 
ATOM     27  C   UNL     1      35.505 -21.523 -18.736  0.00  0.00    +0.000 C 
BRANCH  25  28
ATOM     28  C   UNL     1      33.571 -22.354 -17.463  0.00  0.00    +0.000 C 
ATOM     29  C   UNL     1      32.188 -22.424 -17.290  0.00  0.00    +0.003 C 
ATOM     30  C   UNL     1      34.419 -23.021 -16.580  0.00  0.00    +0.003 C 
ATOM     31  C   UNL     1      31.654 -23.162 -16.234  0.00  0.00    +0.037 C 
ATOM     32  C   UNL     1      33.885 -23.759 -15.524  0.00  0.00    +0.037 C 
ATOM     33  C   UNL     1      32.503 -23.829 -15.350  0.00  0.00    +0.139 C 
BRANCH  33  34
ATOM     34  O   UNL     1      31.981 -24.552 -14.321  0.00  0.00    -0.475 OA
BRANCH  34  35
ATOM     35  C   UNL     1      30.604 -24.340 -14.012  0.00  0.00    +0.206 C 
ATOM     36  C   UNL     1      29.833 -25.612 -14.295  0.00  0.00    +0.051 C 
ENDBRANCH  34  35
ENDBRANCH  33  34
ENDBRANCH  25  28
ENDBRANCH  21  22
ENDBRANCH  19  21
ENDBRANCH   1  19
TORSDOF 11
ENDMDL
MODEL 6
REMARK VINA RESULT:     -11.6      3.352     11.410
REMARK  Name = 448384
REMARK  11 active torsions:
REMARK  status: ('A' for Active; 'I' for Inactive)
REMARK    1  A    between atoms: C_1  and  C_3
REMARK    2  A    between atoms: C_1  and  C_6
REMARK    3  A    between atoms: C_1  and  C_19
REMARK    4  A    between atoms: C_3  and  O_4
REMARK    5  A    between atoms: C_6  and  C_7
REMARK    6  A    between atoms: C_7  and  N_10
REMARK    7  A    between atoms: C_19  and  C_21
REMARK    8  A    between atoms: C_21  and  C_22
REMARK    9  A    between atoms: C_25  and  C_28
REMARK   10  A    between atoms: C_33  and  O_34
REMARK   11  A    between atoms: O_34  and  C_35
REMARK                            x       y       z     vdW  Elec       q    Type
REMARK                         _______ _______ _______ _____ _____    ______ ____
ROOT
ATOM      1  C   UNL     1      35.221 -18.693 -21.326  0.00  0.00    +0.108 C 
ENDROOT
BRANCH   1   3
ATOM      2  O   UNL     1      37.217 -18.767 -19.935  0.00  0.00    -0.250 OA
ATOM      3  C   UNL     1      36.719 -18.700 -21.052  0.00  0.00    +0.314 C 
BRANCH   3   4
ATOM      4  O   UNL     1      37.462 -18.630 -22.185  0.00  0.00    -0.480 OA
ATOM      5  H   UNL     1      38.304 -18.221 -22.168  0.00  0.00    +0.295 HD
ENDBRANCH   3   4
ENDBRANCH   1   3
BRANCH   1   6
ATOM      6  C   UNL     1      34.918 -17.885 -22.604  0.00  0.00    +0.034 C 
BRANCH   6   7
ATOM      7  C   UNL     1      35.548 -16.492 -22.618  0.00  0.00    +0.102 C 
BRANCH   7  10
ATOM      8  O   UNL     1      34.830 -15.570 -19.876  0.00  0.00    -0.269 OA
ATOM      9  O   UNL     1      33.879 -14.703 -24.327  0.00  0.00    -0.269 OA
ATOM     10  N   UNL     1      34.639 -15.454 -22.223  0.00  0.00    -0.223 N 
ATOM     11  C   UNL     1      34.380 -15.104 -20.906  0.00  0.00    +0.255 C 
ATOM     12  C   UNL     1      33.911 -14.676 -23.111  0.00  0.00    +0.255 C 
ATOM     13  C   UNL     1      33.414 -14.007 -20.959  0.00  0.00    +0.058 C 
ATOM     14  C   UNL     1      33.131 -13.747 -22.293  0.00  0.00    +0.058 C 
ATOM     15  C   UNL     1      32.828 -13.291 -19.936  0.00  0.00    +0.005 C 
ATOM     16  C   UNL     1      32.246 -12.760 -22.672  0.00  0.00    +0.005 C 
ATOM     17  C   UNL     1      31.928 -12.285 -20.296  0.00  0.00    +0.000 C 
ATOM     18  C   UNL     1      31.639 -12.022 -21.651  0.00  0.00    +0.000 C 
ENDBRANCH   7  10
ENDBRANCH   6   7
ENDBRANCH   1   6
BRANCH   1  19
ATOM     19  C   UNL     1      34.748 -20.151 -21.488  0.00  0.00    +0.080 C 
BRANCH  19  21
ATOM     20  O   UNL     1      32.549 -20.348 -20.504  0.00  0.00    -0.291 OA
ATOM     21  C   UNL     1      33.752 -20.579 -20.414  0.00  0.00    +0.174 C 
BRANCH  21  22
ATOM     22  C   UNL     1      34.265 -21.292 -19.209  0.00  0.00    +0.035 C 
ATOM     23  C   UNL     1      35.620 -21.223 -18.880  0.00  0.00    +0.003 C 
ATOM     24  C   UNL     1      33.390 -22.028 -18.410  0.00  0.00    +0.003 C 
ATOM     25  C   UNL     1      35.223 -22.626 -16.954  0.00  0.00    +0.000 C 
ATOM     26  C   UNL     1      36.098 -21.890 -17.753  0.00  0.00    +0.000 C 
ATOM     27  C   UNL     1      33.870 -22.696 -17.282  0.00  0.00    +0.000 C 
BRANCH  25  28
ATOM     28  C   UNL     1      35.720 -23.319 -15.785  0.00  0.00    +0.000 C 
ATOM     29  C   UNL     1      34.877 -24.174 -15.072  0.00  0.00    +0.003 C 
ATOM     30  C   UNL     1      37.038 -23.131 -15.368  0.00  0.00    +0.003 C 
ATOM     31  C   UNL     1      35.354 -24.841 -13.944  0.00  0.00    +0.037 C 
ATOM     32  C   UNL     1      37.514 -23.799 -14.240  0.00  0.00    +0.037 C 
ATOM     33  C   UNL     1      36.672 -24.653 -13.528  0.00  0.00    +0.139 C 
BRANCH  33  34
ATOM     34  O   UNL     1      37.138 -25.307 -12.428  0.00  0.00    -0.475 OA
BRANCH  34  35
ATOM     35  C   UNL     1      37.492 -24.508 -11.299  0.00  0.00    +0.206 C 
ATOM     36  C   UNL     1      36.231 -24.112 -10.560  0.00  0.00    +0.051 C 
ENDBRANCH  34  35
ENDBRANCH  33  34
ENDBRANCH  25  28
ENDBRANCH  21  22
ENDBRANCH  19  21
ENDBRANCH   1  19
TORSDOF 11
ENDMDL
MODEL 7
REMARK VINA RESULT:     -11.5      3.349     11.298
REMARK  Name = 448384
REMARK  11 active torsions:
REMARK  status: ('A' for Active; 'I' for Inactive)
REMARK    1  A    between atoms: C_1  and  C_3
REMARK    2  A    between atoms: C_1  and  C_6
REMARK    3  A    between atoms: C_1  and  C_19
REMARK    4  A    between atoms: C_3  and  O_4
REMARK    5  A    between atoms: C_6  and  C_7
REMARK    6  A    between atoms: C_7  and  N_10
REMARK    7  A    between atoms: C_19  and  C_21
REMARK    8  A    between atoms: C_21  and  C_22
REMARK    9  A    between atoms: C_25  and  C_28
REMARK   10  A    between atoms: C_33  and  O_34
REMARK   11  A    between atoms: O_34  and  C_35
REMARK                            x       y       z     vdW  Elec       q    Type
REMARK                         _______ _______ _______ _____ _____    ______ ____
ROOT
ATOM      1  C   UNL     1      35.238 -18.717 -21.310  0.00  0.00    +0.108 C 
ENDROOT
BRANCH   1   3
ATOM      2  O   UNL     1      37.234 -18.801 -19.920  0.00  0.00    -0.250 OA
ATOM      3  C   UNL     1      36.736 -18.720 -21.036  0.00  0.00    +0.314 C 
BRANCH   3   4
ATOM      4  O   UNL     1      37.478 -18.630 -22.168  0.00  0.00    -0.480 OA
ATOM      5  H   UNL     1      37.489 -19.340 -22.779  0.00  0.00    +0.295 HD
ENDBRANCH   3   4
ENDBRANCH   1   3
BRANCH   1   6
ATOM      6  C   UNL     1      34.936 -17.929 -22.600  0.00  0.00    +0.034 C 
BRANCH   6   7
ATOM      7  C   UNL     1      35.559 -16.533 -22.633  0.00  0.00    +0.102 C 
BRANCH   7  10
ATOM      8  O   UNL     1      33.895 -14.724 -24.318  0.00  0.00    -0.269 OA
ATOM      9  O   UNL     1      34.858 -15.627 -19.877  0.00  0.00    -0.269 OA
ATOM     10  N   UNL     1      34.653 -15.498 -22.224  0.00  0.00    -0.223 N 
ATOM     11  C   UNL     1      33.922 -14.712 -23.102  0.00  0.00    +0.255 C 
ATOM     12  C   UNL     1      34.399 -15.161 -20.903  0.00  0.00    +0.255 C 
ATOM     13  C   UNL     1      33.130 -13.804 -22.272  0.00  0.00    +0.058 C 
ATOM     14  C   UNL     1      33.418 -14.076 -20.942  0.00  0.00    +0.058 C 
ATOM     15  C   UNL     1      32.232 -12.822 -22.638  0.00  0.00    +0.005 C 
ATOM     16  C   UNL     1      32.825 -13.380 -19.910  0.00  0.00    +0.005 C 
ATOM     17  C   UNL     1      31.619 -12.104 -21.609  0.00  0.00    +0.000 C 
ATOM     18  C   UNL     1      31.913 -12.379 -20.257  0.00  0.00    +0.000 C 
ENDBRANCH   7  10
ENDBRANCH   6   7
ENDBRANCH   1   6
BRANCH   1  19
ATOM     19  C   UNL     1      34.764 -20.178 -21.449  0.00  0.00    +0.080 C 
BRANCH  19  21
ATOM     20  O   UNL     1      32.589 -20.362 -20.413  0.00  0.00    -0.291 OA
ATOM     21  C   UNL     1      33.793 -20.597 -20.351  0.00  0.00    +0.174 C 
BRANCH  21  22
ATOM     22  C   UNL     1      34.332 -21.309 -19.155  0.00  0.00    +0.035 C 
ATOM     23  C   UNL     1      35.689 -21.220 -18.843  0.00  0.00    +0.003 C 
ATOM     24  C   UNL     1      33.478 -22.062 -18.350  0.00  0.00    +0.003 C 
ATOM     25  C   UNL     1      35.337 -22.639 -16.919  0.00  0.00    +0.000 C 
ATOM     26  C   UNL     1      36.191 -21.885 -17.725  0.00  0.00    +0.000 C 
ATOM     27  C   UNL     1      33.981 -22.728 -17.231  0.00  0.00    +0.000 C 
BRANCH  25  28
ATOM     28  C   UNL     1      35.859 -23.330 -15.759  0.00  0.00    +0.000 C 
ATOM     29  C   UNL     1      37.178 -23.118 -15.357  0.00  0.00    +0.003 C 
ATOM     30  C   UNL     1      35.044 -24.209 -15.046  0.00  0.00    +0.003 C 
ATOM     31  C   UNL     1      37.682 -23.785 -14.241  0.00  0.00    +0.037 C 
ATOM     32  C   UNL     1      35.549 -24.876 -13.930  0.00  0.00    +0.037 C 
ATOM     33  C   UNL     1      36.867 -24.664 -13.527  0.00  0.00    +0.139 C 
BRANCH  33  34
ATOM     34  O   UNL     1      37.359 -25.313 -12.436  0.00  0.00    -0.475 OA
BRANCH  34  35
ATOM     35  C   UNL     1      37.792 -24.507 -11.341  0.00  0.00    +0.206 C 
ATOM     36  C   UNL     1      36.617 -23.698 -10.831  0.00  0.00    +0.051 C 
ENDBRANCH  34  35
ENDBRANCH  33  34
ENDBRANCH  25  28
ENDBRANCH  21  22
ENDBRANCH  19  21
ENDBRANCH   1  19
TORSDOF 11
ENDMDL
MODEL 8
REMARK VINA RESULT:     -11.5      1.850      4.563
REMARK  Name = 448384
REMARK  11 active torsions:
REMARK  status: ('A' for Active; 'I' for Inactive)
REMARK    1  A    between atoms: C_1  and  C_3
REMARK    2  A    between atoms: C_1  and  C_6
REMARK    3  A    between atoms: C_1  and  C_19
REMARK    4  A    between atoms: C_3  and  O_4
REMARK    5  A    between atoms: C_6  and  C_7
REMARK    6  A    between atoms: C_7  and  N_10
REMARK    7  A    between atoms: C_19  and  C_21
REMARK    8  A    between atoms: C_21  and  C_22
REMARK    9  A    between atoms: C_25  and  C_28
REMARK   10  A    between atoms: C_33  and  O_34
REMARK   11  A    between atoms: O_34  and  C_35
REMARK                            x       y       z     vdW  Elec       q    Type
REMARK                         _______ _______ _______ _____ _____    ______ ____
ROOT
ATOM      1  C   UNL     1      34.971 -24.200 -15.063  0.00  0.00    +0.108 C 
ENDROOT
BRANCH   1   3
ATOM      2  O   UNL     1      35.987 -26.411 -15.008  0.00  0.00    -0.250 OA
ATOM      3  C   UNL     1      36.124 -25.194 -15.041  0.00  0.00    +0.314 C 
BRANCH   3   4
ATOM      4  O   UNL     1      37.339 -24.592 -15.066  0.00  0.00    -0.480 OA
ATOM      5  H   UNL     1      38.119 -25.111 -15.045  0.00  0.00    +0.295 HD
ENDBRANCH   3   4
ENDBRANCH   1   3
BRANCH   1   6
ATOM      6  C   UNL     1      34.812 -23.541 -13.678  0.00  0.00    +0.034 C 
BRANCH   6   7
ATOM      7  C   UNL     1      33.560 -23.987 -12.921  0.00  0.00    +0.102 C 
BRANCH   7  10
ATOM      8  O   UNL     1      31.506 -26.088 -13.421  0.00  0.00    -0.269 OA
ATOM      9  O   UNL     1      32.486 -21.687 -14.490  0.00  0.00    -0.269 OA
ATOM     10  N   UNL     1      32.363 -23.910 -13.709  0.00  0.00    -0.223 N 
ATOM     11  C   UNL     1      31.470 -24.958 -13.872  0.00  0.00    +0.255 C 
ATOM     12  C   UNL     1      31.956 -22.778 -14.400  0.00  0.00    +0.255 C 
ATOM     13  C   UNL     1      30.400 -24.450 -14.731  0.00  0.00    +0.058 C 
ATOM     14  C   UNL     1      30.694 -23.131 -15.049  0.00  0.00    +0.058 C 
ATOM     15  C   UNL     1      29.264 -25.078 -15.199  0.00  0.00    +0.005 C 
ATOM     16  C   UNL     1      29.868 -22.374 -15.853  0.00  0.00    +0.005 C 
ATOM     17  C   UNL     1      28.412 -24.329 -16.014  0.00  0.00    +0.000 C 
ATOM     18  C   UNL     1      28.711 -22.990 -16.340  0.00  0.00    +0.000 C 
ENDBRANCH   7  10
ENDBRANCH   6   7
ENDBRANCH   1   6
BRANCH   1  19
ATOM     19  C   UNL     1      35.268 -23.133 -16.135  0.00  0.00    +0.080 C 
BRANCH  19  21
ATOM     20  O   UNL     1      33.434 -24.050 -17.414  0.00  0.00    -0.291 OA
ATOM     21  C   UNL     1      34.298 -23.183 -17.311  0.00  0.00    +0.174 C 
BRANCH  21  22
ATOM     22  C   UNL     1      34.415 -22.145 -18.377  0.00  0.00    +0.035 C 
ATOM     23  C   UNL     1      33.265 -21.588 -18.938  0.00  0.00    +0.003 C 
ATOM     24  C   UNL     1      35.674 -21.732 -18.812  0.00  0.00    +0.003 C 
ATOM     25  C   UNL     1      34.635 -20.205 -20.369  0.00  0.00    +0.000 C 
ATOM     26  C   UNL     1      33.376 -20.618 -19.934  0.00  0.00    +0.000 C 
ATOM     27  C   UNL     1      35.785 -20.762 -19.808  0.00  0.00    +0.000 C 
BRANCH  25  28
ATOM     28  C   UNL     1      34.751 -19.199 -21.403  0.00  0.00    +0.000 C 
ATOM     29  C   UNL     1      35.263 -17.938 -21.094  0.00  0.00    +0.003 C 
ATOM     30  C   UNL     1      34.348 -19.489 -22.707  0.00  0.00    +0.003 C 
ATOM     31  C   UNL     1      35.372 -16.968 -22.090  0.00  0.00    +0.037 C 
ATOM     32  C   UNL     1      34.458 -18.518 -23.701  0.00  0.00    +0.037 C 
ATOM     33  C   UNL     1      34.969 -17.257 -23.393  0.00  0.00    +0.139 C 
BRANCH  33  34
ATOM     34  O   UNL     1      35.079 -16.310 -24.365  0.00  0.00    -0.475 OA
BRANCH  34  35
ATOM     35  C   UNL     1      34.269 -15.143 -24.228  0.00  0.00    +0.206 C 
ATOM     36  C   UNL     1      33.390 -15.007 -25.454  0.00  0.00    +0.051 C 
ENDBRANCH  34  35
ENDBRANCH  33  34
ENDBRANCH  25  28
ENDBRANCH  21  22
ENDBRANCH  19  21
ENDBRANCH   1  19
TORSDOF 11
ENDMDL
MODEL 9
REMARK VINA RESULT:     -11.5      4.416     12.047
REMARK  Name = 448384
REMARK  11 active torsions:
REMARK  status: ('A' for Active; 'I' for Inactive)
REMARK    1  A    between atoms: C_1  and  C_3
REMARK    2  A    between atoms: C_1  and  C_6
REMARK    3  A    between atoms: C_1  and  C_19
REMARK    4  A    between atoms: C_3  and  O_4
REMARK    5  A    between atoms: C_6  and  C_7
REMARK    6  A    between atoms: C_7  and  N_10
REMARK    7  A    between atoms: C_19  and  C_21
REMARK    8  A    between atoms: C_21  and  C_22
REMARK    9  A    between atoms: C_25  and  C_28
REMARK   10  A    between atoms: C_33  and  O_34
REMARK   11  A    between atoms: O_34  and  C_35
REMARK                            x       y       z     vdW  Elec       q    Type
REMARK                         _______ _______ _______ _____ _____    ______ ____
ROOT
ATOM      1  C   UNL     1      34.264 -15.259 -22.605  0.00  0.00    +0.108 C 
ENDROOT
BRANCH   1   3
ATOM      2  O   UNL     1      34.795 -15.832 -20.300  0.00  0.00    -0.250 OA
ATOM      3  C   UNL     1      34.804 -15.006 -21.204  0.00  0.00    +0.314 C 
BRANCH   3   4
ATOM      4  O   UNL     1      35.309 -13.756 -21.053  0.00  0.00    -0.480 OA
ATOM      5  H   UNL     1      34.916 -13.163 -20.444  0.00  0.00    +0.295 HD
ENDBRANCH   3   4
ENDBRANCH   1   3
BRANCH   1   6
ATOM      6  C   UNL     1      33.952 -13.920 -23.305  0.00  0.00    +0.034 C 
BRANCH   6   7
ATOM      7  C   UNL     1      32.494 -13.480 -23.176  0.00  0.00    +0.102 C 
BRANCH   7  10
ATOM      8  O   UNL     1      32.624 -10.544 -23.670  0.00  0.00    -0.269 OA
ATOM      9  O   UNL     1      31.884 -13.587 -20.256  0.00  0.00    -0.269 OA
ATOM     10  N   UNL     1      32.308 -12.399 -22.250  0.00  0.00    -0.223 N 
ATOM     11  C   UNL     1      32.389 -11.058 -22.592  0.00  0.00    +0.255 C 
ATOM     12  C   UNL     1      32.022 -12.566 -20.903  0.00  0.00    +0.255 C 
ATOM     13  C   UNL     1      32.126 -10.308 -21.364  0.00  0.00    +0.058 C 
ATOM     14  C   UNL     1      31.904 -11.220 -20.342  0.00  0.00    +0.058 C 
ATOM     15  C   UNL     1      32.082  -8.946 -21.148  0.00  0.00    +0.005 C 
ATOM     16  C   UNL     1      31.628 -10.819 -19.053  0.00  0.00    +0.005 C 
ATOM     17  C   UNL     1      31.804  -8.516 -19.849  0.00  0.00    +0.000 C 
ATOM     18  C   UNL     1      31.579  -9.443 -18.810  0.00  0.00    +0.000 C 
ENDBRANCH   7  10
ENDBRANCH   6   7
ENDBRANCH   1   6
BRANCH   1  19
ATOM     19  C   UNL     1      35.323 -16.047 -23.401  0.00  0.00    +0.080 C 
BRANCH  19  21
ATOM     20  O   UNL     1      34.562 -17.970 -24.653  0.00  0.00    -0.291 OA
ATOM     21  C   UNL     1      34.961 -17.518 -23.583  0.00  0.00    +0.174 C 
BRANCH  21  22
ATOM     22  C   UNL     1      35.087 -18.433 -22.411  0.00  0.00    +0.035 C 
ATOM     23  C   UNL     1      36.285 -18.494 -21.699  0.00  0.00    +0.003 C 
ATOM     24  C   UNL     1      34.006 -19.227 -22.028  0.00  0.00    +0.003 C 
ATOM     25  C   UNL     1      35.321 -20.144 -20.221  0.00  0.00    +0.000 C 
ATOM     26  C   UNL     1      36.402 -19.350 -20.604  0.00  0.00    +0.000 C 
ATOM     27  C   UNL     1      34.123 -20.084 -20.933  0.00  0.00    +0.000 C 
BRANCH  25  28
ATOM     28  C   UNL     1      35.442 -21.033 -19.085  0.00  0.00    +0.000 C 
ATOM     29  C   UNL     1      36.634 -21.079 -18.361  0.00  0.00    +0.003 C 
ATOM     30  C   UNL     1      34.370 -21.845 -18.716  0.00  0.00    +0.003 C 
ATOM     31  C   UNL     1      36.753 -21.937 -17.267  0.00  0.00    +0.037 C 
ATOM     32  C   UNL     1      34.489 -22.703 -17.623  0.00  0.00    +0.037 C 
ATOM     33  C   UNL     1      35.680 -22.749 -16.899  0.00  0.00    +0.139 C 
BRANCH  33  34
ATOM     34  O   UNL     1      35.796 -23.584 -15.830  0.00  0.00    -0.475 OA
BRANCH  34  35
ATOM     35  C   UNL     1      34.687 -23.650 -14.934  0.00  0.00    +0.206 C 
ATOM     36  C   UNL     1      35.204 -23.687 -13.511  0.00  0.00    +0.051 C 
ENDBRANCH  34  35
ENDBRANCH  33  34
ENDBRANCH  25  28
ENDBRANCH  21  22
ENDBRANCH  19  21
ENDBRANCH   1  19
TORSDOF 11
ENDMDL
