MODEL 1
REMARK VINA RESULT:     -11.0      0.000      0.000
REMARK  Name = 24986635
REMARK  5 active torsions:
REMARK  status: ('A' for Active; 'I' for Inactive)
REMARK    1  A    between atoms: C_1  and  C_8
REMARK    2  A    between atoms: C_4  and  S_18
REMARK    3  A    between atoms: C_8  and  C_15
REMARK    4  A    between atoms: S_18  and  C_19
REMARK    5  A    between atoms: C_20  and  C_27
REMARK                            x       y       z     vdW  Elec       q    Type
REMARK                         _______ _______ _______ _____ _____    ______ ____
ROOT
ATOM      1  C   UNL     1      36.940 -23.249 -15.083  0.00  0.00    -0.014 C 
ATOM      2  C   UNL     1      35.746 -23.432 -15.781  0.00  0.00    +0.003 C 
ATOM      3  C   UNL     1      37.761 -22.160 -15.379  0.00  0.00    -0.004 C 
ATOM      4  C   UNL     1      35.373 -22.527 -16.775  0.00  0.00    +0.029 C 
ATOM      5  C   UNL     1      37.388 -21.255 -16.372  0.00  0.00    +0.000 C 
ATOM      6  C   UNL     1      36.194 -21.438 -17.070  0.00  0.00    +0.006 C 
ENDROOT
BRANCH   1   8
ATOM      7  O   UNL     1      38.377 -26.915 -13.335  0.00  0.00    -0.354 OA
ATOM      8  C   UNL     1      37.352 -24.246 -13.988  0.00  0.00    +0.092 C 
ATOM      9  C   UNL     1      38.832 -24.674 -14.170  0.00  0.00    +0.045 C 
ATOM     10  C   UNL     1      36.482 -25.528 -13.937  0.00  0.00    +0.045 C 
ATOM     11  C   UNL     1      39.248 -25.795 -13.220  0.00  0.00    +0.143 C 
ATOM     12  C   UNL     1      37.039 -26.583 -12.983  0.00  0.00    +0.143 C 
BRANCH   8  15
ATOM     13  O   UNL     1      38.165 -23.208 -11.975  0.00  0.00    -0.275 OA
ATOM     14  N   UNL     1      35.889 -23.327 -12.289  0.00  0.00    -0.329 N 
ATOM     15  C   UNL     1      37.197 -23.538 -12.656  0.00  0.00    +0.222 C 
ATOM     16  H   UNL     1      35.682 -22.874 -11.439  0.00  0.00    +0.145 HD
ATOM     17  H   UNL     1      35.158 -23.629 -12.875  0.00  0.00    +0.145 HD
ENDBRANCH   8  15
ENDBRANCH   1   8
BRANCH   4  18
ATOM     18  S   UNL     1      33.848 -22.760 -17.667  0.00  0.00    -0.087 S 
BRANCH  18  19
ATOM     19  C   UNL     1      34.062 -21.621 -19.027  0.00  0.00    +0.029 C 
ATOM     20  C   UNL     1      34.395 -19.843 -21.152  0.00  0.00    +0.015 C 
ATOM     21  C   UNL     1      35.316 -21.470 -19.620  0.00  0.00    +0.007 C 
ATOM     22  C   UNL     1      32.975 -20.883 -19.497  0.00  0.00    +0.007 C 
ATOM     23  C   UNL     1      35.482 -20.582 -20.682  0.00  0.00    +0.002 C 
ATOM     24  C   UNL     1      33.141 -19.995 -20.559  0.00  0.00    +0.002 C 
BRANCH  20  27
ATOM     25  N   UNL     1      34.984 -17.633 -22.106  0.00  0.00    -0.210 N 
ATOM     26  N   UNL     1      35.071 -16.958 -23.265  0.00  0.00    -0.176 NA
ATOM     27  C   UNL     1      34.568 -18.924 -22.250  0.00  0.00    +0.071 C 
ATOM     28  C   UNL     1      34.368 -19.106 -23.596  0.00  0.00    +0.039 C 
ATOM     29  C   UNL     1      35.323 -16.956 -20.875  0.00  0.00    +0.140 C 
ATOM     30  C   UNL     1      34.693 -17.864 -24.172  0.00  0.00    +0.119 C 
ENDBRANCH  20  27
ENDBRANCH  18  19
ENDBRANCH   4  18
TORSDOF 5
ENDMDL
MODEL 2
REMARK VINA RESULT:     -10.9      1.164      2.081
REMARK  Name = 24986635
REMARK  5 active torsions:
REMARK  status: ('A' for Active; 'I' for Inactive)
REMARK    1  A    between atoms: C_1  and  C_8
REMARK    2  A    between atoms: C_4  and  S_18
REMARK    3  A    between atoms: C_8  and  C_15
REMARK    4  A    between atoms: S_18  and  C_19
REMARK    5  A    between atoms: C_20  and  C_27
REMARK                            x       y       z     vdW  Elec       q    Type
REMARK                         _______ _______ _______ _____ _____    ______ ____
ROOT
ATOM      1  C   UNL     1      36.550 -23.476 -14.781  0.00  0.00    -0.014 C 
ATOM      2  C   UNL     1      35.327 -23.531 -15.449  0.00  0.00    +0.003 C 
ATOM      3  C   UNL     1      37.569 -22.651 -15.260  0.00  0.00    -0.004 C 
ATOM      4  C   UNL     1      35.122 -22.762 -16.595  0.00  0.00    +0.029 C 
ATOM      5  C   UNL     1      37.365 -21.882 -16.405  0.00  0.00    +0.000 C 
ATOM      6  C   UNL     1      36.142 -21.937 -17.073  0.00  0.00    +0.006 C 
ENDROOT
BRANCH   1   8
ATOM      7  O   UNL     1      36.825 -24.423 -10.587  0.00  0.00    -0.354 OA
ATOM      8  C   UNL     1      36.776 -24.322 -13.518  0.00  0.00    +0.092 C 
ATOM      9  C   UNL     1      35.504 -24.326 -12.630  0.00  0.00    +0.045 C 
ATOM     10  C   UNL     1      37.970 -23.855 -12.648  0.00  0.00    +0.045 C 
ATOM     11  C   UNL     1      35.725 -25.003 -11.279  0.00  0.00    +0.143 C 
ATOM     12  C   UNL     1      38.043 -24.581 -11.306  0.00  0.00    +0.143 C 
BRANCH   8  15
ATOM     13  O   UNL     1      38.217 -26.172 -14.056  0.00  0.00    -0.275 OA
ATOM     14  N   UNL     1      35.947 -26.463 -14.294  0.00  0.00    -0.329 N 
ATOM     15  C   UNL     1      37.071 -25.738 -13.973  0.00  0.00    +0.222 C 
ATOM     16  H   UNL     1      36.033 -27.395 -14.600  0.00  0.00    +0.145 HD
ATOM     17  H   UNL     1      35.057 -26.050 -14.218  0.00  0.00    +0.145 HD
ENDBRANCH   8  15
ENDBRANCH   1   8
BRANCH   4  18
ATOM     18  S   UNL     1      33.560 -22.831 -17.449  0.00  0.00    -0.087 S 
BRANCH  18  19
ATOM     19  C   UNL     1      33.865 -21.734 -18.826  0.00  0.00    +0.029 C 
ATOM     20  C   UNL     1      34.343 -20.020 -20.974  0.00  0.00    +0.015 C 
ATOM     21  C   UNL     1      32.838 -20.926 -19.315  0.00  0.00    +0.007 C 
ATOM     22  C   UNL     1      35.131 -21.684 -19.410  0.00  0.00    +0.007 C 
ATOM     23  C   UNL     1      33.078 -20.070 -20.389  0.00  0.00    +0.002 C 
ATOM     24  C   UNL     1      35.370 -20.827 -20.484  0.00  0.00    +0.002 C 
BRANCH  20  27
ATOM     25  N   UNL     1      35.057 -17.858 -21.955  0.00  0.00    -0.210 N 
ATOM     26  N   UNL     1      35.209 -17.213 -23.124  0.00  0.00    -0.176 NA
ATOM     27  C   UNL     1      34.590 -19.134 -22.085  0.00  0.00    +0.071 C 
ATOM     28  C   UNL     1      34.425 -19.337 -23.433  0.00  0.00    +0.039 C 
ATOM     29  C   UNL     1      35.386 -17.169 -20.728  0.00  0.00    +0.140 C 
ATOM     30  C   UNL     1      34.821 -18.122 -24.024  0.00  0.00    +0.119 C 
ENDBRANCH  20  27
ENDBRANCH  18  19
ENDBRANCH   4  18
TORSDOF 5
ENDMDL
MODEL 3
REMARK VINA RESULT:     -10.5      7.989     13.406
REMARK  Name = 24986635
REMARK  5 active torsions:
REMARK  status: ('A' for Active; 'I' for Inactive)
REMARK    1  A    between atoms: C_1  and  C_8
REMARK    2  A    between atoms: C_4  and  S_18
REMARK    3  A    between atoms: C_8  and  C_15
REMARK    4  A    between atoms: S_18  and  C_19
REMARK    5  A    between atoms: C_20  and  C_27
REMARK                            x       y       z     vdW  Elec       q    Type
REMARK                         _______ _______ _______ _____ _____    ______ ____
ROOT
ATOM      1  C   UNL     1      32.752 -10.754 -22.705  0.00  0.00    -0.014 C 
ATOM      2  C   UNL     1      33.216 -11.654 -23.663  0.00  0.00    +0.003 C 
ATOM      3  C   UNL     1      32.048 -11.221 -21.593  0.00  0.00    -0.004 C 
ATOM      4  C   UNL     1      32.977 -13.020 -23.512  0.00  0.00    +0.029 C 
ATOM      5  C   UNL     1      31.810 -12.586 -21.441  0.00  0.00    +0.000 C 
ATOM      6  C   UNL     1      32.274 -13.487 -22.400  0.00  0.00    +0.006 C 
ENDROOT
BRANCH   1   8
ATOM      7  O   UNL     1      34.729  -6.956 -22.234  0.00  0.00    -0.354 OA
ATOM      8  C   UNL     1      33.015  -9.249 -22.870  0.00  0.00    +0.092 C 
ATOM      9  C   UNL     1      34.408  -9.006 -23.506  0.00  0.00    +0.045 C 
ATOM     10  C   UNL     1      32.942  -8.444 -21.547  0.00  0.00    +0.045 C 
ATOM     11  C   UNL     1      34.800  -7.530 -23.534  0.00  0.00    +0.143 C 
ATOM     12  C   UNL     1      33.407  -6.998 -21.709  0.00  0.00    +0.143 C 
BRANCH   8  15
ATOM     13  O   UNL     1      32.107  -8.621 -25.008  0.00  0.00    -0.275 OA
ATOM     14  N   UNL     1      30.800  -8.305 -23.141  0.00  0.00    -0.329 N 
ATOM     15  C   UNL     1      31.943  -8.705 -23.793  0.00  0.00    +0.222 C 
ATOM     16  H   UNL     1      30.043  -7.937 -23.653  0.00  0.00    +0.145 HD
ATOM     17  H   UNL     1      30.737  -8.387 -22.162  0.00  0.00    +0.145 HD
ENDBRANCH   8  15
ENDBRANCH   1   8
BRANCH   4  18
ATOM     18  S   UNL     1      33.570 -14.171 -24.737  0.00  0.00    -0.087 S 
BRANCH  18  19
ATOM     19  C   UNL     1      34.257 -15.457 -23.704  0.00  0.00    +0.029 C 
ATOM     20  C   UNL     1      35.329 -17.466 -22.093  0.00  0.00    +0.015 C 
ATOM     21  C   UNL     1      34.617 -15.176 -22.386  0.00  0.00    +0.007 C 
ATOM     22  C   UNL     1      34.433 -16.743 -24.216  0.00  0.00    +0.007 C 
ATOM     23  C   UNL     1      35.153 -16.180 -21.581  0.00  0.00    +0.002 C 
ATOM     24  C   UNL     1      34.968 -17.747 -23.411  0.00  0.00    +0.002 C 
BRANCH  20  27
ATOM     25  N   UNL     1      35.137 -19.459 -20.631  0.00  0.00    -0.210 N 
ATOM     26  N   UNL     1      35.863 -20.324 -19.903  0.00  0.00    -0.176 NA
ATOM     27  C   UNL     1      35.883 -18.505 -21.259  0.00  0.00    +0.071 C 
ATOM     28  C   UNL     1      37.188 -18.764 -20.917  0.00  0.00    +0.039 C 
ATOM     29  C   UNL     1      33.701 -19.614 -20.676  0.00  0.00    +0.140 C 
ATOM     30  C   UNL     1      37.116 -19.894 -20.082  0.00  0.00    +0.119 C 
ENDBRANCH  20  27
ENDBRANCH  18  19
ENDBRANCH   4  18
TORSDOF 5
ENDMDL
MODEL 4
REMARK VINA RESULT:     -10.0     11.425     17.141
REMARK  Name = 24986635
REMARK  5 active torsions:
REMARK  status: ('A' for Active; 'I' for Inactive)
REMARK    1  A    between atoms: C_1  and  C_8
REMARK    2  A    between atoms: C_4  and  S_18
REMARK    3  A    between atoms: C_8  and  C_15
REMARK    4  A    between atoms: S_18  and  C_19
REMARK    5  A    between atoms: C_20  and  C_27
REMARK                            x       y       z     vdW  Elec       q    Type
REMARK                         _______ _______ _______ _____ _____    ______ ____
ROOT
ATOM      1  C   UNL     1      33.953  -6.232 -24.761  0.00  0.00    -0.014 C 
ATOM      2  C   UNL     1      32.870  -7.032 -24.398  0.00  0.00    +0.003 C 
ATOM      3  C   UNL     1      35.126  -6.262 -24.005  0.00  0.00    -0.004 C 
ATOM      4  C   UNL     1      32.958  -7.860 -23.280  0.00  0.00    +0.029 C 
ATOM      5  C   UNL     1      35.214  -7.091 -22.887  0.00  0.00    +0.000 C 
ATOM      6  C   UNL     1      34.130  -7.890 -22.524  0.00  0.00    +0.006 C 
ENDROOT
BRANCH   1   8
ATOM      7  O   UNL     1      34.859  -4.675 -28.675  0.00  0.00    -0.354 OA
ATOM      8  C   UNL     1      33.858  -5.319 -25.994  0.00  0.00    +0.092 C 
ATOM      9  C   UNL     1      33.532  -6.150 -27.263  0.00  0.00    +0.045 C 
ATOM     10  C   UNL     1      35.141  -4.495 -26.274  0.00  0.00    +0.045 C 
ATOM     11  C   UNL     1      33.599  -5.325 -28.547  0.00  0.00    +0.143 C 
ATOM     12  C   UNL     1      35.091  -3.759 -27.611  0.00  0.00    +0.143 C 
BRANCH   8  15
ATOM     13  O   UNL     1      31.668  -4.389 -26.349  0.00  0.00    -0.275 OA
ATOM     14  N   UNL     1      33.030  -3.388 -24.788  0.00  0.00    -0.329 N 
ATOM     15  C   UNL     1      32.732  -4.336 -25.739  0.00  0.00    +0.222 C 
ATOM     16  H   UNL     1      32.363  -2.703 -24.550  0.00  0.00    +0.145 HD
ATOM     17  H   UNL     1      33.909  -3.394 -24.344  0.00  0.00    +0.145 HD
ENDBRANCH   8  15
ENDBRANCH   1   8
BRANCH   4  18
ATOM     18  S   UNL     1      31.573  -8.881 -22.815  0.00  0.00    -0.087 S 
BRANCH  18  19
ATOM     19  C   UNL     1      32.294 -10.514 -22.914  0.00  0.00    +0.029 C 
ATOM     20  C   UNL     1      33.419 -13.062 -23.068  0.00  0.00    +0.015 C 
ATOM     21  C   UNL     1      33.400 -10.739 -23.735  0.00  0.00    +0.007 C 
ATOM     22  C   UNL     1      31.752 -11.562 -22.171  0.00  0.00    +0.007 C 
ATOM     23  C   UNL     1      33.962 -12.012 -23.811  0.00  0.00    +0.002 C 
ATOM     24  C   UNL     1      32.314 -12.835 -22.247  0.00  0.00    +0.002 C 
BRANCH  20  27
ATOM     25  N   UNL     1      33.907 -15.190 -24.241  0.00  0.00    -0.210 N 
ATOM     26  N   UNL     1      34.522 -16.375 -24.093  0.00  0.00    -0.176 NA
ATOM     27  C   UNL     1      34.002 -14.379 -23.148  0.00  0.00    +0.071 C 
ATOM     28  C   UNL     1      34.729 -15.083 -22.220  0.00  0.00    +0.039 C 
ATOM     29  C   UNL     1      33.234 -14.902 -25.487  0.00  0.00    +0.140 C 
ATOM     30  C   UNL     1      35.023 -16.304 -22.856  0.00  0.00    +0.119 C 
ENDBRANCH  20  27
ENDBRANCH  18  19
ENDBRANCH   4  18
TORSDOF 5
ENDMDL
MODEL 5
REMARK VINA RESULT:      -9.9     11.406     17.201
REMARK  Name = 24986635
REMARK  5 active torsions:
REMARK  status: ('A' for Active; 'I' for Inactive)
REMARK    1  A    between atoms: C_1  and  C_8
REMARK    2  A    between atoms: C_4  and  S_18
REMARK    3  A    between atoms: C_8  and  C_15
REMARK    4  A    between atoms: S_18  and  C_19
REMARK    5  A    between atoms: C_20  and  C_27
REMARK                            x       y       z     vdW  Elec       q    Type
REMARK                         _______ _______ _______ _____ _____    ______ ____
ROOT
ATOM      1  C   UNL     1      34.143  -6.216 -24.923  0.00  0.00    -0.014 C 
ATOM      2  C   UNL     1      33.041  -6.994 -24.569  0.00  0.00    +0.003 C 
ATOM      3  C   UNL     1      35.291  -6.231 -24.129  0.00  0.00    -0.004 C 
ATOM      4  C   UNL     1      33.085  -7.785 -23.422  0.00  0.00    +0.029 C 
ATOM      5  C   UNL     1      35.335  -7.023 -22.982  0.00  0.00    +0.000 C 
ATOM      6  C   UNL     1      34.232  -7.800 -22.628  0.00  0.00    +0.006 C 
ENDROOT
BRANCH   1   8
ATOM      7  O   UNL     1      32.474  -3.704 -28.000  0.00  0.00    -0.354 OA
ATOM      8  C   UNL     1      34.096  -5.344 -26.188  0.00  0.00    +0.092 C 
ATOM      9  C   UNL     1      33.591  -3.918 -25.847  0.00  0.00    +0.045 C 
ATOM     10  C   UNL     1      33.203  -5.914 -27.319  0.00  0.00    +0.045 C 
ATOM     11  C   UNL     1      33.355  -3.058 -27.087  0.00  0.00    +0.143 C 
ATOM     12  C   UNL     1      33.013  -4.932 -28.474  0.00  0.00    +0.143 C 
BRANCH   8  15
ATOM     13  O   UNL     1      36.243  -4.299 -26.487  0.00  0.00    -0.275 OA
ATOM     14  N   UNL     1      35.874  -6.328 -27.508  0.00  0.00    -0.329 N 
ATOM     15  C   UNL     1      35.511  -5.256 -26.726  0.00  0.00    +0.222 C 
ATOM     16  H   UNL     1      36.775  -6.365 -27.905  0.00  0.00    +0.145 HD
ATOM     17  H   UNL     1      35.234  -7.058 -27.671  0.00  0.00    +0.145 HD
ENDBRANCH   8  15
ENDBRANCH   1   8
BRANCH   4  18
ATOM     18  S   UNL     1      31.676  -8.779 -22.969  0.00  0.00    -0.087 S 
BRANCH  18  19
ATOM     19  C   UNL     1      32.383 -10.420 -22.998  0.00  0.00    +0.029 C 
ATOM     20  C   UNL     1      33.485 -12.982 -23.041  0.00  0.00    +0.015 C 
ATOM     21  C   UNL     1      33.381 -10.734 -23.920  0.00  0.00    +0.007 C 
ATOM     22  C   UNL     1      31.936 -11.387 -22.097  0.00  0.00    +0.007 C 
ATOM     23  C   UNL     1      33.932 -12.014 -23.941  0.00  0.00    +0.002 C 
ATOM     24  C   UNL     1      32.487 -12.668 -22.118  0.00  0.00    +0.002 C 
BRANCH  20  27
ATOM     25  N   UNL     1      33.950 -15.165 -24.120  0.00  0.00    -0.210 N 
ATOM     26  N   UNL     1      34.555 -16.348 -23.921  0.00  0.00    -0.176 NA
ATOM     27  C   UNL     1      34.055 -14.307 -23.064  0.00  0.00    +0.071 C 
ATOM     28  C   UNL     1      34.779 -14.976 -22.108  0.00  0.00    +0.039 C 
ATOM     29  C   UNL     1      33.275 -14.926 -25.376  0.00  0.00    +0.140 C 
ATOM     30  C   UNL     1      35.060 -16.226 -22.690  0.00  0.00    +0.119 C 
ENDBRANCH  20  27
ENDBRANCH  18  19
ENDBRANCH   4  18
TORSDOF 5
ENDMDL
MODEL 6
REMARK VINA RESULT:      -9.8      8.128     13.624
REMARK  Name = 24986635
REMARK  5 active torsions:
REMARK  status: ('A' for Active; 'I' for Inactive)
REMARK    1  A    between atoms: C_1  and  C_8
REMARK    2  A    between atoms: C_4  and  S_18
REMARK    3  A    between atoms: C_8  and  C_15
REMARK    4  A    between atoms: S_18  and  C_19
REMARK    5  A    between atoms: C_20  and  C_27
REMARK                            x       y       z     vdW  Elec       q    Type
REMARK                         _______ _______ _______ _____ _____    ______ ____
ROOT
ATOM      1  C   UNL     1      32.405 -10.651 -22.745  0.00  0.00    -0.014 C 
ATOM      2  C   UNL     1      32.859 -11.539 -23.719  0.00  0.00    +0.003 C 
ATOM      3  C   UNL     1      32.025 -11.127 -21.490  0.00  0.00    -0.004 C 
ATOM      4  C   UNL     1      32.934 -12.904 -23.439  0.00  0.00    +0.029 C 
ATOM      5  C   UNL     1      32.099 -12.491 -21.209  0.00  0.00    +0.000 C 
ATOM      6  C   UNL     1      32.553 -13.380 -22.183  0.00  0.00    +0.006 C 
ENDROOT
BRANCH   1   8
ATOM      7  O   UNL     1      30.765  -6.939 -24.193  0.00  0.00    -0.354 OA
ATOM      8  C   UNL     1      32.323  -9.147 -23.052  0.00  0.00    +0.092 C 
ATOM      9  C   UNL     1      31.082  -8.518 -22.367  0.00  0.00    +0.045 C 
ATOM     10  C   UNL     1      32.261  -8.811 -24.565  0.00  0.00    +0.045 C 
ATOM     11  C   UNL     1      30.848  -7.066 -22.778  0.00  0.00    +0.143 C 
ATOM     12  C   UNL     1      31.974  -7.335 -24.831  0.00  0.00    +0.143 C 
BRANCH   8  15
ATOM     13  O   UNL     1      33.586  -7.902 -21.426  0.00  0.00    -0.275 OA
ATOM     14  N   UNL     1      34.681  -8.651 -23.305  0.00  0.00    -0.329 N 
ATOM     15  C   UNL     1      33.579  -8.505 -22.496  0.00  0.00    +0.222 C 
ATOM     16  H   UNL     1      35.547  -8.269 -23.031  0.00  0.00    +0.145 HD
ATOM     17  H   UNL     1      34.606  -9.136 -24.158  0.00  0.00    +0.145 HD
ENDBRANCH   8  15
ENDBRANCH   1   8
BRANCH   4  18
ATOM     18  S   UNL     1      33.514 -14.040 -24.683  0.00  0.00    -0.087 S 
BRANCH  18  19
ATOM     19  C   UNL     1      34.216 -15.335 -23.673  0.00  0.00    +0.029 C 
ATOM     20  C   UNL     1      35.314 -17.357 -22.094  0.00  0.00    +0.015 C 
ATOM     21  C   UNL     1      34.421 -16.606 -24.211  0.00  0.00    +0.007 C 
ATOM     22  C   UNL     1      34.560 -15.076 -22.346  0.00  0.00    +0.007 C 
ATOM     23  C   UNL     1      34.970 -17.616 -23.422  0.00  0.00    +0.002 C 
ATOM     24  C   UNL     1      35.109 -16.086 -21.557  0.00  0.00    +0.002 C 
BRANCH  20  27
ATOM     25  N   UNL     1      35.145 -19.366 -20.652  0.00  0.00    -0.210 N 
ATOM     26  N   UNL     1      35.882 -20.237 -19.942  0.00  0.00    -0.176 NA
ATOM     27  C   UNL     1      35.881 -18.403 -21.279  0.00  0.00    +0.071 C 
ATOM     28  C   UNL     1      37.190 -18.662 -20.956  0.00  0.00    +0.039 C 
ATOM     29  C   UNL     1      33.708 -19.525 -20.681  0.00  0.00    +0.140 C 
ATOM     30  C   UNL     1      37.131 -19.802 -20.132  0.00  0.00    +0.119 C 
ENDBRANCH  20  27
ENDBRANCH  18  19
ENDBRANCH   4  18
TORSDOF 5
ENDMDL
MODEL 7
REMARK VINA RESULT:      -9.8     10.598     15.029
REMARK  Name = 24986635
REMARK  5 active torsions:
REMARK  status: ('A' for Active; 'I' for Inactive)
REMARK    1  A    between atoms: C_1  and  C_8
REMARK    2  A    between atoms: C_4  and  S_18
REMARK    3  A    between atoms: C_8  and  C_15
REMARK    4  A    between atoms: S_18  and  C_19
REMARK    5  A    between atoms: C_20  and  C_27
REMARK                            x       y       z     vdW  Elec       q    Type
REMARK                         _______ _______ _______ _____ _____    ______ ____
ROOT
ATOM      1  C   UNL     1      32.883  -7.712 -21.749  0.00  0.00    -0.014 C 
ATOM      2  C   UNL     1      32.062  -8.835 -21.651  0.00  0.00    +0.003 C 
ATOM      3  C   UNL     1      33.362  -7.096 -20.592  0.00  0.00    -0.004 C 
ATOM      4  C   UNL     1      31.718  -9.341 -20.397  0.00  0.00    +0.029 C 
ATOM      5  C   UNL     1      33.020  -7.602 -19.339  0.00  0.00    +0.000 C 
ATOM      6  C   UNL     1      32.197  -8.724 -19.240  0.00  0.00    +0.006 C 
ENDROOT
BRANCH   1   8
ATOM      7  O   UNL     1      32.407  -5.689 -25.523  0.00  0.00    -0.354 OA
ATOM      8  C   UNL     1      33.262  -7.154 -23.130  0.00  0.00    +0.092 C 
ATOM      9  C   UNL     1      33.045  -5.619 -23.174  0.00  0.00    +0.045 C 
ATOM     10  C   UNL     1      32.477  -7.786 -24.307  0.00  0.00    +0.045 C 
ATOM     11  C   UNL     1      33.236  -5.031 -24.571  0.00  0.00    +0.143 C 
ATOM     12  C   UNL     1      32.725  -7.072 -25.634  0.00  0.00    +0.143 C 
BRANCH   8  15
ATOM     13  O   UNL     1      35.588  -6.576 -23.343  0.00  0.00    -0.275 OA
ATOM     14  N   UNL     1      34.997  -8.788 -23.568  0.00  0.00    -0.329 N 
ATOM     15  C   UNL     1      34.732  -7.456 -23.348  0.00  0.00    +0.222 C 
ATOM     16  H   UNL     1      35.923  -9.087 -23.720  0.00  0.00    +0.145 HD
ATOM     17  H   UNL     1      34.261  -9.442 -23.572  0.00  0.00    +0.145 HD
ENDBRANCH   8  15
ENDBRANCH   1   8
BRANCH   4  18
ATOM     18  S   UNL     1      30.668 -10.775 -20.271  0.00  0.00    -0.087 S 
BRANCH  18  19
ATOM     19  C   UNL     1      31.662 -12.009 -21.097  0.00  0.00    +0.029 C 
ATOM     20  C   UNL     1      33.215 -13.936 -22.385  0.00  0.00    +0.015 C 
ATOM     21  C   UNL     1      31.939 -11.885 -22.459  0.00  0.00    +0.007 C 
ATOM     22  C   UNL     1      32.162 -13.096 -20.379  0.00  0.00    +0.007 C 
ATOM     23  C   UNL     1      32.715 -12.849 -23.102  0.00  0.00    +0.002 C 
ATOM     24  C   UNL     1      32.938 -14.060 -21.023  0.00  0.00    +0.002 C 
BRANCH  20  27
ATOM     25  N   UNL     1      33.913 -15.234 -24.378  0.00  0.00    -0.210 N 
ATOM     26  N   UNL     1      34.757 -16.197 -24.784  0.00  0.00    -0.176 NA
ATOM     27  C   UNL     1      34.017 -14.932 -23.051  0.00  0.00    +0.071 C 
ATOM     28  C   UNL     1      34.997 -15.756 -22.556  0.00  0.00    +0.039 C 
ATOM     29  C   UNL     1      33.015 -14.638 -25.341  0.00  0.00    +0.140 C 
ATOM     30  C   UNL     1      35.418 -16.512 -23.666  0.00  0.00    +0.119 C 
ENDBRANCH  20  27
ENDBRANCH  18  19
ENDBRANCH   4  18
TORSDOF 5
ENDMDL
MODEL 8
REMARK VINA RESULT:      -9.8      4.168      5.370
REMARK  Name = 24986635
REMARK  5 active torsions:
REMARK  status: ('A' for Active; 'I' for Inactive)
REMARK    1  A    between atoms: C_1  and  C_8
REMARK    2  A    between atoms: C_4  and  S_18
REMARK    3  A    between atoms: C_8  and  C_15
REMARK    4  A    between atoms: S_18  and  C_19
REMARK    5  A    between atoms: C_20  and  C_27
REMARK                            x       y       z     vdW  Elec       q    Type
REMARK                         _______ _______ _______ _____ _____    ______ ____
ROOT
ATOM      1  C   UNL     1      32.090 -23.275 -15.247  0.00  0.00    -0.014 C 
ATOM      2  C   UNL     1      32.426 -23.617 -16.556  0.00  0.00    +0.003 C 
ATOM      3  C   UNL     1      33.058 -22.739 -14.396  0.00  0.00    -0.004 C 
ATOM      4  C   UNL     1      33.729 -23.423 -17.016  0.00  0.00    +0.029 C 
ATOM      5  C   UNL     1      34.360 -22.544 -14.855  0.00  0.00    +0.000 C 
ATOM      6  C   UNL     1      34.696 -22.886 -16.165  0.00  0.00    +0.006 C 
ENDROOT
BRANCH   1   8
ATOM      7  O   UNL     1      27.782 -23.213 -15.263  0.00  0.00    -0.354 OA
ATOM      8  C   UNL     1      30.655 -23.488 -14.739  0.00  0.00    +0.092 C 
ATOM      9  C   UNL     1      29.862 -24.396 -15.714  0.00  0.00    +0.045 C 
ATOM     10  C   UNL     1      29.852 -22.177 -14.540  0.00  0.00    +0.045 C 
ATOM     11  C   UNL     1      28.380 -24.501 -15.357  0.00  0.00    +0.143 C 
ATOM     12  C   UNL     1      28.377 -22.429 -14.235  0.00  0.00    +0.143 C 
BRANCH   8  15
ATOM     13  O   UNL     1      30.705 -23.544 -12.334  0.00  0.00    -0.275 OA
ATOM     14  N   UNL     1      30.915 -25.535 -13.468  0.00  0.00    -0.329 N 
ATOM     15  C   UNL     1      30.753 -24.171 -13.389  0.00  0.00    +0.222 C 
ATOM     16  H   UNL     1      30.989 -26.071 -12.645  0.00  0.00    +0.145 HD
ATOM     17  H   UNL     1      30.958 -25.976 -14.348  0.00  0.00    +0.145 HD
ENDBRANCH   8  15
ENDBRANCH   1   8
BRANCH   4  18
ATOM     18  S   UNL     1      34.159 -23.859 -18.689  0.00  0.00    -0.087 S 
BRANCH  18  19
ATOM     19  C   UNL     1      34.392 -22.246 -19.422  0.00  0.00    +0.029 C 
ATOM     20  C   UNL     1      34.758 -19.727 -20.564  0.00  0.00    +0.015 C 
ATOM     21  C   UNL     1      33.288 -21.440 -19.702  0.00  0.00    +0.007 C 
ATOM     22  C   UNL     1      35.679 -21.792 -19.712  0.00  0.00    +0.007 C 
ATOM     23  C   UNL     1      33.472 -20.182 -20.273  0.00  0.00    +0.002 C 
ATOM     24  C   UNL     1      35.862 -20.533 -20.283  0.00  0.00    +0.002 C 
BRANCH  20  27
ATOM     25  N   UNL     1      34.907 -18.183 -22.497  0.00  0.00    -0.210 N 
ATOM     26  N   UNL     1      35.113 -16.896 -22.823  0.00  0.00    -0.176 NA
ATOM     27  C   UNL     1      34.947 -18.425 -21.155  0.00  0.00    +0.071 C 
ATOM     28  C   UNL     1      35.197 -17.212 -20.563  0.00  0.00    +0.039 C 
ATOM     29  C   UNL     1      34.675 -19.144 -23.552  0.00  0.00    +0.140 C 
ATOM     30  C   UNL     1      35.289 -16.307 -21.637  0.00  0.00    +0.119 C 
ENDBRANCH  20  27
ENDBRANCH  18  19
ENDBRANCH   4  18
TORSDOF 5
ENDMDL
MODEL 9
REMARK VINA RESULT:      -9.6      1.624      2.491
REMARK  Name = 24986635
REMARK  5 active torsions:
REMARK  status: ('A' for Active; 'I' for Inactive)
REMARK    1  A    between atoms: C_1  and  C_8
REMARK    2  A    between atoms: C_4  and  S_18
REMARK    3  A    between atoms: C_8  and  C_15
REMARK    4  A    between atoms: S_18  and  C_19
REMARK    5  A    between atoms: C_20  and  C_27
REMARK                            x       y       z     vdW  Elec       q    Type
REMARK                         _______ _______ _______ _____ _____    ______ ____
ROOT
ATOM      1  C   UNL     1      35.073 -23.558 -14.539  0.00  0.00    -0.014 C 
ATOM      2  C   UNL     1      35.004 -23.914 -15.886  0.00  0.00    +0.003 C 
ATOM      3  C   UNL     1      34.015 -22.869 -13.945  0.00  0.00    -0.004 C 
ATOM      4  C   UNL     1      33.878 -23.580 -16.639  0.00  0.00    +0.029 C 
ATOM      5  C   UNL     1      32.889 -22.536 -14.697  0.00  0.00    +0.000 C 
ATOM      6  C   UNL     1      32.820 -22.891 -16.044  0.00  0.00    +0.006 C 
ENDROOT
BRANCH   1   8
ATOM      7  O   UNL     1      37.374 -25.140 -11.258  0.00  0.00    -0.354 OA
ATOM      8  C   UNL     1      36.312 -23.926 -13.708  0.00  0.00    +0.092 C 
ATOM      9  C   UNL     1      36.361 -25.454 -13.450  0.00  0.00    +0.045 C 
ATOM     10  C   UNL     1      36.395 -23.203 -12.339  0.00  0.00    +0.045 C 
ATOM     11  C   UNL     1      37.472 -25.859 -12.483  0.00  0.00    +0.143 C 
ATOM     12  C   UNL     1      37.520 -23.738 -11.455  0.00  0.00    +0.143 C 
BRANCH   8  15
ATOM     13  O   UNL     1      37.810 -22.339 -14.723  0.00  0.00    -0.275 OA
ATOM     14  N   UNL     1      38.263 -24.579 -14.989  0.00  0.00    -0.329 N 
ATOM     15  C   UNL     1      37.530 -23.517 -14.513  0.00  0.00    +0.222 C 
ATOM     16  H   UNL     1      39.074 -24.418 -15.524  0.00  0.00    +0.145 HD
ATOM     17  H   UNL     1      37.976 -25.501 -14.795  0.00  0.00    +0.145 HD
ENDBRANCH   8  15
ENDBRANCH   1   8
BRANCH   4  18
ATOM     18  S   UNL     1      33.789 -24.034 -18.360  0.00  0.00    -0.087 S 
BRANCH  18  19
ATOM     19  C   UNL     1      34.151 -22.473 -19.152  0.00  0.00    +0.029 C 
ATOM     20  C   UNL     1      34.714 -20.036 -20.388  0.00  0.00    +0.015 C 
ATOM     21  C   UNL     1      35.474 -22.099 -19.385  0.00  0.00    +0.007 C 
ATOM     22  C   UNL     1      33.109 -21.628 -19.536  0.00  0.00    +0.007 C 
ATOM     23  C   UNL     1      35.755 -20.882 -20.003  0.00  0.00    +0.002 C 
ATOM     24  C   UNL     1      33.390 -20.411 -20.155  0.00  0.00    +0.002 C 
BRANCH  20  27
ATOM     25  N   UNL     1      35.024 -18.594 -22.379  0.00  0.00    -0.210 N 
ATOM     26  N   UNL     1      35.324 -17.338 -22.753  0.00  0.00    -0.176 NA
ATOM     27  C   UNL     1      35.006 -18.777 -21.027  0.00  0.00    +0.071 C 
ATOM     28  C   UNL     1      35.315 -17.556 -20.479  0.00  0.00    +0.039 C 
ATOM     29  C   UNL     1      34.764 -19.584 -23.399  0.00  0.00    +0.140 C 
ATOM     30  C   UNL     1      35.500 -16.709 -21.587  0.00  0.00    +0.119 C 
ENDBRANCH  20  27
ENDBRANCH  18  19
ENDBRANCH   4  18
TORSDOF 5
ENDMDL
