MODEL 1
REMARK VINA RESULT:     -11.6      0.000      0.000
REMARK  Name = 445018
REMARK  7 active torsions:
REMARK  status: ('A' for Active; 'I' for Inactive)
REMARK    1  A    between atoms: N_2  and  S_14
REMARK    2  A    between atoms: N_3  and  C_25
REMARK    3  A    between atoms: C_4  and  C_10
REMARK    4  A    between atoms: N_9  and  O_12
REMARK    5  A    between atoms: S_14  and  C_17
REMARK    6  A    between atoms: C_22  and  O_23
REMARK    7  A    between atoms: C_25  and  C_26
REMARK                            x       y       z     vdW  Elec       q    Type
REMARK                         _______ _______ _______ _____ _____    ______ ____
ROOT
ATOM      1  O   UNL     1      36.311 -22.643 -16.838  0.00  0.00    -0.275 OA
ATOM      2  N   UNL     1      33.216 -23.927 -14.492  0.00  0.00    -0.128 NA
ATOM      3  N   UNL     1      34.055 -23.198 -16.658  0.00  0.00    -0.260 N 
ATOM      4  C   UNL     1      34.488 -23.500 -13.854  0.00  0.00    +0.168 C 
ATOM      5  C   UNL     1      32.904 -23.241 -15.768  0.00  0.00    +0.192 C 
ATOM      6  C   UNL     1      35.279 -22.492 -14.679  0.00  0.00    +0.112 C 
ATOM      7  C   UNL     1      35.292 -22.795 -16.167  0.00  0.00    +0.229 C 
ENDROOT
BRANCH   4  10
ATOM      8  O   UNL     1      35.500 -25.519 -14.604  0.00  0.00    -0.272 OA
ATOM      9  N   UNL     1      35.662 -24.958 -12.367  0.00  0.00    -0.196 N 
ATOM     10  C   UNL     1      35.262 -24.764 -13.663  0.00  0.00    +0.261 C 
ATOM     11  H   UNL     1      35.443 -24.320 -11.651  0.00  0.00    +0.182 HD
BRANCH   9  12
ATOM     12  O   UNL     1      36.404 -26.122 -12.125  0.00  0.00    -0.295 OA
ATOM     13  H   UNL     1      37.183 -25.905 -11.591  0.00  0.00    +0.241 HD
ENDBRANCH   9  12
ENDBRANCH   4  10
BRANCH   2  14
ATOM     14  S   UNL     1      31.892 -24.232 -13.455  0.00  0.00    +0.065 S 
ATOM     15  O   UNL     1      31.828 -23.195 -12.447  0.00  0.00    -0.153 OA
ATOM     16  O   UNL     1      31.893 -25.632 -13.083  0.00  0.00    -0.153 OA
BRANCH  14  17
ATOM     17  C   UNL     1      30.552 -23.973 -14.577  0.00  0.00    +0.122 C 
ATOM     18  C   UNL     1      30.092 -22.686 -14.797  0.00  0.00    +0.023 C 
ATOM     19  C   UNL     1      29.984 -25.062 -15.216  0.00  0.00    +0.023 C 
ATOM     20  C   UNL     1      29.033 -22.481 -15.682  0.00  0.00    +0.038 C 
ATOM     21  C   UNL     1      28.925 -24.858 -16.102  0.00  0.00    +0.038 C 
ATOM     22  C   UNL     1      28.450 -23.567 -16.334  0.00  0.00    +0.139 C 
BRANCH  22  23
ATOM     23  O   UNL     1      27.418 -23.367 -17.199  0.00  0.00    -0.471 OA
ATOM     24  C   UNL     1      26.740 -22.114 -17.122  0.00  0.00    +0.252 C 
ENDBRANCH  22  23
ENDBRANCH  14  17
ENDBRANCH   2  14
BRANCH   3  25
ATOM     25  C   UNL     1      33.840 -23.450 -18.073  0.00  0.00    +0.121 C 
BRANCH  25  26
ATOM     26  C   UNL     1      33.935 -22.192 -18.888  0.00  0.00    -0.002 C 
ATOM     27  C   UNL     1      32.800 -21.416 -19.090  0.00  0.00    -0.003 C 
ATOM     28  C   UNL     1      35.157 -21.817 -19.435  0.00  0.00    -0.003 C 
ATOM     29  C   UNL     1      32.888 -20.248 -19.847  0.00  0.00    -0.000 C 
ATOM     30  C   UNL     1      35.245 -20.649 -20.192  0.00  0.00    -0.000 C 
ATOM     31  C   UNL     1      34.110 -19.865 -20.399  0.00  0.00    -0.000 C 
ENDBRANCH  25  26
ENDBRANCH   3  25
TORSDOF 7
ENDMDL
MODEL 2
REMARK VINA RESULT:      -9.1      1.694      2.354
REMARK  Name = 445018
REMARK  7 active torsions:
REMARK  status: ('A' for Active; 'I' for Inactive)
REMARK    1  A    between atoms: N_2  and  S_14
REMARK    2  A    between atoms: N_3  and  C_25
REMARK    3  A    between atoms: C_4  and  C_10
REMARK    4  A    between atoms: N_9  and  O_12
REMARK    5  A    between atoms: S_14  and  C_17
REMARK    6  A    between atoms: C_22  and  O_23
REMARK    7  A    between atoms: C_25  and  C_26
REMARK                            x       y       z     vdW  Elec       q    Type
REMARK                         _______ _______ _______ _____ _____    ______ ____
ROOT
ATOM      1  O   UNL     1      36.910 -21.985 -17.653  0.00  0.00    -0.275 OA
ATOM      2  N   UNL     1      35.040 -23.681 -14.436  0.00  0.00    -0.128 NA
ATOM      3  N   UNL     1      34.971 -22.899 -16.740  0.00  0.00    -0.260 N 
ATOM      4  C   UNL     1      36.361 -23.028 -14.252  0.00  0.00    +0.168 C 
ATOM      5  C   UNL     1      34.209 -23.101 -15.517  0.00  0.00    +0.192 C 
ATOM      6  C   UNL     1      36.650 -21.932 -15.271  0.00  0.00    +0.112 C 
ATOM      7  C   UNL     1      36.216 -22.280 -16.683  0.00  0.00    +0.229 C 
ENDROOT
BRANCH   4  10
ATOM      8  O   UNL     1      38.496 -24.025 -13.916  0.00  0.00    -0.272 OA
ATOM      9  N   UNL     1      36.851 -25.251 -14.981  0.00  0.00    -0.196 N 
ATOM     10  C   UNL     1      37.355 -24.139 -14.360  0.00  0.00    +0.261 C 
ATOM     11  H   UNL     1      35.928 -25.289 -15.319  0.00  0.00    +0.182 HD
BRANCH   9  12
ATOM     12  O   UNL     1      37.733 -26.334 -15.103  0.00  0.00    -0.295 OA
ATOM     13  H   UNL     1      38.444 -26.247 -14.450  0.00  0.00    +0.241 HD
ENDBRANCH   9  12
ENDBRANCH   4  10
BRANCH   2  14
ATOM     14  S   UNL     1      34.210 -24.165 -13.023  0.00  0.00    +0.065 S 
ATOM     15  O   UNL     1      34.352 -23.138 -12.012  0.00  0.00    -0.153 OA
ATOM     16  O   UNL     1      34.535 -25.546 -12.730  0.00  0.00    -0.153 OA
BRANCH  14  17
ATOM     17  C   UNL     1      32.543 -24.116 -13.607  0.00  0.00    +0.122 C 
ATOM     18  C   UNL     1      31.858 -25.303 -13.804  0.00  0.00    +0.023 C 
ATOM     19  C   UNL     1      31.950 -22.890 -13.859  0.00  0.00    +0.023 C 
ATOM     20  C   UNL     1      30.543 -25.264 -14.267  0.00  0.00    +0.038 C 
ATOM     21  C   UNL     1      30.634 -22.850 -14.321  0.00  0.00    +0.038 C 
ATOM     22  C   UNL     1      29.931 -24.037 -14.525  0.00  0.00    +0.139 C 
BRANCH  22  23
ATOM     23  O   UNL     1      28.647 -23.999 -14.974  0.00  0.00    -0.471 OA
ATOM     24  C   UNL     1      28.144 -22.733 -15.396  0.00  0.00    +0.252 C 
ENDBRANCH  22  23
ENDBRANCH  14  17
ENDBRANCH   2  14
BRANCH   3  25
ATOM     25  C   UNL     1      34.342 -23.233 -18.007  0.00  0.00    +0.121 C 
BRANCH  25  26
ATOM     26  C   UNL     1      34.173 -22.026 -18.885  0.00  0.00    -0.002 C 
ATOM     27  C   UNL     1      35.248 -21.565 -19.636  0.00  0.00    -0.003 C 
ATOM     28  C   UNL     1      32.943 -21.380 -18.938  0.00  0.00    -0.003 C 
ATOM     29  C   UNL     1      35.091 -20.445 -20.451  0.00  0.00    -0.000 C 
ATOM     30  C   UNL     1      32.786 -20.260 -19.753  0.00  0.00    -0.000 C 
ATOM     31  C   UNL     1      33.860 -19.791 -20.509  0.00  0.00    -0.000 C 
ENDBRANCH  25  26
ENDBRANCH   3  25
TORSDOF 7
ENDMDL
MODEL 3
REMARK VINA RESULT:      -8.7     14.995     18.148
REMARK  Name = 445018
REMARK  7 active torsions:
REMARK  status: ('A' for Active; 'I' for Inactive)
REMARK    1  A    between atoms: N_2  and  S_14
REMARK    2  A    between atoms: N_3  and  C_25
REMARK    3  A    between atoms: C_4  and  C_10
REMARK    4  A    between atoms: N_9  and  O_12
REMARK    5  A    between atoms: S_14  and  C_17
REMARK    6  A    between atoms: C_22  and  O_23
REMARK    7  A    between atoms: C_25  and  C_26
REMARK                            x       y       z     vdW  Elec       q    Type
REMARK                         _______ _______ _______ _____ _____    ______ ____
ROOT
ATOM      1  O   UNL     1      31.853  -8.534 -18.604  0.00  0.00    -0.275 OA
ATOM      2  N   UNL     1      32.461  -7.635 -22.548  0.00  0.00    -0.128 NA
ATOM      3  N   UNL     1      31.867  -9.248 -20.822  0.00  0.00    -0.260 N 
ATOM      4  C   UNL     1      32.912  -6.681 -21.503  0.00  0.00    +0.168 C 
ATOM      5  C   UNL     1      32.472  -9.058 -22.133  0.00  0.00    +0.192 C 
ATOM      6  C   UNL     1      33.226  -7.341 -20.165  0.00  0.00    +0.112 C 
ATOM      7  C   UNL     1      32.233  -8.418 -19.768  0.00  0.00    +0.229 C 
ENDROOT
BRANCH   4  10
ATOM      8  O   UNL     1      30.618  -6.065 -21.370  0.00  0.00    -0.272 OA
ATOM      9  N   UNL     1      32.223  -4.407 -21.244  0.00  0.00    -0.196 N 
ATOM     10  C   UNL     1      31.792  -5.701 -21.370  0.00  0.00    +0.261 C 
ATOM     11  H   UNL     1      33.179  -4.170 -21.251  0.00  0.00    +0.182 HD
BRANCH   9  12
ATOM     12  O   UNL     1      31.218  -3.440 -21.104  0.00  0.00    -0.295 OA
ATOM     13  H   UNL     1      31.059  -3.012 -21.958  0.00  0.00    +0.241 HD
ENDBRANCH   9  12
ENDBRANCH   4  10
BRANCH   2  14
ATOM     14  S   UNL     1      32.944  -7.314 -24.155  0.00  0.00    +0.065 S 
ATOM     15  O   UNL     1      32.257  -8.222 -25.049  0.00  0.00    -0.153 OA
ATOM     16  O   UNL     1      34.386  -7.177 -24.199  0.00  0.00    -0.153 OA
BRANCH  14  17
ATOM     17  C   UNL     1      32.242  -5.708 -24.377  0.00  0.00    +0.122 C 
ATOM     18  C   UNL     1      33.080  -4.609 -24.469  0.00  0.00    +0.023 C 
ATOM     19  C   UNL     1      30.866  -5.576 -24.455  0.00  0.00    +0.023 C 
ATOM     20  C   UNL     1      32.525  -3.341 -24.643  0.00  0.00    +0.038 C 
ATOM     21  C   UNL     1      30.310  -4.307 -24.630  0.00  0.00    +0.038 C 
ATOM     22  C   UNL     1      31.141  -3.190 -24.724  0.00  0.00    +0.139 C 
BRANCH  22  23
ATOM     23  O   UNL     1      30.600  -1.953 -24.896  0.00  0.00    -0.471 OA
ATOM     24  C   UNL     1      29.267  -1.892 -25.399  0.00  0.00    +0.252 C 
ENDBRANCH  22  23
ENDBRANCH  14  17
ENDBRANCH   2  14
BRANCH   3  25
ATOM     25  C   UNL     1      30.994 -10.392 -20.627  0.00  0.00    +0.121 C 
BRANCH  25  26
ATOM     26  C   UNL     1      31.712 -11.691 -20.856  0.00  0.00    -0.002 C 
ATOM     27  C   UNL     1      31.874 -12.169 -22.151  0.00  0.00    -0.003 C 
ATOM     28  C   UNL     1      32.205 -12.406 -19.770  0.00  0.00    -0.003 C 
ATOM     29  C   UNL     1      32.540 -13.375 -22.364  0.00  0.00    -0.000 C 
ATOM     30  C   UNL     1      32.871 -13.612 -19.983  0.00  0.00    -0.000 C 
ATOM     31  C   UNL     1      33.038 -14.098 -21.280  0.00  0.00    -0.000 C 
ENDBRANCH  25  26
ENDBRANCH   3  25
TORSDOF 7
ENDMDL
