MODEL 1
REMARK VINA RESULT:     -12.3      0.000      0.000
REMARK  Name = 11476460
REMARK  8 active torsions:
REMARK  status: ('A' for Active; 'I' for Inactive)
REMARK    1  A    between atoms: C_2  and  N_10
REMARK    2  A    between atoms: C_5  and  C_23
REMARK    3  A    between atoms: C_11  and  C_14
REMARK    4  A    between atoms: C_14  and  O_15
REMARK    5  A    between atoms: O_15  and  P_16
REMARK    6  A    between atoms: P_16  and  O_18
REMARK    7  A    between atoms: P_16  and  O_20
REMARK    8  A    between atoms: C_27  and  C_32
REMARK                            x       y       z     vdW  Elec       q    Type
REMARK                         _______ _______ _______ _____ _____    ______ ____
ROOT
ATOM      1  F   UNL     1      33.406 -22.761 -17.939  0.00  0.00    -0.204 F 
ATOM      2  C   UNL     1      36.110 -23.331 -15.571  0.00  0.00    +0.059 C 
ATOM      3  C   UNL     1      34.864 -23.413 -16.201  0.00  0.00    +0.045 C 
ATOM      4  C   UNL     1      37.097 -22.496 -16.104  0.00  0.00    +0.015 C 
ATOM      5  C   UNL     1      35.596 -21.837 -17.879  0.00  0.00    +0.029 C 
ATOM      6  C   UNL     1      34.607 -22.668 -17.351  0.00  0.00    +0.141 C 
ATOM      7  C   UNL     1      36.841 -21.750 -17.255  0.00  0.00    +0.004 C 
ENDROOT
BRANCH   2  10
ATOM      8  O   UNL     1      36.588 -25.805 -12.943  0.00  0.00    -0.434 OA
ATOM      9  O   UNL     1      35.865 -26.314 -15.031  0.00  0.00    -0.226 OA
ATOM     10  N   UNL     1      36.372 -24.091 -14.396  0.00  0.00    -0.221 N 
ATOM     11  C   UNL     1      37.179 -24.665 -12.304  0.00  0.00    +0.221 C 
ATOM     12  C   UNL     1      36.719 -23.488 -13.138  0.00  0.00    +0.148 C 
ATOM     13  C   UNL     1      36.242 -25.468 -14.232  0.00  0.00    +0.409 C 
BRANCH  11  14
ATOM     14  C   UNL     1      38.692 -24.836 -12.293  0.00  0.00    +0.199 C 
BRANCH  14  15
ATOM     15  O   UNL     1      39.163 -24.790 -13.628  0.00  0.00    -0.269 OA
BRANCH  15  16
ATOM     16  P   UNL     1      39.965 -26.071 -14.210  0.00  0.00    +0.473 P 
ATOM     17  O   UNL     1      41.171 -26.478 -13.414  0.00  0.00    -0.227 OA
BRANCH  16  18
ATOM     18  O   UNL     1      40.255 -25.675 -15.750  0.00  0.00    -0.303 OA
ATOM     19  H   UNL     1      40.226 -24.710 -15.848  0.00  0.00    +0.222 HD
ENDBRANCH  16  18
BRANCH  16  20
ATOM     20  O   UNL     1      38.810 -27.198 -14.326  0.00  0.00    -0.303 OA
ATOM     21  H   UNL     1      39.083 -27.873 -14.967  0.00  0.00    +0.222 HD
ENDBRANCH  16  20
ENDBRANCH  15  16
ENDBRANCH  14  15
ENDBRANCH  11  14
ENDBRANCH   2  10
BRANCH   5  23
ATOM     22  N   UNL     1      36.187 -19.686 -20.865  0.00  0.00    -0.234 NA
ATOM     23  C   UNL     1      35.334 -21.061 -19.072  0.00  0.00    +0.021 C 
ATOM     24  C   UNL     1      34.044 -20.928 -19.569  0.00  0.00    +0.004 C 
ATOM     25  C   UNL     1      36.361 -20.427 -19.748  0.00  0.00    +0.100 C 
ATOM     26  C   UNL     1      33.824 -20.175 -20.716  0.00  0.00    +0.029 C 
ATOM     27  C   UNL     1      34.919 -19.579 -21.322  0.00  0.00    +0.146 C 
BRANCH  27  32
ATOM     28  N   UNL     1      35.064 -17.494 -22.578  0.00  0.00    -0.105 NA
ATOM     29  N   UNL     1      34.721 -17.260 -23.852  0.00  0.00    -0.113 N 
ATOM     30  N   UNL     1      34.248 -19.306 -23.663  0.00  0.00    -0.085 NA
ATOM     31  N   UNL     1      34.233 -18.304 -24.535  0.00  0.00    -0.018 NA
ATOM     32  C   UNL     1      34.749 -18.789 -22.508  0.00  0.00    +0.092 C 
ATOM     33  C   UNL     1      34.868 -15.960 -24.455  0.00  0.00    +0.163 C 
ENDBRANCH  27  32
ENDBRANCH   5  23
TORSDOF 8
ENDMDL
MODEL 2
REMARK VINA RESULT:     -11.0      7.448     11.321
REMARK  Name = 11476460
REMARK  8 active torsions:
REMARK  status: ('A' for Active; 'I' for Inactive)
REMARK    1  A    between atoms: C_2  and  N_10
REMARK    2  A    between atoms: C_5  and  C_23
REMARK    3  A    between atoms: C_11  and  C_14
REMARK    4  A    between atoms: C_14  and  O_15
REMARK    5  A    between atoms: O_15  and  P_16
REMARK    6  A    between atoms: P_16  and  O_18
REMARK    7  A    between atoms: P_16  and  O_20
REMARK    8  A    between atoms: C_27  and  C_32
REMARK                            x       y       z     vdW  Elec       q    Type
REMARK                         _______ _______ _______ _____ _____    ______ ____
ROOT
ATOM      1  F   UNL     1      37.692 -19.821 -19.575  0.00  0.00    -0.204 F 
ATOM      2  C   UNL     1      35.074 -18.847 -21.909  0.00  0.00    +0.059 C 
ATOM      3  C   UNL     1      36.322 -18.939 -21.284  0.00  0.00    +0.045 C 
ATOM      4  C   UNL     1      33.993 -19.574 -21.399  0.00  0.00    +0.015 C 
ATOM      5  C   UNL     1      35.406 -20.471 -19.655  0.00  0.00    +0.029 C 
ATOM      6  C   UNL     1      36.487 -19.748 -20.160  0.00  0.00    +0.141 C 
ATOM      7  C   UNL     1      34.159 -20.383 -20.275  0.00  0.00    +0.004 C 
ENDROOT
BRANCH   2  10
ATOM      8  O   UNL     1      34.355 -17.283 -25.117  0.00  0.00    -0.434 OA
ATOM      9  O   UNL     1      33.836 -19.435 -24.624  0.00  0.00    -0.226 OA
ATOM     10  N   UNL     1      34.905 -18.021 -23.055  0.00  0.00    -0.221 N 
ATOM     11  C   UNL     1      34.774 -16.127 -24.379  0.00  0.00    +0.221 C 
ATOM     12  C   UNL     1      35.446 -16.692 -23.146  0.00  0.00    +0.148 C 
ATOM     13  C   UNL     1      34.314 -18.367 -24.268  0.00  0.00    +0.409 C 
BRANCH  11  14
ATOM     14  C   UNL     1      33.549 -15.279 -24.058  0.00  0.00    +0.199 C 
BRANCH  14  15
ATOM     15  O   UNL     1      33.822 -13.936 -24.417  0.00  0.00    -0.269 OA
BRANCH  15  16
ATOM     16  P   UNL     1      33.784 -12.805 -23.259  0.00  0.00    +0.473 P 
ATOM     17  O   UNL     1      32.422 -12.519 -22.696  0.00  0.00    -0.227 OA
BRANCH  16  18
ATOM     18  O   UNL     1      34.534 -11.541 -23.932  0.00  0.00    -0.303 OA
ATOM     19  H   UNL     1      35.194 -11.858 -24.569  0.00  0.00    +0.222 HD
ENDBRANCH  16  18
BRANCH  16  20
ATOM     20  O   UNL     1      34.865 -13.350 -22.186  0.00  0.00    -0.303 OA
ATOM     21  H   UNL     1      34.665 -12.982 -21.311  0.00  0.00    +0.222 HD
ENDBRANCH  16  20
ENDBRANCH  15  16
ENDBRANCH  14  15
ENDBRANCH  11  14
ENDBRANCH   2  10
BRANCH   5  23
ATOM     22  N   UNL     1      34.697 -23.047 -17.057  0.00  0.00    -0.234 NA
ATOM     23  C   UNL     1      35.572 -21.311 -18.489  0.00  0.00    +0.021 C 
ATOM     24  C   UNL     1      36.706 -21.212 -17.693  0.00  0.00    +0.004 C 
ATOM     25  C   UNL     1      34.605 -22.234 -18.133  0.00  0.00    +0.100 C 
ATOM     26  C   UNL     1      36.837 -22.031 -16.578  0.00  0.00    +0.029 C 
ATOM     27  C   UNL     1      35.813 -22.924 -16.305  0.00  0.00    +0.146 C 
BRANCH  27  32
ATOM     28  N   UNL     1      36.866 -24.692 -14.996  0.00  0.00    -0.105 NA
ATOM     29  N   UNL     1      36.477 -25.209 -13.822  0.00  0.00    -0.113 N 
ATOM     30  N   UNL     1      34.976 -23.767 -14.161  0.00  0.00    -0.085 NA
ATOM     31  N   UNL     1      35.362 -24.691 -13.290  0.00  0.00    -0.018 NA
ATOM     32  C   UNL     1      35.895 -23.793 -15.166  0.00  0.00    +0.092 C 
ATOM     33  C   UNL     1      37.213 -26.261 -13.170  0.00  0.00    +0.163 C 
ENDBRANCH  27  32
ENDBRANCH   5  23
TORSDOF 8
ENDMDL
MODEL 3
REMARK VINA RESULT:     -10.5     10.973     14.668
REMARK  Name = 11476460
REMARK  8 active torsions:
REMARK  status: ('A' for Active; 'I' for Inactive)
REMARK    1  A    between atoms: C_2  and  N_10
REMARK    2  A    between atoms: C_5  and  C_23
REMARK    3  A    between atoms: C_11  and  C_14
REMARK    4  A    between atoms: C_14  and  O_15
REMARK    5  A    between atoms: O_15  and  P_16
REMARK    6  A    between atoms: P_16  and  O_18
REMARK    7  A    between atoms: P_16  and  O_20
REMARK    8  A    between atoms: C_27  and  C_32
REMARK                            x       y       z     vdW  Elec       q    Type
REMARK                         _______ _______ _______ _____ _____    ______ ____
ROOT
ATOM      1  F   UNL     1      31.892 -13.463 -20.661  0.00  0.00    -0.204 F 
ATOM      2  C   UNL     1      32.477 -10.632 -22.873  0.00  0.00    +0.059 C 
ATOM      3  C   UNL     1      31.904 -11.448 -21.893  0.00  0.00    +0.045 C 
ATOM      4  C   UNL     1      33.612 -11.075 -23.560  0.00  0.00    +0.015 C 
ATOM      5  C   UNL     1      33.590 -13.132 -22.292  0.00  0.00    +0.029 C 
ATOM      6  C   UNL     1      32.458 -12.695 -21.603  0.00  0.00    +0.141 C 
ATOM      7  C   UNL     1      34.167 -12.322 -23.271  0.00  0.00    +0.004 C 
ENDROOT
BRANCH   2  10
ATOM      8  O   UNL     1      30.980  -7.314 -22.957  0.00  0.00    -0.434 OA
ATOM      9  O   UNL     1      31.435  -8.440 -21.041  0.00  0.00    -0.226 OA
ATOM     10  N   UNL     1      31.911  -9.360 -23.169  0.00  0.00    -0.221 N 
ATOM     11  C   UNL     1      31.324  -7.454 -24.343  0.00  0.00    +0.221 C 
ATOM     12  C   UNL     1      31.619  -8.929 -24.509  0.00  0.00    +0.148 C 
ATOM     13  C   UNL     1      31.463  -8.401 -22.263  0.00  0.00    +0.409 C 
BRANCH  11  14
ATOM     14  C   UNL     1      32.524  -6.565 -24.643  0.00  0.00    +0.199 C 
BRANCH  14  15
ATOM     15  O   UNL     1      33.680  -7.379 -24.729  0.00  0.00    -0.269 OA
BRANCH  15  16
ATOM     16  P   UNL     1      34.869  -7.149 -23.655  0.00  0.00    +0.473 P 
ATOM     17  O   UNL     1      35.716  -8.357 -23.378  0.00  0.00    -0.227 OA
BRANCH  16  18
ATOM     18  O   UNL     1      34.110  -6.528 -22.369  0.00  0.00    -0.303 OA
ATOM     19  H   UNL     1      34.760  -6.320 -21.679  0.00  0.00    +0.222 HD
ENDBRANCH  16  18
BRANCH  16  20
ATOM     20  O   UNL     1      35.667  -5.881 -24.264  0.00  0.00    -0.303 OA
ATOM     21  H   UNL     1      35.296  -5.652 -25.130  0.00  0.00    +0.222 HD
ENDBRANCH  16  20
ENDBRANCH  15  16
ENDBRANCH  14  15
ENDBRANCH  11  14
ENDBRANCH   2  10
BRANCH   5  23
ATOM     22  N   UNL     1      34.923 -16.016 -20.344  0.00  0.00    -0.234 NA
ATOM     23  C   UNL     1      34.169 -14.425 -21.996  0.00  0.00    +0.021 C 
ATOM     24  C   UNL     1      34.525 -15.298 -23.016  0.00  0.00    +0.004 C 
ATOM     25  C   UNL     1      34.386 -14.825 -20.690  0.00  0.00    +0.100 C 
ATOM     26  C   UNL     1      35.080 -16.533 -22.700  0.00  0.00    +0.029 C 
ATOM     27  C   UNL     1      35.257 -16.842 -21.361  0.00  0.00    +0.146 C 
BRANCH  27  32
ATOM     28  N   UNL     1      35.108 -19.116 -20.494  0.00  0.00    -0.105 NA
ATOM     29  N   UNL     1      36.093 -20.007 -20.308  0.00  0.00    -0.113 N 
ATOM     30  N   UNL     1      37.161 -18.360 -21.080  0.00  0.00    -0.085 NA
ATOM     31  N   UNL     1      37.326 -19.602 -20.642  0.00  0.00    -0.018 NA
ATOM     32  C   UNL     1      35.827 -18.101 -20.978  0.00  0.00    +0.092 C 
ATOM     33  C   UNL     1      35.841 -21.323 -19.781  0.00  0.00    +0.163 C 
ENDBRANCH  27  32
ENDBRANCH   5  23
TORSDOF 8
ENDMDL
MODEL 4
REMARK VINA RESULT:     -10.5      6.096      9.174
REMARK  Name = 11476460
REMARK  8 active torsions:
REMARK  status: ('A' for Active; 'I' for Inactive)
REMARK    1  A    between atoms: C_2  and  N_10
REMARK    2  A    between atoms: C_5  and  C_23
REMARK    3  A    between atoms: C_11  and  C_14
REMARK    4  A    between atoms: C_14  and  O_15
REMARK    5  A    between atoms: O_15  and  P_16
REMARK    6  A    between atoms: P_16  and  O_18
REMARK    7  A    between atoms: P_16  and  O_20
REMARK    8  A    between atoms: C_27  and  C_32
REMARK                            x       y       z     vdW  Elec       q    Type
REMARK                         _______ _______ _______ _____ _____    ______ ____
ROOT
ATOM      1  F   UNL     1      34.241 -15.239 -24.488  0.00  0.00    -0.204 F 
ATOM      2  C   UNL     1      35.215 -17.208 -21.587  0.00  0.00    +0.059 C 
ATOM      3  C   UNL     1      34.959 -16.844 -22.912  0.00  0.00    +0.045 C 
ATOM      4  C   UNL     1      34.988 -16.284 -20.562  0.00  0.00    +0.015 C 
ATOM      5  C   UNL     1      34.256 -14.650 -22.184  0.00  0.00    +0.029 C 
ATOM      6  C   UNL     1      34.481 -15.568 -23.211  0.00  0.00    +0.141 C 
ATOM      7  C   UNL     1      34.509 -15.008 -20.860  0.00  0.00    +0.004 C 
ENDROOT
BRANCH   2  10
ATOM      8  O   UNL     1      37.072 -20.246 -20.826  0.00  0.00    -0.434 OA
ATOM      9  O   UNL     1      38.050 -18.230 -21.177  0.00  0.00    -0.226 OA
ATOM     10  N   UNL     1      35.702 -18.510 -21.282  0.00  0.00    -0.221 N 
ATOM     11  C   UNL     1      35.739 -20.720 -20.595  0.00  0.00    +0.221 C 
ATOM     12  C   UNL     1      34.852 -19.668 -21.226  0.00  0.00    +0.148 C 
ATOM     13  C   UNL     1      37.028 -18.897 -21.099  0.00  0.00    +0.409 C 
BRANCH  11  14
ATOM     14  C   UNL     1      35.522 -20.865 -19.095  0.00  0.00    +0.199 C 
BRANCH  14  15
ATOM     15  O   UNL     1      35.393 -22.241 -18.786  0.00  0.00    -0.269 OA
BRANCH  15  16
ATOM     16  P   UNL     1      33.916 -22.828 -18.475  0.00  0.00    +0.473 P 
ATOM     17  O   UNL     1      32.779 -21.953 -18.919  0.00  0.00    -0.227 OA
BRANCH  16  18
ATOM     18  O   UNL     1      33.958 -23.156 -16.892  0.00  0.00    -0.303 OA
ATOM     19  H   UNL     1      34.841 -22.955 -16.544  0.00  0.00    +0.222 HD
ENDBRANCH  16  18
BRANCH  16  20
ATOM     20  O   UNL     1      33.957 -24.293 -19.160  0.00  0.00    -0.303 OA
ATOM     21  H   UNL     1      33.225 -24.830 -18.818  0.00  0.00    +0.222 HD
ENDBRANCH  16  20
ENDBRANCH  15  16
ENDBRANCH  14  15
ENDBRANCH  11  14
ENDBRANCH   2  10
BRANCH   5  23
ATOM     22  N   UNL     1      32.273 -11.503 -21.936  0.00  0.00    -0.234 NA
ATOM     23  C   UNL     1      33.759 -13.325 -22.489  0.00  0.00    +0.021 C 
ATOM     24  C   UNL     1      34.247 -12.611 -23.576  0.00  0.00    +0.004 C 
ATOM     25  C   UNL     1      32.782 -12.734 -21.707  0.00  0.00    +0.100 C 
ATOM     26  C   UNL     1      33.749 -11.341 -23.844  0.00  0.00    +0.029 C 
ATOM     27  C   UNL     1      32.771 -10.837 -23.001  0.00  0.00    +0.146 C 
BRANCH  27  32
ATOM     28  N   UNL     1      31.749  -8.752 -22.258  0.00  0.00    -0.105 NA
ATOM     29  N   UNL     1      31.372  -7.696 -22.992  0.00  0.00    -0.113 N 
ATOM     30  N   UNL     1      32.134  -8.986 -24.476  0.00  0.00    -0.085 NA
ATOM     31  N   UNL     1      31.581  -7.790 -24.313  0.00  0.00    -0.018 NA
ATOM     32  C   UNL     1      32.220  -9.532 -23.232  0.00  0.00    +0.092 C 
ATOM     33  C   UNL     1      30.776  -6.527 -22.399  0.00  0.00    +0.163 C 
ENDBRANCH  27  32
ENDBRANCH   5  23
TORSDOF 8
ENDMDL
MODEL 5
REMARK VINA RESULT:     -10.4      2.014      2.898
REMARK  Name = 11476460
REMARK  8 active torsions:
REMARK  status: ('A' for Active; 'I' for Inactive)
REMARK    1  A    between atoms: C_2  and  N_10
REMARK    2  A    between atoms: C_5  and  C_23
REMARK    3  A    between atoms: C_11  and  C_14
REMARK    4  A    between atoms: C_14  and  O_15
REMARK    5  A    between atoms: O_15  and  P_16
REMARK    6  A    between atoms: P_16  and  O_18
REMARK    7  A    between atoms: P_16  and  O_20
REMARK    8  A    between atoms: C_27  and  C_32
REMARK                            x       y       z     vdW  Elec       q    Type
REMARK                         _______ _______ _______ _____ _____    ______ ____
ROOT
ATOM      1  F   UNL     1      33.263 -21.957 -19.066  0.00  0.00    -0.204 F 
ATOM      2  C   UNL     1      35.804 -22.832 -16.611  0.00  0.00    +0.059 C 
ATOM      3  C   UNL     1      34.594 -22.810 -17.312  0.00  0.00    +0.045 C 
ATOM      4  C   UNL     1      36.850 -21.997 -17.018  0.00  0.00    +0.015 C 
ATOM      5  C   UNL     1      35.479 -21.133 -18.809  0.00  0.00    +0.029 C 
ATOM      6  C   UNL     1      34.431 -21.963 -18.408  0.00  0.00    +0.141 C 
ATOM      7  C   UNL     1      36.688 -21.150 -18.114  0.00  0.00    +0.004 C 
ENDROOT
BRANCH   2  10
ATOM      8  O   UNL     1      36.854 -24.785 -13.724  0.00  0.00    -0.434 OA
ATOM      9  O   UNL     1      38.193 -23.296 -14.788  0.00  0.00    -0.226 OA
ATOM     10  N   UNL     1      35.969 -23.696 -15.492  0.00  0.00    -0.221 N 
ATOM     11  C   UNL     1      35.455 -25.102 -13.727  0.00  0.00    +0.221 C 
ATOM     12  C   UNL     1      34.972 -24.649 -15.088  0.00  0.00    +0.148 C 
ATOM     13  C   UNL     1      37.104 -23.844 -14.697  0.00  0.00    +0.409 C 
BRANCH  11  14
ATOM     14  C   UNL     1      34.782 -24.366 -12.577  0.00  0.00    +0.199 C 
BRANCH  14  15
ATOM     15  O   UNL     1      35.208 -24.946 -11.357  0.00  0.00    -0.269 OA
BRANCH  15  16
ATOM     16  P   UNL     1      36.404 -24.227 -10.536  0.00  0.00    +0.473 P 
ATOM     17  O   UNL     1      36.188 -24.132  -9.053  0.00  0.00    -0.227 OA
BRANCH  16  18
ATOM     18  O   UNL     1      36.599 -22.815 -11.299  0.00  0.00    -0.303 OA
ATOM     19  H   UNL     1      36.395 -22.088 -10.689  0.00  0.00    +0.222 HD
ENDBRANCH  16  18
BRANCH  16  20
ATOM     20  O   UNL     1      37.709 -25.074 -10.983  0.00  0.00    -0.303 OA
ATOM     21  H   UNL     1      38.491 -24.502 -10.948  0.00  0.00    +0.222 HD
ENDBRANCH  16  20
ENDBRANCH  15  16
ENDBRANCH  14  15
ENDBRANCH  11  14
ENDBRANCH   2  10
BRANCH   5  23
ATOM     22  N   UNL     1      33.891 -19.382 -21.691  0.00  0.00    -0.234 NA
ATOM     23  C   UNL     1      35.315 -20.251 -19.945  0.00  0.00    +0.021 C 
ATOM     24  C   UNL     1      36.362 -19.455 -20.388  0.00  0.00    +0.004 C 
ATOM     25  C   UNL     1      34.111 -20.180 -20.623  0.00  0.00    +0.100 C 
ATOM     26  C   UNL     1      36.176 -18.619 -21.483  0.00  0.00    +0.029 C 
ATOM     27  C   UNL     1      34.932 -18.619 -22.094  0.00  0.00    +0.146 C 
BRANCH  27  32
ATOM     28  N   UNL     1      34.702 -16.444 -23.173  0.00  0.00    -0.105 NA
ATOM     29  N   UNL     1      34.417 -16.172 -24.454  0.00  0.00    -0.113 N 
ATOM     30  N   UNL     1      34.405 -18.281 -24.464  0.00  0.00    -0.085 NA
ATOM     31  N   UNL     1      34.234 -17.230 -25.256  0.00  0.00    -0.018 NA
ATOM     32  C   UNL     1      34.683 -17.777 -23.229  0.00  0.00    +0.092 C 
ATOM     33  C   UNL     1      34.314 -14.821 -24.943  0.00  0.00    +0.163 C 
ENDBRANCH  27  32
ENDBRANCH   5  23
TORSDOF 8
ENDMDL
MODEL 6
REMARK VINA RESULT:     -10.3     12.179     15.681
REMARK  Name = 11476460
REMARK  8 active torsions:
REMARK  status: ('A' for Active; 'I' for Inactive)
REMARK    1  A    between atoms: C_2  and  N_10
REMARK    2  A    between atoms: C_5  and  C_23
REMARK    3  A    between atoms: C_11  and  C_14
REMARK    4  A    between atoms: C_14  and  O_15
REMARK    5  A    between atoms: O_15  and  P_16
REMARK    6  A    between atoms: P_16  and  O_18
REMARK    7  A    between atoms: P_16  and  O_20
REMARK    8  A    between atoms: C_27  and  C_32
REMARK                            x       y       z     vdW  Elec       q    Type
REMARK                         _______ _______ _______ _____ _____    ______ ____
ROOT
ATOM      1  F   UNL     1      31.869 -13.347 -20.741  0.00  0.00    -0.204 F 
ATOM      2  C   UNL     1      32.547 -10.543 -22.961  0.00  0.00    +0.059 C 
ATOM      3  C   UNL     1      31.942 -11.341 -21.984  0.00  0.00    +0.045 C 
ATOM      4  C   UNL     1      33.682 -11.015 -23.630  0.00  0.00    +0.015 C 
ATOM      5  C   UNL     1      33.597 -13.063 -22.350  0.00  0.00    +0.029 C 
ATOM      6  C   UNL     1      32.465 -12.598 -21.680  0.00  0.00    +0.141 C 
ATOM      7  C   UNL     1      34.205 -12.272 -23.325  0.00  0.00    +0.004 C 
ENDROOT
BRANCH   2  10
ATOM      8  O   UNL     1      31.126  -7.194 -23.085  0.00  0.00    -0.434 OA
ATOM      9  O   UNL     1      31.529  -8.317 -21.156  0.00  0.00    -0.226 OA
ATOM     10  N   UNL     1      32.014  -9.261 -23.272  0.00  0.00    -0.221 N 
ATOM     11  C   UNL     1      31.485  -7.349 -24.465  0.00  0.00    +0.221 C 
ATOM     12  C   UNL     1      31.750  -8.832 -24.618  0.00  0.00    +0.148 C 
ATOM     13  C   UNL     1      31.575  -8.287 -22.378  0.00  0.00    +0.409 C 
BRANCH  11  14
ATOM     14  C   UNL     1      32.709  -6.490 -24.754  0.00  0.00    +0.199 C 
BRANCH  14  15
ATOM     15  O   UNL     1      32.580  -5.267 -24.050  0.00  0.00    -0.269 OA
BRANCH  15  16
ATOM     16  P   UNL     1      31.705  -4.080 -24.719  0.00  0.00    +0.473 P 
ATOM     17  O   UNL     1      31.661  -4.091 -26.219  0.00  0.00    -0.227 OA
BRANCH  16  18
ATOM     18  O   UNL     1      32.311  -2.735 -24.055  0.00  0.00    -0.303 OA
ATOM     19  H   UNL     1      31.584  -2.153 -23.782  0.00  0.00    +0.222 HD
ENDBRANCH  16  18
BRANCH  16  20
ATOM     20  O   UNL     1      30.268  -4.236 -23.992  0.00  0.00    -0.303 OA
ATOM     21  H   UNL     1      30.098  -3.456 -23.442  0.00  0.00    +0.222 HD
ENDBRANCH  16  20
ENDBRANCH  15  16
ENDBRANCH  14  15
ENDBRANCH  11  14
ENDBRANCH   2  10
BRANCH   5  23
ATOM     22  N   UNL     1      34.859 -15.956 -20.367  0.00  0.00    -0.234 NA
ATOM     23  C   UNL     1      34.142 -14.367 -22.038  0.00  0.00    +0.021 C 
ATOM     24  C   UNL     1      34.473 -15.262 -23.047  0.00  0.00    +0.004 C 
ATOM     25  C   UNL     1      34.352 -14.756 -20.727  0.00  0.00    +0.100 C 
ATOM     26  C   UNL     1      34.997 -16.507 -22.717  0.00  0.00    +0.029 C 
ATOM     27  C   UNL     1      35.169 -16.803 -21.374  0.00  0.00    +0.146 C 
BRANCH  27  32
ATOM     28  N   UNL     1      34.954 -19.091 -20.558  0.00  0.00    -0.105 NA
ATOM     29  N   UNL     1      35.920 -19.990 -20.323  0.00  0.00    -0.113 N 
ATOM     30  N   UNL     1      37.044 -18.335 -20.992  0.00  0.00    -0.085 NA
ATOM     31  N   UNL     1      37.175 -19.586 -20.567  0.00  0.00    -0.018 NA
ATOM     32  C   UNL     1      35.708 -18.072 -20.976  0.00  0.00    +0.092 C 
ATOM     33  C   UNL     1      35.629 -21.313 -19.837  0.00  0.00    +0.163 C 
ENDBRANCH  27  32
ENDBRANCH   5  23
TORSDOF 8
ENDMDL
MODEL 7
REMARK VINA RESULT:     -10.2     10.612     14.347
REMARK  Name = 11476460
REMARK  8 active torsions:
REMARK  status: ('A' for Active; 'I' for Inactive)
REMARK    1  A    between atoms: C_2  and  N_10
REMARK    2  A    between atoms: C_5  and  C_23
REMARK    3  A    between atoms: C_11  and  C_14
REMARK    4  A    between atoms: C_14  and  O_15
REMARK    5  A    between atoms: O_15  and  P_16
REMARK    6  A    between atoms: P_16  and  O_18
REMARK    7  A    between atoms: P_16  and  O_20
REMARK    8  A    between atoms: C_27  and  C_32
REMARK                            x       y       z     vdW  Elec       q    Type
REMARK                         _______ _______ _______ _____ _____    ______ ____
ROOT
ATOM      1  F   UNL     1      32.169 -13.423 -20.615  0.00  0.00    -0.204 F 
ATOM      2  C   UNL     1      32.927 -10.753 -22.969  0.00  0.00    +0.059 C 
ATOM      3  C   UNL     1      32.314 -11.475 -21.940  0.00  0.00    +0.045 C 
ATOM      4  C   UNL     1      34.004 -11.318 -23.659  0.00  0.00    +0.015 C 
ATOM      5  C   UNL     1      33.847 -13.307 -22.296  0.00  0.00    +0.029 C 
ATOM      6  C   UNL     1      32.772 -12.748 -21.604  0.00  0.00    +0.141 C 
ATOM      7  C   UNL     1      34.463 -12.592 -23.324  0.00  0.00    +0.004 C 
ENDROOT
BRANCH   2  10
ATOM      8  O   UNL     1      31.123  -7.667 -23.661  0.00  0.00    -0.434 OA
ATOM      9  O   UNL     1      30.136  -9.549 -22.868  0.00  0.00    -0.226 OA
ATOM     10  N   UNL     1      32.459  -9.454 -23.312  0.00  0.00    -0.221 N 
ATOM     11  C   UNL     1      32.468  -7.196 -23.820  0.00  0.00    +0.221 C 
ATOM     12  C   UNL     1      33.298  -8.457 -23.920  0.00  0.00    +0.148 C 
ATOM     13  C   UNL     1      31.154  -8.974 -23.227  0.00  0.00    +0.409 C 
BRANCH  11  14
ATOM     14  C   UNL     1      32.831  -6.332 -22.619  0.00  0.00    +0.199 C 
BRANCH  14  15
ATOM     15  O   UNL     1      33.485  -7.144 -21.659  0.00  0.00    -0.269 OA
BRANCH  15  16
ATOM     16  P   UNL     1      32.753  -7.401 -20.238  0.00  0.00    +0.473 P 
ATOM     17  O   UNL     1      32.481  -8.841 -19.916  0.00  0.00    -0.227 OA
BRANCH  16  18
ATOM     18  O   UNL     1      31.449  -6.447 -20.299  0.00  0.00    -0.303 OA
ATOM     19  H   UNL     1      30.647  -6.995 -20.286  0.00  0.00    +0.222 HD
ENDBRANCH  16  18
BRANCH  16  20
ATOM     20  O   UNL     1      33.721  -6.638 -19.190  0.00  0.00    -0.303 OA
ATOM     21  H   UNL     1      34.645  -6.758 -19.458  0.00  0.00    +0.222 HD
ENDBRANCH  16  20
ENDBRANCH  15  16
ENDBRANCH  14  15
ENDBRANCH  11  14
ENDBRANCH   2  10
BRANCH   5  23
ATOM     22  N   UNL     1      34.933 -16.221 -20.241  0.00  0.00    -0.234 NA
ATOM     23  C   UNL     1      34.326 -14.629 -21.952  0.00  0.00    +0.021 C 
ATOM     24  C   UNL     1      34.639 -15.554 -22.939  0.00  0.00    +0.004 C 
ATOM     25  C   UNL     1      34.489 -15.006 -20.631  0.00  0.00    +0.100 C 
ATOM     26  C   UNL     1      35.099 -16.816 -22.578  0.00  0.00    +0.029 C 
ATOM     27  C   UNL     1      35.227 -17.097 -21.227  0.00  0.00    +0.146 C 
BRANCH  27  32
ATOM     28  N   UNL     1      34.888 -19.401 -20.504  0.00  0.00    -0.105 NA
ATOM     29  N   UNL     1      35.808 -20.318 -20.173  0.00  0.00    -0.113 N 
ATOM     30  N   UNL     1      37.023 -18.663 -20.654  0.00  0.00    -0.085 NA
ATOM     31  N   UNL     1      37.087 -19.925 -20.247  0.00  0.00    -0.018 NA
ATOM     32  C   UNL     1      35.698 -18.382 -20.797  0.00  0.00    +0.092 C 
ATOM     33  C   UNL     1      35.444 -21.649 -19.761  0.00  0.00    +0.163 C 
ENDBRANCH  27  32
ENDBRANCH   5  23
TORSDOF 8
ENDMDL
MODEL 8
REMARK VINA RESULT:      -9.9     12.927     16.528
REMARK  Name = 11476460
REMARK  8 active torsions:
REMARK  status: ('A' for Active; 'I' for Inactive)
REMARK    1  A    between atoms: C_2  and  N_10
REMARK    2  A    between atoms: C_5  and  C_23
REMARK    3  A    between atoms: C_11  and  C_14
REMARK    4  A    between atoms: C_14  and  O_15
REMARK    5  A    between atoms: O_15  and  P_16
REMARK    6  A    between atoms: P_16  and  O_18
REMARK    7  A    between atoms: P_16  and  O_20
REMARK    8  A    between atoms: C_27  and  C_32
REMARK                            x       y       z     vdW  Elec       q    Type
REMARK                         _______ _______ _______ _____ _____    ______ ____
ROOT
ATOM      1  F   UNL     1      34.840 -11.158 -24.162  0.00  0.00    -0.204 F 
ATOM      2  C   UNL     1      31.983  -9.247 -22.966  0.00  0.00    +0.059 C 
ATOM      3  C   UNL     1      33.168  -9.578 -23.630  0.00  0.00    +0.045 C 
ATOM      4  C   UNL     1      31.336 -10.214 -22.190  0.00  0.00    +0.015 C 
ATOM      5  C   UNL     1      33.052 -11.823 -22.743  0.00  0.00    +0.029 C 
ATOM      6  C   UNL     1      33.702 -10.862 -23.519  0.00  0.00    +0.141 C 
ATOM      7  C   UNL     1      31.869 -11.498 -22.078  0.00  0.00    +0.004 C 
ENDROOT
BRANCH   2  10
ATOM      8  O   UNL     1      30.668  -5.874 -22.583  0.00  0.00    -0.434 OA
ATOM      9  O   UNL     1      31.402  -7.141 -20.850  0.00  0.00    -0.226 OA
ATOM     10  N   UNL     1      31.439  -7.937 -23.079  0.00  0.00    -0.221 N 
ATOM     11  C   UNL     1      30.749  -5.935 -24.013  0.00  0.00    +0.221 C 
ATOM     12  C   UNL     1      30.933  -7.407 -24.316  0.00  0.00    +0.148 C 
ATOM     13  C   UNL     1      31.211  -7.023 -22.053  0.00  0.00    +0.409 C 
BRANCH  11  14
ATOM     14  C   UNL     1      31.919  -5.077 -24.476  0.00  0.00    +0.199 C 
BRANCH  14  15
ATOM     15  O   UNL     1      32.278  -4.196 -23.426  0.00  0.00    -0.269 OA
BRANCH  15  16
ATOM     16  P   UNL     1      31.731  -2.673 -23.475  0.00  0.00    +0.473 P 
ATOM     17  O   UNL     1      32.171  -1.879 -24.670  0.00  0.00    -0.227 OA
BRANCH  16  18
ATOM     18  O   UNL     1      32.164  -2.063 -22.042  0.00  0.00    -0.303 OA
ATOM     19  H   UNL     1      33.032  -2.418 -21.788  0.00  0.00    +0.222 HD
ENDBRANCH  16  18
BRANCH  16  20
ATOM     20  O   UNL     1      30.130  -2.860 -23.331  0.00  0.00    -0.303 OA
ATOM     21  H   UNL     1      29.940  -3.731 -22.950  0.00  0.00    +0.222 HD
ENDBRANCH  16  20
ENDBRANCH  15  16
ENDBRANCH  14  15
ENDBRANCH  11  14
ENDBRANCH   2  10
BRANCH   5  23
ATOM     22  N   UNL     1      34.555 -14.874 -21.220  0.00  0.00    -0.234 NA
ATOM     23  C   UNL     1      33.601 -13.156 -22.624  0.00  0.00    +0.021 C 
ATOM     24  C   UNL     1      33.715 -13.984 -23.733  0.00  0.00    +0.004 C 
ATOM     25  C   UNL     1      34.031 -13.642 -21.402  0.00  0.00    +0.100 C 
ATOM     26  C   UNL     1      34.249 -15.259 -23.587  0.00  0.00    +0.029 C 
ATOM     27  C   UNL     1      34.651 -15.653 -22.321  0.00  0.00    +0.146 C 
BRANCH  27  32
ATOM     28  N   UNL     1      35.661 -17.383 -20.931  0.00  0.00    -0.105 NA
ATOM     29  N   UNL     1      36.058 -18.615 -21.284  0.00  0.00    -0.113 N 
ATOM     30  N   UNL     1      35.325 -17.871 -23.116  0.00  0.00    -0.085 NA
ATOM     31  N   UNL     1      35.877 -18.947 -22.569  0.00  0.00    -0.018 NA
ATOM     32  C   UNL     1      35.210 -16.958 -22.113  0.00  0.00    +0.092 C 
ATOM     33  C   UNL     1      36.643 -19.528 -20.337  0.00  0.00    +0.163 C 
ENDBRANCH  27  32
ENDBRANCH   5  23
TORSDOF 8
ENDMDL
MODEL 9
REMARK VINA RESULT:      -9.9      2.419      3.657
REMARK  Name = 11476460
REMARK  8 active torsions:
REMARK  status: ('A' for Active; 'I' for Inactive)
REMARK    1  A    between atoms: C_2  and  N_10
REMARK    2  A    between atoms: C_5  and  C_23
REMARK    3  A    between atoms: C_11  and  C_14
REMARK    4  A    between atoms: C_14  and  O_15
REMARK    5  A    between atoms: O_15  and  P_16
REMARK    6  A    between atoms: P_16  and  O_18
REMARK    7  A    between atoms: P_16  and  O_20
REMARK    8  A    between atoms: C_27  and  C_32
REMARK                            x       y       z     vdW  Elec       q    Type
REMARK                         _______ _______ _______ _____ _____    ______ ____
ROOT
ATOM      1  F   UNL     1      33.371 -22.311 -18.604  0.00  0.00    -0.204 F 
ATOM      2  C   UNL     1      35.920 -22.952 -16.086  0.00  0.00    +0.059 C 
ATOM      3  C   UNL     1      34.715 -23.012 -16.794  0.00  0.00    +0.045 C 
ATOM      4  C   UNL     1      36.943 -22.112 -16.538  0.00  0.00    +0.015 C 
ATOM      5  C   UNL     1      35.558 -21.403 -18.387  0.00  0.00    +0.029 C 
ATOM      6  C   UNL     1      34.534 -22.240 -17.941  0.00  0.00    +0.141 C 
ATOM      7  C   UNL     1      36.762 -21.339 -17.685  0.00  0.00    +0.004 C 
ENDROOT
BRANCH   2  10
ATOM      8  O   UNL     1      36.901 -24.540 -12.960  0.00  0.00    -0.434 OA
ATOM      9  O   UNL     1      37.936 -22.715 -13.822  0.00  0.00    -0.226 OA
ATOM     10  N   UNL     1      36.105 -23.740 -14.916  0.00  0.00    -0.221 N 
ATOM     11  C   UNL     1      35.681 -25.251 -13.214  0.00  0.00    +0.221 C 
ATOM     12  C   UNL     1      35.365 -24.946 -14.663  0.00  0.00    +0.148 C 
ATOM     13  C   UNL     1      37.055 -23.558 -13.913  0.00  0.00    +0.409 C 
BRANCH  11  14
ATOM     14  C   UNL     1      34.613 -24.753 -12.249  0.00  0.00    +0.199 C 
BRANCH  14  15
ATOM     15  O   UNL     1      33.822 -23.782 -12.911  0.00  0.00    -0.269 OA
BRANCH  15  16
ATOM     16  P   UNL     1      32.261 -24.113 -13.186  0.00  0.00    +0.473 P 
ATOM     17  O   UNL     1      31.301 -23.502 -12.207  0.00  0.00    -0.227 OA
BRANCH  16  18
ATOM     18  O   UNL     1      32.221 -25.727 -13.278  0.00  0.00    -0.303 OA
ATOM     19  H   UNL     1      31.670 -26.078 -12.560  0.00  0.00    +0.222 HD
ENDBRANCH  16  18
BRANCH  16  20
ATOM     20  O   UNL     1      32.058 -23.649 -14.722  0.00  0.00    -0.303 OA
ATOM     21  H   UNL     1      31.251 -23.116 -14.794  0.00  0.00    +0.222 HD
ENDBRANCH  16  20
ENDBRANCH  15  16
ENDBRANCH  14  15
ENDBRANCH  11  14
ENDBRANCH   2  10
BRANCH   5  23
ATOM     22  N   UNL     1      33.895 -19.766 -21.294  0.00  0.00    -0.234 NA
ATOM     23  C   UNL     1      35.374 -20.599 -19.576  0.00  0.00    +0.021 C 
ATOM     24  C   UNL     1      36.438 -19.909 -20.143  0.00  0.00    +0.004 C 
ATOM     25  C   UNL     1      34.135 -20.497 -20.182  0.00  0.00    +0.100 C 
ATOM     26  C   UNL     1      36.232 -19.146 -21.286  0.00  0.00    +0.029 C 
ATOM     27  C   UNL     1      34.953 -19.108 -21.818  0.00  0.00    +0.146 C 
BRANCH  27  32
ATOM     28  N   UNL     1      34.885 -17.021 -23.078  0.00  0.00    -0.105 NA
ATOM     29  N   UNL     1      34.486 -16.819 -24.342  0.00  0.00    -0.113 N 
ATOM     30  N   UNL     1      34.192 -18.897 -24.139  0.00  0.00    -0.085 NA
ATOM     31  N   UNL     1      34.067 -17.903 -25.009  0.00  0.00    -0.018 NA
ATOM     32  C   UNL     1      34.682 -18.337 -22.998  0.00  0.00    +0.092 C 
ATOM     33  C   UNL     1      34.506 -15.513 -24.948  0.00  0.00    +0.163 C 
ENDBRANCH  27  32
ENDBRANCH   5  23
TORSDOF 8
ENDMDL
