MODEL 1
REMARK VINA RESULT:     -11.6      0.000      0.000
REMARK  Name = 447656
REMARK  5 active torsions:
REMARK  status: ('A' for Active; 'I' for Inactive)
REMARK    1  A    between atoms: N_5  and  C_14
REMARK    2  A    between atoms: C_6  and  O_25
REMARK    3  A    between atoms: C_17  and  C_22
REMARK    4  A    between atoms: O_25  and  C_26
REMARK    5  A    between atoms: C_26  and  C_27
REMARK                            x       y       z     vdW  Elec       q    Type
REMARK                         _______ _______ _______ _____ _____    ______ ____
ROOT
ATOM      1  N   UNL     1      33.226 -23.555 -15.600  0.00  0.00    -0.293 NA
ATOM      2  N   UNL     1      29.834 -22.533 -16.589  0.00  0.00    -0.266 NA
ATOM      3  N   UNL     1      31.540 -23.884 -13.867  0.00  0.00    -0.316 NA
ATOM      4  N   UNL     1      29.302 -23.205 -14.532  0.00  0.00    -0.296 N 
ATOM      5  N   UNL     1      33.782 -24.448 -13.508  0.00  0.00    -0.238 N 
ATOM      6  C   UNL     1      32.309 -23.058 -16.458  0.00  0.00    +0.288 C 
ATOM      7  C   UNL     1      31.001 -22.968 -16.028  0.00  0.00    +0.215 C 
ATOM      8  C   UNL     1      30.644 -23.380 -14.751  0.00  0.00    +0.196 C 
ATOM      9  C   UNL     1      32.791 -23.933 -14.374  0.00  0.00    +0.207 C 
ATOM     10  C   UNL     1      28.846 -22.694 -15.656  0.00  0.00    +0.164 C 
ATOM     11  H   UNL     1      29.725 -22.170 -17.498  0.00  0.00    +0.126 HD
ATOM     12  H   UNL     1      28.793 -23.414 -13.716  0.00  0.00    +0.150 HD
ATOM     13  H   UNL     1      33.437 -24.715 -12.625  0.00  0.00    +0.166 HD
ENDROOT
BRANCH   5  14
ATOM     14  C   UNL     1      35.164 -24.655 -13.660  0.00  0.00    +0.058 C 
ATOM     15  C   UNL     1      36.075 -23.838 -12.986  0.00  0.00    +0.015 C 
ATOM     16  C   UNL     1      35.633 -25.679 -14.487  0.00  0.00    +0.015 C 
ATOM     17  C   UNL     1      37.911 -25.066 -13.963  0.00  0.00    +0.053 C 
ATOM     18  C   UNL     1      37.446 -24.042 -13.137  0.00  0.00    +0.006 C 
ATOM     19  C   UNL     1      37.005 -25.884 -14.638  0.00  0.00    +0.006 C 
BRANCH  17  22
ATOM     20  O   UNL     1      40.060 -24.451 -14.706  0.00  0.00    -0.270 OA
ATOM     21  N   UNL     1      39.886 -26.438 -13.575  0.00  0.00    -0.325 N 
ATOM     22  C   UNL     1      39.340 -25.280 -14.121  0.00  0.00    +0.243 C 
ATOM     23  H   UNL     1      40.850 -26.618 -13.662  0.00  0.00    +0.145 HD
ATOM     24  H   UNL     1      39.307 -27.080 -13.102  0.00  0.00    +0.145 HD
ENDBRANCH  17  22
ENDBRANCH   5  14
BRANCH   6  25
ATOM     25  O   UNL     1      32.717 -22.664 -17.709  0.00  0.00    -0.453 OA
BRANCH  25  26
ATOM     26  C   UNL     1      34.109 -22.674 -17.964  0.00  0.00    +0.208 C 
BRANCH  26  27
ATOM     27  C   UNL     1      34.373 -21.879 -19.242  0.00  0.00    +0.044 C 
ATOM     28  C   UNL     1      33.232 -20.889 -19.509  0.00  0.00    +0.004 C 
ATOM     29  C   UNL     1      35.720 -21.150 -19.158  0.00  0.00    +0.004 C 
ATOM     30  C   UNL     1      33.498 -20.044 -20.753  0.00  0.00    +0.000 C 
ATOM     31  C   UNL     1      35.982 -20.305 -20.402  0.00  0.00    +0.000 C 
ATOM     32  C   UNL     1      34.842 -19.328 -20.670  0.00  0.00    +0.000 C 
ENDBRANCH  26  27
ENDBRANCH  25  26
ENDBRANCH   6  25
TORSDOF 5
ENDMDL
MODEL 2
REMARK VINA RESULT:     -11.6      2.038      6.507
REMARK  Name = 447656
REMARK  5 active torsions:
REMARK  status: ('A' for Active; 'I' for Inactive)
REMARK    1  A    between atoms: N_5  and  C_14
REMARK    2  A    between atoms: C_6  and  O_25
REMARK    3  A    between atoms: C_17  and  C_22
REMARK    4  A    between atoms: O_25  and  C_26
REMARK    5  A    between atoms: C_26  and  C_27
REMARK                            x       y       z     vdW  Elec       q    Type
REMARK                         _______ _______ _______ _____ _____    ______ ____
ROOT
ATOM      1  N   UNL     1      33.761 -23.586 -15.333  0.00  0.00    -0.293 NA
ATOM      2  N   UNL     1      37.415 -23.974 -15.192  0.00  0.00    -0.266 NA
ATOM      3  N   UNL     1      34.559 -24.812 -13.380  0.00  0.00    -0.316 NA
ATOM      4  N   UNL     1      36.975 -25.064 -13.298  0.00  0.00    -0.296 N 
ATOM      5  N   UNL     1      32.278 -24.419 -13.722  0.00  0.00    -0.238 N 
ATOM      6  C   UNL     1      35.018 -23.417 -15.794  0.00  0.00    +0.288 C 
ATOM      7  C   UNL     1      36.056 -23.943 -15.053  0.00  0.00    +0.215 C 
ATOM      8  C   UNL     1      35.809 -24.626 -13.870  0.00  0.00    +0.196 C 
ATOM      9  C   UNL     1      33.610 -24.264 -14.170  0.00  0.00    +0.207 C 
ATOM     10  C   UNL     1      37.921 -24.656 -14.118  0.00  0.00    +0.164 C 
ATOM     11  H   UNL     1      37.934 -23.580 -15.930  0.00  0.00    +0.126 HD
ATOM     12  H   UNL     1      37.082 -25.570 -12.460  0.00  0.00    +0.150 HD
ATOM     13  H   UNL     1      32.199 -24.914 -12.876  0.00  0.00    +0.166 HD
ENDROOT
BRANCH   5  14
ATOM     14  C   UNL     1      31.043 -24.003 -14.251  0.00  0.00    +0.058 C 
ATOM     15  C   UNL     1      30.628 -22.676 -14.104  0.00  0.00    +0.015 C 
ATOM     16  C   UNL     1      30.225 -24.913 -14.924  0.00  0.00    +0.015 C 
ATOM     17  C   UNL     1      28.589 -23.174 -15.300  0.00  0.00    +0.053 C 
ATOM     18  C   UNL     1      29.404 -22.262 -14.628  0.00  0.00    +0.006 C 
ATOM     19  C   UNL     1      29.000 -24.499 -15.449  0.00  0.00    +0.006 C 
BRANCH  17  22
ATOM     20  O   UNL     1      26.356 -22.451 -15.108  0.00  0.00    -0.270 OA
ATOM     21  N   UNL     1      27.201 -22.648 -17.231  0.00  0.00    -0.325 N 
ATOM     22  C   UNL     1      27.313 -22.743 -15.847  0.00  0.00    +0.243 C 
ATOM     23  H   UNL     1      26.351 -22.360 -17.638  0.00  0.00    +0.145 HD
ATOM     24  H   UNL     1      27.970 -22.871 -17.805  0.00  0.00    +0.145 HD
ENDBRANCH  17  22
ENDBRANCH   5  14
BRANCH   6  25
ATOM     25  O   UNL     1      35.206 -22.734 -16.971  0.00  0.00    -0.453 OA
BRANCH  25  26
ATOM     26  C   UNL     1      34.100 -22.653 -17.851  0.00  0.00    +0.208 C 
BRANCH  26  27
ATOM     27  C   UNL     1      34.541 -21.919 -19.116  0.00  0.00    +0.044 C 
ATOM     28  C   UNL     1      33.475 -20.905 -19.554  0.00  0.00    +0.004 C 
ATOM     29  C   UNL     1      35.894 -21.230 -18.900  0.00  0.00    +0.004 C 
ATOM     30  C   UNL     1      33.917 -20.121 -20.788  0.00  0.00    +0.000 C 
ATOM     31  C   UNL     1      36.331 -20.444 -20.134  0.00  0.00    +0.000 C 
ATOM     32  C   UNL     1      35.266 -19.444 -20.571  0.00  0.00    +0.000 C 
ENDBRANCH  26  27
ENDBRANCH  25  26
ENDBRANCH   6  25
TORSDOF 5
ENDMDL
MODEL 3
REMARK VINA RESULT:     -11.5      2.105      6.542
REMARK  Name = 447656
REMARK  5 active torsions:
REMARK  status: ('A' for Active; 'I' for Inactive)
REMARK    1  A    between atoms: N_5  and  C_14
REMARK    2  A    between atoms: C_6  and  O_25
REMARK    3  A    between atoms: C_17  and  C_22
REMARK    4  A    between atoms: O_25  and  C_26
REMARK    5  A    between atoms: C_26  and  C_27
REMARK                            x       y       z     vdW  Elec       q    Type
REMARK                         _______ _______ _______ _____ _____    ______ ____
ROOT
ATOM      1  N   UNL     1      34.352 -24.014 -14.265  0.00  0.00    -0.293 NA
ATOM      2  N   UNL     1      37.874 -24.150 -13.214  0.00  0.00    -0.266 NA
ATOM      3  N   UNL     1      34.666 -24.391 -11.875  0.00  0.00    -0.316 NA
ATOM      4  N   UNL     1      36.997 -24.480 -11.192  0.00  0.00    -0.296 N 
ATOM      5  N   UNL     1      32.528 -24.261 -12.817  0.00  0.00    -0.238 N 
ATOM      6  C   UNL     1      35.685 -23.968 -14.476  0.00  0.00    +0.288 C 
ATOM      7  C   UNL     1      36.519 -24.134 -13.390  0.00  0.00    +0.215 C 
ATOM      8  C   UNL     1      35.998 -24.340 -12.120  0.00  0.00    +0.196 C 
ATOM      9  C   UNL     1      33.930 -24.220 -12.995  0.00  0.00    +0.207 C 
ATOM     10  C   UNL     1      38.111 -24.360 -11.882  0.00  0.00    +0.164 C 
ATOM     11  H   UNL     1      38.554 -24.032 -13.917  0.00  0.00    +0.126 HD
ATOM     12  H   UNL     1      36.903 -24.634 -10.224  0.00  0.00    +0.150 HD
ATOM     13  H   UNL     1      32.251 -24.411 -11.884  0.00  0.00    +0.166 HD
ENDROOT
BRANCH   5  14
ATOM     14  C   UNL     1      31.452 -24.128 -13.712  0.00  0.00    +0.058 C 
ATOM     15  C   UNL     1      30.696 -25.247 -14.072  0.00  0.00    +0.015 C 
ATOM     16  C   UNL     1      31.134 -22.878 -14.247  0.00  0.00    +0.015 C 
ATOM     17  C   UNL     1      29.313 -23.866 -15.491  0.00  0.00    +0.053 C 
ATOM     18  C   UNL     1      29.629 -25.117 -14.959  0.00  0.00    +0.006 C 
ATOM     19  C   UNL     1      30.065 -22.746 -15.135  0.00  0.00    +0.006 C 
BRANCH  17  22
ATOM     20  O   UNL     1      27.767 -24.703 -17.059  0.00  0.00    -0.270 OA
ATOM     21  N   UNL     1      27.617 -22.472 -16.546  0.00  0.00    -0.325 N 
ATOM     22  C   UNL     1      28.200 -23.729 -16.416  0.00  0.00    +0.243 C 
ATOM     23  H   UNL     1      26.861 -22.342 -17.164  0.00  0.00    +0.145 HD
ATOM     24  H   UNL     1      27.961 -21.713 -16.023  0.00  0.00    +0.145 HD
ENDBRANCH  17  22
ENDBRANCH   5  14
BRANCH   6  25
ATOM     25  O   UNL     1      36.147 -23.762 -15.754  0.00  0.00    -0.453 OA
BRANCH  25  26
ATOM     26  C   UNL     1      36.267 -22.418 -16.184  0.00  0.00    +0.208 C 
BRANCH  26  27
ATOM     27  C   UNL     1      35.765 -22.325 -17.624  0.00  0.00    +0.044 C 
ATOM     28  C   UNL     1      34.231 -22.288 -17.661  0.00  0.00    +0.004 C 
ATOM     29  C   UNL     1      36.358 -21.096 -18.326  0.00  0.00    +0.004 C 
ATOM     30  C   UNL     1      33.705 -22.140 -19.087  0.00  0.00    +0.000 C 
ATOM     31  C   UNL     1      35.828 -20.951 -19.750  0.00  0.00    +0.000 C 
ATOM     32  C   UNL     1      34.303 -20.924 -19.785  0.00  0.00    +0.000 C 
ENDBRANCH  26  27
ENDBRANCH  25  26
ENDBRANCH   6  25
TORSDOF 5
ENDMDL
MODEL 4
REMARK VINA RESULT:     -11.1      2.651      6.932
REMARK  Name = 447656
REMARK  5 active torsions:
REMARK  status: ('A' for Active; 'I' for Inactive)
REMARK    1  A    between atoms: N_5  and  C_14
REMARK    2  A    between atoms: C_6  and  O_25
REMARK    3  A    between atoms: C_17  and  C_22
REMARK    4  A    between atoms: O_25  and  C_26
REMARK    5  A    between atoms: C_26  and  C_27
REMARK                            x       y       z     vdW  Elec       q    Type
REMARK                         _______ _______ _______ _____ _____    ______ ____
ROOT
ATOM      1  N   UNL     1      33.884 -22.673 -16.274  0.00  0.00    -0.293 NA
ATOM      2  N   UNL     1      32.580 -24.623 -13.443  0.00  0.00    -0.266 NA
ATOM      3  N   UNL     1      31.642 -23.567 -16.628  0.00  0.00    -0.316 NA
ATOM      4  N   UNL     1      30.790 -24.854 -14.750  0.00  0.00    -0.296 N 
ATOM      5  N   UNL     1      32.715 -22.287 -18.267  0.00  0.00    -0.238 N 
ATOM      6  C   UNL     1      33.955 -23.219 -15.042  0.00  0.00    +0.288 C 
ATOM      7  C   UNL     1      32.871 -23.944 -14.592  0.00  0.00    +0.215 C 
ATOM      8  C   UNL     1      31.743 -24.103 -15.387  0.00  0.00    +0.196 C 
ATOM      9  C   UNL     1      32.748 -22.876 -16.982  0.00  0.00    +0.207 C 
ATOM     10  C   UNL     1      31.325 -25.151 -13.584  0.00  0.00    +0.164 C 
ATOM     11  H   UNL     1      33.167 -24.716 -12.657  0.00  0.00    +0.126 HD
ATOM     12  H   UNL     1      29.903 -25.114 -15.088  0.00  0.00    +0.150 HD
ATOM     13  H   UNL     1      31.877 -22.451 -18.757  0.00  0.00    +0.166 HD
ENDROOT
BRANCH   5  14
ATOM     14  C   UNL     1      33.645 -21.511 -18.981  0.00  0.00    +0.058 C 
ATOM     15  C   UNL     1      33.204 -20.503 -19.842  0.00  0.00    +0.015 C 
ATOM     16  C   UNL     1      35.014 -21.745 -18.833  0.00  0.00    +0.015 C 
ATOM     17  C   UNL     1      35.493 -19.969 -20.400  0.00  0.00    +0.053 C 
ATOM     18  C   UNL     1      34.126 -19.733 -20.550  0.00  0.00    +0.006 C 
ATOM     19  C   UNL     1      35.937 -20.975 -19.541  0.00  0.00    +0.006 C 
BRANCH  17  22
ATOM     20  O   UNL     1      37.600 -18.961 -20.699  0.00  0.00    -0.270 OA
ATOM     21  N   UNL     1      36.058 -18.648 -22.367  0.00  0.00    -0.325 N 
ATOM     22  C   UNL     1      36.454 -19.166 -21.137  0.00  0.00    +0.243 C 
ATOM     23  H   UNL     1      36.683 -18.098 -22.894  0.00  0.00    +0.145 HD
ATOM     24  H   UNL     1      35.152 -18.828 -22.709  0.00  0.00    +0.145 HD
ENDBRANCH  17  22
ENDBRANCH   5  14
BRANCH   6  25
ATOM     25  O   UNL     1      35.094 -23.032 -14.298  0.00  0.00    -0.453 OA
BRANCH  25  26
ATOM     26  C   UNL     1      36.332 -23.218 -14.960  0.00  0.00    +0.208 C 
BRANCH  26  27
ATOM     27  C   UNL     1      37.166 -24.214 -14.156  0.00  0.00    +0.044 C 
ATOM     28  C   UNL     1      37.137 -23.865 -12.662  0.00  0.00    +0.004 C 
ATOM     29  C   UNL     1      36.672 -25.648 -14.391  0.00  0.00    +0.004 C 
ATOM     30  C   UNL     1      37.921 -24.879 -11.831  0.00  0.00    +0.000 C 
ATOM     31  C   UNL     1      37.455 -26.658 -13.557  0.00  0.00    +0.000 C 
ATOM     32  C   UNL     1      37.433 -26.302 -12.074  0.00  0.00    +0.000 C 
ENDBRANCH  26  27
ENDBRANCH  25  26
ENDBRANCH   6  25
TORSDOF 5
ENDMDL
MODEL 5
REMARK VINA RESULT:     -11.1      1.091      1.250
REMARK  Name = 447656
REMARK  5 active torsions:
REMARK  status: ('A' for Active; 'I' for Inactive)
REMARK    1  A    between atoms: N_5  and  C_14
REMARK    2  A    between atoms: C_6  and  O_25
REMARK    3  A    between atoms: C_17  and  C_22
REMARK    4  A    between atoms: O_25  and  C_26
REMARK    5  A    between atoms: C_26  and  C_27
REMARK                            x       y       z     vdW  Elec       q    Type
REMARK                         _______ _______ _______ _____ _____    ______ ____
ROOT
ATOM      1  N   UNL     1      34.446 -23.951 -15.664  0.00  0.00    -0.293 NA
ATOM      2  N   UNL     1      31.082 -22.950 -16.761  0.00  0.00    -0.266 NA
ATOM      3  N   UNL     1      32.716 -24.245 -13.969  0.00  0.00    -0.316 NA
ATOM      4  N   UNL     1      30.496 -23.580 -14.705  0.00  0.00    -0.296 N 
ATOM      5  N   UNL     1      34.947 -24.802 -13.540  0.00  0.00    -0.238 N 
ATOM      6  C   UNL     1      33.553 -23.471 -16.555  0.00  0.00    +0.288 C 
ATOM      7  C   UNL     1      32.234 -23.373 -16.161  0.00  0.00    +0.215 C 
ATOM      8  C   UNL     1      31.843 -23.760 -14.886  0.00  0.00    +0.196 C 
ATOM      9  C   UNL     1      33.979 -24.304 -14.442  0.00  0.00    +0.207 C 
ATOM     10  C   UNL     1      30.070 -23.093 -15.851  0.00  0.00    +0.164 C 
ATOM     11  H   UNL     1      30.997 -22.605 -17.680  0.00  0.00    +0.126 HD
ATOM     12  H   UNL     1      29.966 -23.773 -13.899  0.00  0.00    +0.150 HD
ATOM     13  H   UNL     1      34.579 -25.051 -12.662  0.00  0.00    +0.166 HD
ENDROOT
BRANCH   5  14
ATOM     14  C   UNL     1      36.333 -25.012 -13.653  0.00  0.00    +0.058 C 
ATOM     15  C   UNL     1      37.142 -24.046 -14.257  0.00  0.00    +0.015 C 
ATOM     16  C   UNL     1      36.907 -26.187 -13.161  0.00  0.00    +0.015 C 
ATOM     17  C   UNL     1      39.087 -25.427 -13.877  0.00  0.00    +0.053 C 
ATOM     18  C   UNL     1      38.517 -24.253 -14.368  0.00  0.00    +0.006 C 
ATOM     19  C   UNL     1      38.283 -26.394 -13.273  0.00  0.00    +0.006 C 
BRANCH  17  22
ATOM     20  O   UNL     1      41.280 -24.748 -14.404  0.00  0.00    -0.270 OA
ATOM     21  N   UNL     1      41.021 -26.883 -13.607  0.00  0.00    -0.325 N 
ATOM     22  C   UNL     1      40.520 -25.643 -13.992  0.00  0.00    +0.243 C 
ATOM     23  H   UNL     1      41.987 -27.066 -13.672  0.00  0.00    +0.145 HD
ATOM     24  H   UNL     1      40.411 -27.579 -13.271  0.00  0.00    +0.145 HD
ENDBRANCH  17  22
ENDBRANCH   5  14
BRANCH   6  25
ATOM     25  O   UNL     1      33.993 -23.102 -17.803  0.00  0.00    -0.453 OA
BRANCH  25  26
ATOM     26  C   UNL     1      35.100 -22.222 -17.859  0.00  0.00    +0.208 C 
BRANCH  26  27
ATOM     27  C   UNL     1      35.112 -21.547 -19.230  0.00  0.00    +0.044 C 
ATOM     28  C   UNL     1      33.767 -20.863 -19.508  0.00  0.00    +0.004 C 
ATOM     29  C   UNL     1      36.266 -20.541 -19.328  0.00  0.00    +0.004 C 
ATOM     30  C   UNL     1      33.772 -20.135 -20.851  0.00  0.00    +0.000 C 
ATOM     31  C   UNL     1      36.266 -19.813 -20.670  0.00  0.00    +0.000 C 
ATOM     32  C   UNL     1      34.925 -19.143 -20.948  0.00  0.00    +0.000 C 
ENDBRANCH  26  27
ENDBRANCH  25  26
ENDBRANCH   6  25
TORSDOF 5
ENDMDL
MODEL 6
REMARK VINA RESULT:     -10.9      2.617      7.290
REMARK  Name = 447656
REMARK  5 active torsions:
REMARK  status: ('A' for Active; 'I' for Inactive)
REMARK    1  A    between atoms: N_5  and  C_14
REMARK    2  A    between atoms: C_6  and  O_25
REMARK    3  A    between atoms: C_17  and  C_22
REMARK    4  A    between atoms: O_25  and  C_26
REMARK    5  A    between atoms: C_26  and  C_27
REMARK                            x       y       z     vdW  Elec       q    Type
REMARK                         _______ _______ _______ _____ _____    ______ ____
ROOT
ATOM      1  N   UNL     1      35.596 -23.793 -15.195  0.00  0.00    -0.293 NA
ATOM      2  N   UNL     1      36.438 -25.733 -12.187  0.00  0.00    -0.266 NA
ATOM      3  N   UNL     1      37.954 -23.699 -14.575  0.00  0.00    -0.316 NA
ATOM      4  N   UNL     1      38.499 -24.984 -12.585  0.00  0.00    -0.296 N 
ATOM      5  N   UNL     1      37.141 -22.556 -16.448  0.00  0.00    -0.238 N 
ATOM      6  C   UNL     1      35.309 -24.599 -14.150  0.00  0.00    +0.288 C 
ATOM      7  C   UNL     1      36.341 -24.961 -13.309  0.00  0.00    +0.215 C 
ATOM      8  C   UNL     1      37.633 -24.508 -13.536  0.00  0.00    +0.196 C 
ATOM      9  C   UNL     1      36.883 -23.398 -15.342  0.00  0.00    +0.207 C 
ATOM     10  C   UNL     1      37.748 -25.717 -11.790  0.00  0.00    +0.164 C 
ATOM     11  H   UNL     1      35.700 -26.213 -11.744  0.00  0.00    +0.126 HD
ATOM     12  H   UNL     1      39.466 -24.817 -12.513  0.00  0.00    +0.150 HD
ATOM     13  H   UNL     1      38.084 -22.286 -16.530  0.00  0.00    +0.166 HD
ENDROOT
BRANCH   5  14
ATOM     14  C   UNL     1      36.313 -22.030 -17.455  0.00  0.00    +0.058 C 
ATOM     15  C   UNL     1      36.830 -21.130 -18.390  0.00  0.00    +0.015 C 
ATOM     16  C   UNL     1      34.969 -22.404 -17.526  0.00  0.00    +0.015 C 
ATOM     17  C   UNL     1      34.668 -20.983 -19.457  0.00  0.00    +0.053 C 
ATOM     18  C   UNL     1      36.009 -20.607 -19.390  0.00  0.00    +0.006 C 
ATOM     19  C   UNL     1      34.147 -21.882 -18.526  0.00  0.00    +0.006 C 
BRANCH  17  22
ATOM     20  O   UNL     1      34.288 -19.885 -21.506  0.00  0.00    -0.270 OA
ATOM     21  N   UNL     1      32.436 -20.578 -20.344  0.00  0.00    -0.325 N 
ATOM     22  C   UNL     1      33.812 -20.440 -20.499  0.00  0.00    +0.243 C 
ATOM     23  H   UNL     1      31.825 -20.221 -21.030  0.00  0.00    +0.145 HD
ATOM     24  H   UNL     1      32.072 -21.030 -19.549  0.00  0.00    +0.145 HD
ENDBRANCH  17  22
ENDBRANCH   5  14
BRANCH   6  25
ATOM     25  O   UNL     1      34.013 -25.017 -13.972  0.00  0.00    -0.453 OA
BRANCH  25  26
ATOM     26  C   UNL     1      33.060 -24.029 -13.626  0.00  0.00    +0.208 C 
BRANCH  26  27
ATOM     27  C   UNL     1      31.820 -24.227 -14.496  0.00  0.00    +0.044 C 
ATOM     28  C   UNL     1      30.767 -25.064 -13.756  0.00  0.00    +0.004 C 
ATOM     29  C   UNL     1      31.237 -22.874 -14.926  0.00  0.00    +0.004 C 
ATOM     30  C   UNL     1      29.496 -25.232 -14.585  0.00  0.00    +0.000 C 
ATOM     31  C   UNL     1      29.965 -23.046 -15.752  0.00  0.00    +0.000 C 
ATOM     32  C   UNL     1      28.925 -23.886 -15.018  0.00  0.00    +0.000 C 
ENDBRANCH  26  27
ENDBRANCH  25  26
ENDBRANCH   6  25
TORSDOF 5
ENDMDL
MODEL 7
REMARK VINA RESULT:     -10.3      3.025      7.627
REMARK  Name = 447656
REMARK  5 active torsions:
REMARK  status: ('A' for Active; 'I' for Inactive)
REMARK    1  A    between atoms: N_5  and  C_14
REMARK    2  A    between atoms: C_6  and  O_25
REMARK    3  A    between atoms: C_17  and  C_22
REMARK    4  A    between atoms: O_25  and  C_26
REMARK    5  A    between atoms: C_26  and  C_27
REMARK                            x       y       z     vdW  Elec       q    Type
REMARK                         _______ _______ _______ _____ _____    ______ ____
ROOT
ATOM      1  N   UNL     1      34.898 -22.422 -17.383  0.00  0.00    -0.293 NA
ATOM      2  N   UNL     1      34.708 -24.591 -14.420  0.00  0.00    -0.266 NA
ATOM      3  N   UNL     1      36.958 -22.511 -16.079  0.00  0.00    -0.316 NA
ATOM      4  N   UNL     1      36.821 -23.947 -14.122  0.00  0.00    -0.296 N 
ATOM      5  N   UNL     1      36.799 -21.207 -18.015  0.00  0.00    -0.238 N 
ATOM      6  C   UNL     1      34.276 -23.270 -16.539  0.00  0.00    +0.288 C 
ATOM      7  C   UNL     1      34.988 -23.746 -15.457  0.00  0.00    +0.215 C 
ATOM      8  C   UNL     1      36.305 -23.360 -15.249  0.00  0.00    +0.196 C 
ATOM      9  C   UNL     1      36.184 -22.098 -17.106  0.00  0.00    +0.207 C 
ATOM     10  C   UNL     1      35.835 -24.680 -13.648  0.00  0.00    +0.164 C 
ATOM     11  H   UNL     1      33.852 -25.051 -14.258  0.00  0.00    +0.126 HD
ATOM     12  H   UNL     1      37.727 -23.844 -13.750  0.00  0.00    +0.150 HD
ATOM     13  H   UNL     1      37.732 -20.991 -17.789  0.00  0.00    +0.166 HD
ENDROOT
BRANCH   5  14
ATOM     14  C   UNL     1      36.338 -20.570 -19.181  0.00  0.00    +0.058 C 
ATOM     15  C   UNL     1      37.162 -19.671 -19.863  0.00  0.00    +0.015 C 
ATOM     16  C   UNL     1      35.053 -20.832 -19.663  0.00  0.00    +0.015 C 
ATOM     17  C   UNL     1      35.422 -19.304 -21.497  0.00  0.00    +0.053 C 
ATOM     18  C   UNL     1      36.706 -19.039 -21.019  0.00  0.00    +0.006 C 
ATOM     19  C   UNL     1      34.596 -20.201 -20.820  0.00  0.00    +0.006 C 
BRANCH  17  22
ATOM     20  O   UNL     1      34.118 -19.190 -23.455  0.00  0.00    -0.270 OA
ATOM     21  N   UNL     1      35.433 -17.372 -22.981  0.00  0.00    -0.325 N 
ATOM     22  C   UNL     1      34.946 -18.646 -22.703  0.00  0.00    +0.243 C 
ATOM     23  H   UNL     1      35.133 -16.895 -23.789  0.00  0.00    +0.145 HD
ATOM     24  H   UNL     1      36.078 -16.947 -22.370  0.00  0.00    +0.145 HD
ENDBRANCH  17  22
ENDBRANCH   5  14
BRANCH   6  25
ATOM     25  O   UNL     1      32.971 -23.619 -16.790  0.00  0.00    -0.453 OA
BRANCH  25  26
ATOM     26  C   UNL     1      31.999 -22.596 -16.673  0.00  0.00    +0.208 C 
BRANCH  26  27
ATOM     27  C   UNL     1      30.977 -23.019 -15.619  0.00  0.00    +0.044 C 
ATOM     28  C   UNL     1      29.549 -22.897 -16.169  0.00  0.00    +0.004 C 
ATOM     29  C   UNL     1      31.255 -24.449 -15.137  0.00  0.00    +0.004 C 
ATOM     30  C   UNL     1      28.511 -23.364 -15.152  0.00  0.00    +0.000 C 
ATOM     31  C   UNL     1      30.214 -24.914 -14.122  0.00  0.00    +0.000 C 
ATOM     32  C   UNL     1      28.796 -24.782 -14.668  0.00  0.00    +0.000 C 
ENDBRANCH  26  27
ENDBRANCH  25  26
ENDBRANCH   6  25
TORSDOF 5
ENDMDL
MODEL 8
REMARK VINA RESULT:     -10.1      2.655      5.415
REMARK  Name = 447656
REMARK  5 active torsions:
REMARK  status: ('A' for Active; 'I' for Inactive)
REMARK    1  A    between atoms: N_5  and  C_14
REMARK    2  A    between atoms: C_6  and  O_25
REMARK    3  A    between atoms: C_17  and  C_22
REMARK    4  A    between atoms: O_25  and  C_26
REMARK    5  A    between atoms: C_26  and  C_27
REMARK                            x       y       z     vdW  Elec       q    Type
REMARK                         _______ _______ _______ _____ _____    ______ ____
ROOT
ATOM      1  N   UNL     1      35.094 -22.419 -17.169  0.00  0.00    -0.293 NA
ATOM      2  N   UNL     1      34.037 -20.790 -20.292  0.00  0.00    -0.266 NA
ATOM      3  N   UNL     1      36.846 -21.113 -18.255  0.00  0.00    -0.316 NA
ATOM      4  N   UNL     1      36.136 -20.041 -20.319  0.00  0.00    -0.296 N 
ATOM      5  N   UNL     1      37.243 -22.256 -16.252  0.00  0.00    -0.238 N 
ATOM      6  C   UNL     1      34.204 -22.110 -18.136  0.00  0.00    +0.288 C 
ATOM      7  C   UNL     1      34.627 -21.301 -19.171  0.00  0.00    +0.215 C 
ATOM      8  C   UNL     1      35.929 -20.822 -19.210  0.00  0.00    +0.196 C 
ATOM      9  C   UNL     1      36.343 -21.908 -17.286  0.00  0.00    +0.207 C 
ATOM     10  C   UNL     1      34.979 -20.043 -20.946  0.00  0.00    +0.164 C 
ATOM     11  H   UNL     1      33.105 -20.933 -20.577  0.00  0.00    +0.126 HD
ATOM     12  H   UNL     1      36.965 -19.581 -20.585  0.00  0.00    +0.150 HD
ATOM     13  H   UNL     1      38.142 -21.870 -16.363  0.00  0.00    +0.166 HD
ENDROOT
BRANCH   5  14
ATOM     14  C   UNL     1      37.105 -23.044 -15.096  0.00  0.00    +0.058 C 
ATOM     15  C   UNL     1      36.126 -22.734 -14.149  0.00  0.00    +0.015 C 
ATOM     16  C   UNL     1      37.946 -24.140 -14.890  0.00  0.00    +0.015 C 
ATOM     17  C   UNL     1      36.829 -24.610 -12.799  0.00  0.00    +0.053 C 
ATOM     18  C   UNL     1      35.988 -23.516 -13.002  0.00  0.00    +0.006 C 
ATOM     19  C   UNL     1      37.808 -24.923 -13.743  0.00  0.00    +0.006 C 
BRANCH  17  22
ATOM     20  O   UNL     1      37.258 -26.525 -11.496  0.00  0.00    -0.270 OA
ATOM     21  N   UNL     1      35.899 -24.926 -10.570  0.00  0.00    -0.325 N 
ATOM     22  C   UNL     1      36.685 -25.425 -11.604  0.00  0.00    +0.243 C 
ATOM     23  H   UNL     1      35.778 -25.451  -9.745  0.00  0.00    +0.145 HD
ATOM     24  H   UNL     1      35.461 -24.049 -10.663  0.00  0.00    +0.145 HD
ENDBRANCH  17  22
ENDBRANCH   5  14
BRANCH   6  25
ATOM     25  O   UNL     1      32.929 -22.612 -18.049  0.00  0.00    -0.453 OA
BRANCH  25  26
ATOM     26  C   UNL     1      32.717 -23.675 -17.138  0.00  0.00    +0.208 C 
BRANCH  26  27
ATOM     27  C   UNL     1      32.070 -23.109 -15.875  0.00  0.00    +0.044 C 
ATOM     28  C   UNL     1      30.547 -23.289 -15.919  0.00  0.00    +0.004 C 
ATOM     29  C   UNL     1      32.661 -23.767 -14.621  0.00  0.00    +0.004 C 
ATOM     30  C   UNL     1      29.881 -22.778 -14.643  0.00  0.00    +0.000 C 
ATOM     31  C   UNL     1      31.991 -23.256 -13.348  0.00  0.00    +0.000 C 
ATOM     32  C   UNL     1      30.477 -23.428 -13.400  0.00  0.00    +0.000 C 
ENDBRANCH  26  27
ENDBRANCH  25  26
ENDBRANCH   6  25
TORSDOF 5
ENDMDL
MODEL 9
REMARK VINA RESULT:     -10.0      5.965      8.785
REMARK  Name = 447656
REMARK  5 active torsions:
REMARK  status: ('A' for Active; 'I' for Inactive)
REMARK    1  A    between atoms: N_5  and  C_14
REMARK    2  A    between atoms: C_6  and  O_25
REMARK    3  A    between atoms: C_17  and  C_22
REMARK    4  A    between atoms: O_25  and  C_26
REMARK    5  A    between atoms: C_26  and  C_27
REMARK                            x       y       z     vdW  Elec       q    Type
REMARK                         _______ _______ _______ _____ _____    ______ ____
ROOT
ATOM      1  N   UNL     1      35.017 -17.721 -20.781  0.00  0.00    -0.293 NA
ATOM      2  N   UNL     1      34.858 -14.832 -23.051  0.00  0.00    -0.266 NA
ATOM      3  N   UNL     1      35.236 -18.294 -23.143  0.00  0.00    -0.316 NA
ATOM      4  N   UNL     1      35.129 -16.377 -24.634  0.00  0.00    -0.296 N 
ATOM      5  N   UNL     1      35.302 -19.939 -21.479  0.00  0.00    -0.238 N 
ATOM      6  C   UNL     1      34.896 -16.407 -21.067  0.00  0.00    +0.288 C 
ATOM      7  C   UNL     1      34.943 -16.026 -22.392  0.00  0.00    +0.215 C 
ATOM      8  C   UNL     1      35.111 -16.969 -23.397  0.00  0.00    +0.196 C 
ATOM      9  C   UNL     1      35.178 -18.573 -21.822  0.00  0.00    +0.207 C 
ATOM     10  C   UNL     1      34.975 -15.093 -24.390  0.00  0.00    +0.164 C 
ATOM     11  H   UNL     1      34.735 -13.946 -22.638  0.00  0.00    +0.126 HD
ATOM     12  H   UNL     1      35.234 -16.815 -25.509  0.00  0.00    +0.150 HD
ATOM     13  H   UNL     1      35.418 -20.533 -22.255  0.00  0.00    +0.166 HD
ENDROOT
BRANCH   5  14
ATOM     14  C   UNL     1      35.292 -20.614 -20.246  0.00  0.00    +0.058 C 
ATOM     15  C   UNL     1      36.471 -20.744 -19.507  0.00  0.00    +0.015 C 
ATOM     16  C   UNL     1      34.103 -21.158 -19.754  0.00  0.00    +0.015 C 
ATOM     17  C   UNL     1      35.273 -21.955 -17.795  0.00  0.00    +0.053 C 
ATOM     18  C   UNL     1      36.461 -21.413 -18.284  0.00  0.00    +0.006 C 
ATOM     19  C   UNL     1      34.093 -21.828 -18.529  0.00  0.00    +0.006 C 
BRANCH  17  22
ATOM     20  O   UNL     1      34.480 -23.595 -16.301  0.00  0.00    -0.270 OA
ATOM     21  N   UNL     1      36.174 -22.243 -15.550  0.00  0.00    -0.325 N 
ATOM     22  C   UNL     1      35.262 -22.652 -16.519  0.00  0.00    +0.243 C 
ATOM     23  H   UNL     1      36.195 -22.692 -14.674  0.00  0.00    +0.145 HD
ATOM     24  H   UNL     1      36.796 -21.504 -15.740  0.00  0.00    +0.145 HD
ENDBRANCH  17  22
ENDBRANCH   5  14
BRANCH   6  25
ATOM     25  O   UNL     1      34.730 -15.516 -20.035  0.00  0.00    -0.453 OA
BRANCH  25  26
ATOM     26  C   UNL     1      33.402 -15.157 -19.703  0.00  0.00    +0.208 C 
BRANCH  26  27
ATOM     27  C   UNL     1      33.140 -13.743 -20.220  0.00  0.00    +0.044 C 
ATOM     28  C   UNL     1      32.322 -13.784 -21.518  0.00  0.00    +0.004 C 
ATOM     29  C   UNL     1      32.430 -12.899 -19.154  0.00  0.00    +0.004 C 
ATOM     30  C   UNL     1      32.001 -12.380 -22.026  0.00  0.00    +0.000 C 
ATOM     31  C   UNL     1      32.109 -11.497 -19.666  0.00  0.00    +0.000 C 
ATOM     32  C   UNL     1      31.304 -11.541 -20.961  0.00  0.00    +0.000 C 
ENDBRANCH  26  27
ENDBRANCH  25  26
ENDBRANCH   6  25
TORSDOF 5
ENDMDL
