MODEL 1
REMARK VINA RESULT:     -11.4      0.000      0.000
REMARK  Name = 10173277
REMARK  7 active torsions:
REMARK  status: ('A' for Active; 'I' for Inactive)
REMARK    1  A    between atoms: C_12  and  O_24
REMARK    2  A    between atoms: N_13  and  N_15
REMARK    3  A    between atoms: N_15  and  C_16
REMARK    4  A    between atoms: C_16  and  C_17
REMARK    5  A    between atoms: O_24  and  C_25
REMARK    6  A    between atoms: C_25  and  C_26
REMARK    7  A    between atoms: C_26  and  C_28
REMARK                            x       y       z     vdW  Elec       q    Type
REMARK                         _______ _______ _______ _____ _____    ______ ____
ROOT
ATOM      1  O   UNL     1      28.156 -24.146 -14.984  0.00  0.00    -0.350 OA
ATOM      2  N   UNL     1      30.785 -23.453 -15.696  0.00  0.00    -0.281 N 
ATOM      3  N   UNL     1      32.274 -22.922 -17.496  0.00  0.00    -0.300 NA
ATOM      4  N   UNL     1      34.627 -22.627 -17.068  0.00  0.00    -0.299 NA
ATOM      5  C   UNL     1      29.643 -22.851 -16.397  0.00  0.00    +0.125 C 
ATOM      6  C   UNL     1      30.509 -24.735 -15.039  0.00  0.00    +0.125 C 
ATOM      7  C   UNL     1      28.426 -22.834 -15.478  0.00  0.00    +0.164 C 
ATOM      8  C   UNL     1      29.246 -24.619 -14.194  0.00  0.00    +0.164 C 
ATOM      9  C   UNL     1      32.072 -23.174 -16.169  0.00  0.00    +0.184 C 
ATOM     10  C   UNL     1      33.131 -23.159 -15.260  0.00  0.00    +0.153 C 
ATOM     11  C   UNL     1      34.385 -22.880 -15.766  0.00  0.00    +0.195 C 
ATOM     12  C   UNL     1      33.543 -22.664 -17.867  0.00  0.00    +0.312 C 
ATOM     13  N   UNL     1      35.467 -22.863 -14.853  0.00  0.00    -0.238 N 
ATOM     14  H   UNL     1      36.377 -22.667 -15.176  0.00  0.00    +0.170 HD
ENDROOT
BRANCH  13  15
ATOM     15  N   UNL     1      35.258 -23.111 -13.553  0.00  0.00    -0.127 NA
BRANCH  15  16
ATOM     16  C   UNL     1      36.278 -23.646 -12.964  0.00  0.00    +0.138 C 
BRANCH  16  17
ATOM     17  C   UNL     1      36.987 -24.804 -13.534  0.00  0.00    -0.003 C 
ATOM     18  C   UNL     1      39.043 -25.923 -14.061  0.00  0.00    -0.022 C 
ATOM     19  C   UNL     1      38.372 -24.826 -13.522  0.00  0.00    -0.007 C 
ATOM     20  C   UNL     1      36.254 -25.851 -14.071  0.00  0.00    -0.003 C 
ATOM     21  C   UNL     1      38.320 -26.984 -14.605  0.00  0.00    -0.004 C 
ATOM     22  C   UNL     1      36.925 -26.948 -14.610  0.00  0.00    -0.001 C 
ATOM     23  C   UNL     1      40.534 -25.963 -14.055  0.00  0.00    +0.031 C 
ENDBRANCH  16  17
ENDBRANCH  15  16
ENDBRANCH  13  15
BRANCH  12  24
ATOM     24  O   UNL     1      33.753 -22.410 -19.202  0.00  0.00    -0.399 OA
BRANCH  24  25
ATOM     25  C   UNL     1      33.709 -21.049 -19.605  0.00  0.00    +0.229 C 
BRANCH  25  26
ATOM     26  C   UNL     1      35.119 -20.551 -19.900  0.00  0.00    +0.094 C 
BRANCH  26  28
ATOM     27  N   UNL     1      35.682 -18.318 -20.648  0.00  0.00    -0.248 NA
ATOM     28  C   UNL     1      35.143 -19.502 -20.984  0.00  0.00    +0.063 C 
ATOM     29  C   UNL     1      34.624 -19.817 -22.221  0.00  0.00    +0.015 C 
ATOM     30  C   UNL     1      34.661 -18.829 -23.199  0.00  0.00    +0.003 C 
ATOM     31  C   UNL     1      35.700 -17.382 -21.623  0.00  0.00    +0.098 C 
ATOM     32  C   UNL     1      35.208 -17.585 -22.902  0.00  0.00    +0.021 C 
ENDBRANCH  26  28
ENDBRANCH  25  26
ENDBRANCH  24  25
ENDBRANCH  12  24
TORSDOF 7
ENDMDL
MODEL 2
REMARK VINA RESULT:     -10.5      1.529      2.174
REMARK  Name = 10173277
REMARK  7 active torsions:
REMARK  status: ('A' for Active; 'I' for Inactive)
REMARK    1  A    between atoms: C_12  and  O_24
REMARK    2  A    between atoms: N_13  and  N_15
REMARK    3  A    between atoms: N_15  and  C_16
REMARK    4  A    between atoms: C_16  and  C_17
REMARK    5  A    between atoms: O_24  and  C_25
REMARK    6  A    between atoms: C_25  and  C_26
REMARK    7  A    between atoms: C_26  and  C_28
REMARK                            x       y       z     vdW  Elec       q    Type
REMARK                         _______ _______ _______ _____ _____    ______ ____
ROOT
ATOM      1  O   UNL     1      30.183 -24.265 -13.886  0.00  0.00    -0.350 OA
ATOM      2  N   UNL     1      32.244 -23.268 -15.516  0.00  0.00    -0.281 N 
ATOM      3  N   UNL     1      32.860 -22.569 -17.723  0.00  0.00    -0.300 NA
ATOM      4  N   UNL     1      35.149 -21.998 -18.213  0.00  0.00    -0.299 NA
ATOM      5  C   UNL     1      30.861 -22.807 -15.702  0.00  0.00    +0.125 C 
ATOM      6  C   UNL     1      32.384 -24.573 -14.859  0.00  0.00    +0.125 C 
ATOM      7  C   UNL     1      30.097 -22.932 -14.389  0.00  0.00    +0.164 C 
ATOM      8  C   UNL     1      31.537 -24.604 -13.592  0.00  0.00    +0.164 C 
ATOM      9  C   UNL     1      33.212 -22.841 -16.431  0.00  0.00    +0.184 C 
ATOM     10  C   UNL     1      34.530 -22.699 -15.995  0.00  0.00    +0.153 C 
ATOM     11  C   UNL     1      35.455 -22.275 -16.928  0.00  0.00    +0.195 C 
ATOM     12  C   UNL     1      33.853 -22.164 -18.538  0.00  0.00    +0.312 C 
ATOM     13  N   UNL     1      36.796 -22.128 -16.498  0.00  0.00    -0.238 N 
ATOM     14  H   UNL     1      37.485 -21.828 -17.134  0.00  0.00    +0.170 HD
ENDROOT
BRANCH  13  15
ATOM     15  N   UNL     1      37.130 -22.396 -15.228  0.00  0.00    -0.127 NA
BRANCH  15  16
ATOM     16  C   UNL     1      37.829 -23.477 -15.101  0.00  0.00    +0.138 C 
BRANCH  16  17
ATOM     17  C   UNL     1      37.586 -24.438 -14.011  0.00  0.00    -0.003 C 
ATOM     18  C   UNL     1      36.747 -24.914 -11.814  0.00  0.00    -0.022 C 
ATOM     19  C   UNL     1      36.976 -24.003 -12.845  0.00  0.00    -0.007 C 
ATOM     20  C   UNL     1      37.974 -25.759 -14.173  0.00  0.00    -0.003 C 
ATOM     21  C   UNL     1      37.131 -26.246 -11.962  0.00  0.00    -0.004 C 
ATOM     22  C   UNL     1      37.745 -26.669 -13.141  0.00  0.00    -0.001 C 
ATOM     23  C   UNL     1      36.090 -24.463 -10.553  0.00  0.00    +0.031 C 
ENDBRANCH  16  17
ENDBRANCH  15  16
ENDBRANCH  13  15
BRANCH  12  24
ATOM     24  O   UNL     1      33.506 -21.890 -19.840  0.00  0.00    -0.399 OA
BRANCH  24  25
ATOM     25  C   UNL     1      33.582 -20.531 -20.246  0.00  0.00    +0.229 C 
BRANCH  25  26
ATOM     26  C   UNL     1      34.960 -20.243 -20.829  0.00  0.00    +0.094 C 
BRANCH  26  28
ATOM     27  N   UNL     1      34.492 -19.355 -23.033  0.00  0.00    -0.248 NA
ATOM     28  C   UNL     1      34.944 -19.085 -21.796  0.00  0.00    +0.063 C 
ATOM     29  C   UNL     1      35.383 -17.853 -21.362  0.00  0.00    +0.015 C 
ATOM     30  C   UNL     1      35.356 -16.807 -22.277  0.00  0.00    +0.003 C 
ATOM     31  C   UNL     1      34.480 -18.314 -23.895  0.00  0.00    +0.098 C 
ATOM     32  C   UNL     1      34.897 -17.034 -23.570  0.00  0.00    +0.021 C 
ENDBRANCH  26  28
ENDBRANCH  25  26
ENDBRANCH  24  25
ENDBRANCH  12  24
TORSDOF 7
ENDMDL
MODEL 3
REMARK VINA RESULT:     -10.0      2.862      8.602
REMARK  Name = 10173277
REMARK  7 active torsions:
REMARK  status: ('A' for Active; 'I' for Inactive)
REMARK    1  A    between atoms: C_12  and  O_24
REMARK    2  A    between atoms: N_13  and  N_15
REMARK    3  A    between atoms: N_15  and  C_16
REMARK    4  A    between atoms: C_16  and  C_17
REMARK    5  A    between atoms: O_24  and  C_25
REMARK    6  A    between atoms: C_25  and  C_26
REMARK    7  A    between atoms: C_26  and  C_28
REMARK                            x       y       z     vdW  Elec       q    Type
REMARK                         _______ _______ _______ _____ _____    ______ ____
ROOT
ATOM      1  O   UNL     1      35.045 -21.112 -19.896  0.00  0.00    -0.350 OA
ATOM      2  N   UNL     1      34.931 -22.373 -17.386  0.00  0.00    -0.281 N 
ATOM      3  N   UNL     1      35.932 -24.000 -15.941  0.00  0.00    -0.300 NA
ATOM      4  N   UNL     1      34.887 -24.554 -13.841  0.00  0.00    -0.299 NA
ATOM      5  C   UNL     1      36.228 -22.040 -17.991  0.00  0.00    +0.125 C 
ATOM      6  C   UNL     1      33.815 -22.500 -18.330  0.00  0.00    +0.125 C 
ATOM      7  C   UNL     1      36.065 -20.851 -18.932  0.00  0.00    +0.164 C 
ATOM      8  C   UNL     1      33.783 -21.288 -19.254  0.00  0.00    +0.164 C 
ATOM      9  C   UNL     1      34.926 -23.112 -16.198  0.00  0.00    +0.184 C 
ATOM     10  C   UNL     1      33.882 -22.919 -15.293  0.00  0.00    +0.153 C 
ATOM     11  C   UNL     1      33.914 -23.667 -14.133  0.00  0.00    +0.195 C 
ATOM     12  C   UNL     1      35.850 -24.671 -14.775  0.00  0.00    +0.312 C 
ATOM     13  N   UNL     1      32.859 -23.480 -13.207  0.00  0.00    -0.238 N 
ATOM     14  H   UNL     1      32.846 -23.995 -12.368  0.00  0.00    +0.170 HD
ENDROOT
BRANCH  13  15
ATOM     15  N   UNL     1      31.878 -22.605 -13.469  0.00  0.00    -0.127 NA
BRANCH  15  16
ATOM     16  C   UNL     1      30.695 -23.089 -13.270  0.00  0.00    +0.138 C 
BRANCH  16  17
ATOM     17  C   UNL     1      29.819 -23.488 -14.385  0.00  0.00    -0.003 C 
ATOM     18  C   UNL     1      28.042 -22.974 -15.914  0.00  0.00    -0.022 C 
ATOM     19  C   UNL     1      28.871 -22.596 -14.858  0.00  0.00    -0.007 C 
ATOM     20  C   UNL     1      29.960 -24.751 -14.939  0.00  0.00    -0.003 C 
ATOM     21  C   UNL     1      28.173 -24.241 -16.482  0.00  0.00    -0.004 C 
ATOM     22  C   UNL     1      29.132 -25.130 -15.996  0.00  0.00    -0.001 C 
ATOM     23  C   UNL     1      27.017 -22.024 -16.436  0.00  0.00    +0.031 C 
ENDBRANCH  16  17
ENDBRANCH  15  16
ENDBRANCH  13  15
BRANCH  12  24
ATOM     24  O   UNL     1      36.859 -25.567 -14.510  0.00  0.00    -0.399 OA
BRANCH  24  25
ATOM     25  C   UNL     1      38.151 -25.022 -14.283  0.00  0.00    +0.229 C 
BRANCH  25  26
ATOM     26  C   UNL     1      38.595 -25.325 -12.857  0.00  0.00    +0.094 C 
BRANCH  26  28
ATOM     27  N   UNL     1      36.798 -25.659 -11.267  0.00  0.00    -0.248 NA
ATOM     28  C   UNL     1      37.638 -24.772 -11.828  0.00  0.00    +0.063 C 
ATOM     29  C   UNL     1      37.685 -23.426 -11.537  0.00  0.00    +0.015 C 
ATOM     30  C   UNL     1      36.791 -22.949 -10.585  0.00  0.00    +0.003 C 
ATOM     31  C   UNL     1      35.944 -25.158 -10.348  0.00  0.00    +0.098 C 
ATOM     32  C   UNL     1      35.901 -23.825  -9.974  0.00  0.00    +0.021 C 
ENDBRANCH  26  28
ENDBRANCH  25  26
ENDBRANCH  24  25
ENDBRANCH  12  24
TORSDOF 7
ENDMDL
MODEL 4
REMARK VINA RESULT:      -8.8      9.407     14.146
REMARK  Name = 10173277
REMARK  7 active torsions:
REMARK  status: ('A' for Active; 'I' for Inactive)
REMARK    1  A    between atoms: C_12  and  O_24
REMARK    2  A    between atoms: N_13  and  N_15
REMARK    3  A    between atoms: N_15  and  C_16
REMARK    4  A    between atoms: C_16  and  C_17
REMARK    5  A    between atoms: O_24  and  C_25
REMARK    6  A    between atoms: C_25  and  C_26
REMARK    7  A    between atoms: C_26  and  C_28
REMARK                            x       y       z     vdW  Elec       q    Type
REMARK                         _______ _______ _______ _____ _____    ______ ____
ROOT
ATOM      1  O   UNL     1      31.551  -9.149 -17.920  0.00  0.00    -0.350 OA
ATOM      2  N   UNL     1      32.150  -9.892 -20.564  0.00  0.00    -0.281 N 
ATOM      3  N   UNL     1      32.104  -9.228 -22.866  0.00  0.00    -0.300 NA
ATOM      4  N   UNL     1      32.729 -10.796 -24.586  0.00  0.00    -0.299 NA
ATOM      5  C   UNL     1      32.355  -8.507 -20.117  0.00  0.00    +0.125 C 
ATOM      6  C   UNL     1      31.180 -10.664 -19.779  0.00  0.00    +0.125 C 
ATOM      7  C   UNL     1      32.608  -8.484 -18.614  0.00  0.00    +0.164 C 
ATOM      8  C   UNL     1      31.494 -10.524 -18.293  0.00  0.00    +0.164 C 
ATOM      9  C   UNL     1      32.341 -10.184 -21.919  0.00  0.00    +0.184 C 
ATOM     10  C   UNL     1      32.776 -11.462 -22.274  0.00  0.00    +0.153 C 
ATOM     11  C   UNL     1      32.952 -11.711 -23.620  0.00  0.00    +0.195 C 
ATOM     12  C   UNL     1      32.312  -9.594 -24.146  0.00  0.00    +0.312 C 
ATOM     13  N   UNL     1      33.393 -13.004 -23.992  0.00  0.00    -0.238 N 
ATOM     14  H   UNL     1      33.530 -13.220 -24.943  0.00  0.00    +0.170 HD
ENDROOT
BRANCH  13  15
ATOM     15  N   UNL     1      33.623 -13.934 -23.055  0.00  0.00    -0.127 NA
BRANCH  15  16
ATOM     16  C   UNL     1      34.727 -14.582 -23.238  0.00  0.00    +0.138 C 
BRANCH  16  17
ATOM     17  C   UNL     1      34.774 -16.054 -23.253  0.00  0.00    -0.003 C 
ATOM     18  C   UNL     1      35.381 -18.121 -22.194  0.00  0.00    -0.022 C 
ATOM     19  C   UNL     1      35.338 -16.726 -22.181  0.00  0.00    -0.007 C 
ATOM     20  C   UNL     1      34.252 -16.738 -24.339  0.00  0.00    -0.003 C 
ATOM     21  C   UNL     1      34.860 -18.823 -23.280  0.00  0.00    -0.004 C 
ATOM     22  C   UNL     1      34.295 -18.133 -24.353  0.00  0.00    -0.001 C 
ATOM     23  C   UNL     1      35.985 -18.860 -21.048  0.00  0.00    +0.031 C 
ENDBRANCH  16  17
ENDBRANCH  15  16
ENDBRANCH  13  15
BRANCH  12  24
ATOM     24  O   UNL     1      32.074  -8.636 -25.103  0.00  0.00    -0.399 OA
BRANCH  24  25
ATOM     25  C   UNL     1      31.226  -7.560 -24.730  0.00  0.00    +0.229 C 
BRANCH  25  26
ATOM     26  C   UNL     1      32.029  -6.265 -24.676  0.00  0.00    +0.094 C 
BRANCH  26  28
ATOM     27  N   UNL     1      31.986  -4.075 -23.644  0.00  0.00    -0.248 NA
ATOM     28  C   UNL     1      31.569  -5.350 -23.567  0.00  0.00    +0.063 C 
ATOM     29  C   UNL     1      30.769  -5.867 -22.571  0.00  0.00    +0.015 C 
ATOM     30  C   UNL     1      30.362  -4.998 -21.565  0.00  0.00    +0.003 C 
ATOM     31  C   UNL     1      31.571  -3.260 -22.649  0.00  0.00    +0.098 C 
ATOM     32  C   UNL     1      30.767  -3.668 -21.597  0.00  0.00    +0.021 C 
ENDBRANCH  26  28
ENDBRANCH  25  26
ENDBRANCH  24  25
ENDBRANCH  12  24
TORSDOF 7
ENDMDL
MODEL 5
REMARK VINA RESULT:      -8.8     10.107     16.233
REMARK  Name = 10173277
REMARK  7 active torsions:
REMARK  status: ('A' for Active; 'I' for Inactive)
REMARK    1  A    between atoms: C_12  and  O_24
REMARK    2  A    between atoms: N_13  and  N_15
REMARK    3  A    between atoms: N_15  and  C_16
REMARK    4  A    between atoms: C_16  and  C_17
REMARK    5  A    between atoms: O_24  and  C_25
REMARK    6  A    between atoms: C_25  and  C_26
REMARK    7  A    between atoms: C_26  and  C_28
REMARK                            x       y       z     vdW  Elec       q    Type
REMARK                         _______ _______ _______ _____ _____    ______ ____
ROOT
ATOM      1  O   UNL     1      31.950  -9.640 -17.656  0.00  0.00    -0.350 OA
ATOM      2  N   UNL     1      32.077  -9.781 -20.460  0.00  0.00    -0.281 N 
ATOM      3  N   UNL     1      32.883 -11.019 -22.346  0.00  0.00    -0.300 NA
ATOM      4  N   UNL     1      32.612 -10.139 -24.573  0.00  0.00    -0.299 NA
ATOM      5  C   UNL     1      31.916 -11.004 -19.662  0.00  0.00    +0.125 C 
ATOM      6  C   UNL     1      32.671  -8.644 -19.748  0.00  0.00    +0.125 C 
ATOM      7  C   UNL     1      31.234 -10.669 -18.341  0.00  0.00    +0.164 C 
ATOM      8  C   UNL     1      31.950  -8.436 -18.420  0.00  0.00    +0.164 C 
ATOM      9  C   UNL     1      32.263  -9.912 -21.841  0.00  0.00    +0.184 C 
ATOM     10  C   UNL     1      31.802  -8.895 -22.679  0.00  0.00    +0.153 C 
ATOM     11  C   UNL     1      32.004  -9.062 -24.034  0.00  0.00    +0.195 C 
ATOM     12  C   UNL     1      33.021 -11.065 -23.686  0.00  0.00    +0.312 C 
ATOM     13  N   UNL     1      31.542  -8.036 -24.894  0.00  0.00    -0.238 N 
ATOM     14  H   UNL     1      31.667  -8.119 -25.867  0.00  0.00    +0.170 HD
ENDROOT
BRANCH  13  15
ATOM     15  N   UNL     1      30.934  -6.954 -24.388  0.00  0.00    -0.127 NA
BRANCH  15  16
ATOM     16  C   UNL     1      31.502  -5.843 -24.728  0.00  0.00    +0.138 C 
BRANCH  16  17
ATOM     17  C   UNL     1      32.914  -5.785 -25.144  0.00  0.00    -0.003 C 
ATOM     18  C   UNL     1      34.557  -5.547 -26.877  0.00  0.00    -0.022 C 
ATOM     19  C   UNL     1      33.220  -5.603 -26.483  0.00  0.00    -0.007 C 
ATOM     20  C   UNL     1      33.909  -5.916 -24.188  0.00  0.00    -0.003 C 
ATOM     21  C   UNL     1      35.570  -5.676 -25.926  0.00  0.00    -0.004 C 
ATOM     22  C   UNL     1      35.246  -5.860 -24.581  0.00  0.00    -0.001 C 
ATOM     23  C   UNL     1      34.904  -5.350 -28.314  0.00  0.00    +0.031 C 
ENDBRANCH  16  17
ENDBRANCH  15  16
ENDBRANCH  13  15
BRANCH  12  24
ATOM     24  O   UNL     1      33.645 -12.177 -24.200  0.00  0.00    -0.399 OA
BRANCH  24  25
ATOM     25  C   UNL     1      32.992 -13.423 -24.001  0.00  0.00    +0.229 C 
BRANCH  25  26
ATOM     26  C   UNL     1      33.521 -14.448 -24.997  0.00  0.00    +0.094 C 
BRANCH  26  28
ATOM     27  N   UNL     1      33.949 -16.831 -24.951  0.00  0.00    -0.248 NA
ATOM     28  C   UNL     1      34.113 -15.658 -24.316  0.00  0.00    +0.063 C 
ATOM     29  C   UNL     1      34.767 -15.488 -23.115  0.00  0.00    +0.015 C 
ATOM     30  C   UNL     1      35.301 -16.622 -22.514  0.00  0.00    +0.003 C 
ATOM     31  C   UNL     1      34.480 -17.911 -24.336  0.00  0.00    +0.098 C 
ATOM     32  C   UNL     1      35.159 -17.861 -23.130  0.00  0.00    +0.021 C 
ENDBRANCH  26  28
ENDBRANCH  25  26
ENDBRANCH  24  25
ENDBRANCH  12  24
TORSDOF 7
ENDMDL
MODEL 6
REMARK VINA RESULT:      -8.6      2.442      6.569
REMARK  Name = 10173277
REMARK  7 active torsions:
REMARK  status: ('A' for Active; 'I' for Inactive)
REMARK    1  A    between atoms: C_12  and  O_24
REMARK    2  A    between atoms: N_13  and  N_15
REMARK    3  A    between atoms: N_15  and  C_16
REMARK    4  A    between atoms: C_16  and  C_17
REMARK    5  A    between atoms: O_24  and  C_25
REMARK    6  A    between atoms: C_25  and  C_26
REMARK    7  A    between atoms: C_26  and  C_28
REMARK                            x       y       z     vdW  Elec       q    Type
REMARK                         _______ _______ _______ _____ _____    ______ ____
ROOT
ATOM      1  O   UNL     1      35.442 -20.773 -19.708  0.00  0.00    -0.350 OA
ATOM      2  N   UNL     1      34.580 -22.384 -17.572  0.00  0.00    -0.281 N 
ATOM      3  N   UNL     1      32.878 -22.743 -15.924  0.00  0.00    -0.300 NA
ATOM      4  N   UNL     1      33.160 -24.454 -14.251  0.00  0.00    -0.299 NA
ATOM      5  C   UNL     1      33.608 -21.837 -18.529  0.00  0.00    +0.125 C 
ATOM      6  C   UNL     1      35.848 -21.652 -17.482  0.00  0.00    +0.125 C 
ATOM      7  C   UNL     1      34.288 -21.599 -19.872  0.00  0.00    +0.164 C 
ATOM      8  C   UNL     1      36.408 -21.421 -18.882  0.00  0.00    +0.164 C 
ATOM      9  C   UNL     1      34.092 -23.073 -16.455  0.00  0.00    +0.184 C 
ATOM     10  C   UNL     1      34.869 -24.094 -15.907  0.00  0.00    +0.153 C 
ATOM     11  C   UNL     1      34.353 -24.749 -14.806  0.00  0.00    +0.195 C 
ATOM     12  C   UNL     1      32.484 -23.455 -14.850  0.00  0.00    +0.312 C 
ATOM     13  N   UNL     1      35.133 -25.787 -14.240  0.00  0.00    -0.238 N 
ATOM     14  H   UNL     1      34.799 -26.278 -13.455  0.00  0.00    +0.170 HD
ENDROOT
BRANCH  13  15
ATOM     15  N   UNL     1      36.322 -26.103 -14.770  0.00  0.00    -0.127 NA
BRANCH  15  16
ATOM     16  C   UNL     1      37.317 -25.838 -13.987  0.00  0.00    +0.138 C 
BRANCH  16  17
ATOM     17  C   UNL     1      37.198 -24.883 -12.871  0.00  0.00    -0.003 C 
ATOM     18  C   UNL     1      36.359 -24.335 -10.691  0.00  0.00    -0.022 C 
ATOM     19  C   UNL     1      36.471 -25.240 -11.747  0.00  0.00    -0.007 C 
ATOM     20  C   UNL     1      37.816 -23.647 -12.969  0.00  0.00    -0.003 C 
ATOM     21  C   UNL     1      36.975 -23.087 -10.774  0.00  0.00    -0.004 C 
ATOM     22  C   UNL     1      37.704 -22.742 -11.913  0.00  0.00    -0.001 C 
ATOM     23  C   UNL     1      35.581 -24.703  -9.473  0.00  0.00    +0.031 C 
ENDBRANCH  16  17
ENDBRANCH  15  16
ENDBRANCH  13  15
BRANCH  12  24
ATOM     24  O   UNL     1      31.263 -23.127 -14.310  0.00  0.00    -0.399 OA
BRANCH  24  25
ATOM     25  C   UNL     1      30.251 -24.121 -14.376  0.00  0.00    +0.229 C 
BRANCH  25  26
ATOM     26  C   UNL     1      29.737 -24.241 -15.805  0.00  0.00    +0.094 C 
BRANCH  26  28
ATOM     27  N   UNL     1      28.096 -23.303 -17.320  0.00  0.00    -0.248 NA
ATOM     28  C   UNL     1      28.500 -23.409 -16.042  0.00  0.00    +0.063 C 
ATOM     29  C   UNL     1      27.878 -22.825 -14.961  0.00  0.00    +0.015 C 
ATOM     30  C   UNL     1      26.741 -22.066 -15.212  0.00  0.00    +0.003 C 
ATOM     31  C   UNL     1      26.989 -22.557 -17.526  0.00  0.00    +0.098 C 
ATOM     32  C   UNL     1      26.281 -21.924 -16.517  0.00  0.00    +0.021 C 
ENDBRANCH  26  28
ENDBRANCH  25  26
ENDBRANCH  24  25
ENDBRANCH  12  24
TORSDOF 7
ENDMDL
MODEL 7
REMARK VINA RESULT:      -8.5     10.126     16.741
REMARK  Name = 10173277
REMARK  7 active torsions:
REMARK  status: ('A' for Active; 'I' for Inactive)
REMARK    1  A    between atoms: C_12  and  O_24
REMARK    2  A    between atoms: N_13  and  N_15
REMARK    3  A    between atoms: N_15  and  C_16
REMARK    4  A    between atoms: C_16  and  C_17
REMARK    5  A    between atoms: O_24  and  C_25
REMARK    6  A    between atoms: C_25  and  C_26
REMARK    7  A    between atoms: C_26  and  C_28
REMARK                            x       y       z     vdW  Elec       q    Type
REMARK                         _______ _______ _______ _____ _____    ______ ____
ROOT
ATOM      1  O   UNL     1      31.644  -9.292 -17.901  0.00  0.00    -0.350 OA
ATOM      2  N   UNL     1      32.019  -9.652 -20.663  0.00  0.00    -0.281 N 
ATOM      3  N   UNL     1      32.929 -11.066 -22.370  0.00  0.00    -0.300 NA
ATOM      4  N   UNL     1      32.909 -10.347 -24.670  0.00  0.00    -0.299 NA
ATOM      5  C   UNL     1      31.723 -10.802 -19.798  0.00  0.00    +0.125 C 
ATOM      6  C   UNL     1      32.603  -8.491 -19.981  0.00  0.00    +0.125 C 
ATOM      7  C   UNL     1      30.941 -10.337 -18.575  0.00  0.00    +0.164 C 
ATOM      8  C   UNL     1      31.775  -8.150 -18.747  0.00  0.00    +0.164 C 
ATOM      9  C   UNL     1      32.323  -9.896 -22.007  0.00  0.00    +0.184 C 
ATOM     10  C   UNL     1      31.994  -8.927 -22.956  0.00  0.00    +0.153 C 
ATOM     11  C   UNL     1      32.311  -9.206 -24.270  0.00  0.00    +0.195 C 
ATOM     12  C   UNL     1      33.187 -11.221 -23.683  0.00  0.00    +0.312 C 
ATOM     13  N   UNL     1      31.982  -8.230 -25.242  0.00  0.00    -0.238 N 
ATOM     14  H   UNL     1      32.192  -8.392 -26.190  0.00  0.00    +0.170 HD
ENDROOT
BRANCH  13  15
ATOM     15  N   UNL     1      31.388  -7.086 -24.875  0.00  0.00    -0.127 NA
BRANCH  15  16
ATOM     16  C   UNL     1      32.104  -6.037 -25.116  0.00  0.00    +0.138 C 
BRANCH  16  17
ATOM     17  C   UNL     1      31.878  -4.761 -24.417  0.00  0.00    -0.003 C 
ATOM     18  C   UNL     1      30.937  -3.543 -22.576  0.00  0.00    -0.022 C 
ATOM     19  C   UNL     1      31.150  -4.752 -23.238  0.00  0.00    -0.007 C 
ATOM     20  C   UNL     1      32.396  -3.593 -24.954  0.00  0.00    -0.003 C 
ATOM     21  C   UNL     1      31.452  -2.359 -23.103  0.00  0.00    -0.004 C 
ATOM     22  C   UNL     1      32.183  -2.383 -24.292  0.00  0.00    -0.001 C 
ATOM     23  C   UNL     1      30.157  -3.515 -21.305  0.00  0.00    +0.031 C 
ENDBRANCH  16  17
ENDBRANCH  15  16
ENDBRANCH  13  15
BRANCH  12  24
ATOM     24  O   UNL     1      33.797 -12.395 -24.055  0.00  0.00    -0.399 OA
BRANCH  24  25
ATOM     25  C   UNL     1      33.007 -13.573 -23.982  0.00  0.00    +0.229 C 
BRANCH  25  26
ATOM     26  C   UNL     1      33.523 -14.603 -24.980  0.00  0.00    +0.094 C 
BRANCH  26  28
ATOM     27  N   UNL     1      33.825 -17.005 -24.890  0.00  0.00    -0.248 NA
ATOM     28  C   UNL     1      34.091 -15.826 -24.301  0.00  0.00    +0.063 C 
ATOM     29  C   UNL     1      34.829 -15.661 -23.149  0.00  0.00    +0.015 C 
ATOM     30  C   UNL     1      35.339 -16.806 -22.549  0.00  0.00    +0.003 C 
ATOM     31  C   UNL     1      34.337 -18.096 -24.278  0.00  0.00    +0.098 C 
ATOM     32  C   UNL     1      35.093 -18.051 -23.118  0.00  0.00    +0.021 C 
ENDBRANCH  26  28
ENDBRANCH  25  26
ENDBRANCH  24  25
ENDBRANCH  12  24
TORSDOF 7
ENDMDL
MODEL 8
REMARK VINA RESULT:      -8.4      9.387     14.032
REMARK  Name = 10173277
REMARK  7 active torsions:
REMARK  status: ('A' for Active; 'I' for Inactive)
REMARK    1  A    between atoms: C_12  and  O_24
REMARK    2  A    between atoms: N_13  and  N_15
REMARK    3  A    between atoms: N_15  and  C_16
REMARK    4  A    between atoms: C_16  and  C_17
REMARK    5  A    between atoms: O_24  and  C_25
REMARK    6  A    between atoms: C_25  and  C_26
REMARK    7  A    between atoms: C_26  and  C_28
REMARK                            x       y       z     vdW  Elec       q    Type
REMARK                         _______ _______ _______ _____ _____    ______ ____
ROOT
ATOM      1  O   UNL     1      31.575  -9.200 -17.760  0.00  0.00    -0.350 OA
ATOM      2  N   UNL     1      32.126  -9.795 -20.451  0.00  0.00    -0.281 N 
ATOM      3  N   UNL     1      32.021  -9.013 -22.713  0.00  0.00    -0.300 NA
ATOM      4  N   UNL     1      32.630 -10.479 -24.526  0.00  0.00    -0.299 NA
ATOM      5  C   UNL     1      32.322  -8.432 -19.936  0.00  0.00    +0.125 C 
ATOM      6  C   UNL     1      31.184 -10.621 -19.687  0.00  0.00    +0.125 C 
ATOM      7  C   UNL     1      32.607  -8.485 -18.439  0.00  0.00    +0.164 C 
ATOM      8  C   UNL     1      31.528 -10.555 -18.203  0.00  0.00    +0.164 C 
ATOM      9  C   UNL     1      32.291 -10.013 -21.823  0.00  0.00    +0.184 C 
ATOM     10  C   UNL     1      32.736 -11.264 -22.253  0.00  0.00    +0.153 C 
ATOM     11  C   UNL     1      32.886 -11.439 -23.614  0.00  0.00    +0.195 C 
ATOM     12  C   UNL     1      32.206  -9.307 -24.014  0.00  0.00    +0.312 C 
ATOM     13  N   UNL     1      33.336 -12.705 -24.063  0.00  0.00    -0.238 N 
ATOM     14  H   UNL     1      33.456 -12.869 -25.026  0.00  0.00    +0.170 HD
ENDROOT
BRANCH  13  15
ATOM     15  N   UNL     1      33.599 -13.679 -23.181  0.00  0.00    -0.127 NA
BRANCH  15  16
ATOM     16  C   UNL     1      34.685 -14.330 -23.448  0.00  0.00    +0.138 C 
BRANCH  16  17
ATOM     17  C   UNL     1      34.740 -15.802 -23.410  0.00  0.00    -0.003 C 
ATOM     18  C   UNL     1      35.381 -17.825 -22.291  0.00  0.00    -0.022 C 
ATOM     19  C   UNL     1      35.330 -16.432 -22.327  0.00  0.00    -0.007 C 
ATOM     20  C   UNL     1      34.199 -16.527 -24.460  0.00  0.00    -0.003 C 
ATOM     21  C   UNL     1      34.842 -18.569 -23.340  0.00  0.00    -0.004 C 
ATOM     22  C   UNL     1      34.250 -17.921 -24.424  0.00  0.00    -0.001 C 
ATOM     23  C   UNL     1      36.012 -18.519 -21.132  0.00  0.00    +0.031 C 
ENDBRANCH  16  17
ENDBRANCH  15  16
ENDBRANCH  13  15
BRANCH  12  24
ATOM     24  O   UNL     1      31.935  -8.305 -24.915  0.00  0.00    -0.399 OA
BRANCH  24  25
ATOM     25  C   UNL     1      30.904  -7.393 -24.562  0.00  0.00    +0.229 C 
BRANCH  25  26
ATOM     26  C   UNL     1      31.436  -5.966 -24.617  0.00  0.00    +0.094 C 
BRANCH  26  28
ATOM     27  N   UNL     1      33.093  -5.717 -26.366  0.00  0.00    -0.248 NA
ATOM     28  C   UNL     1      32.880  -5.908 -25.053  0.00  0.00    +0.063 C 
ATOM     29  C   UNL     1      33.865  -6.050 -24.100  0.00  0.00    +0.015 C 
ATOM     30  C   UNL     1      35.185  -5.992 -24.533  0.00  0.00    +0.003 C 
ATOM     31  C   UNL     1      34.388  -5.667 -26.750  0.00  0.00    +0.098 C 
ATOM     32  C   UNL     1      35.460  -5.797 -25.882  0.00  0.00    +0.021 C 
ENDBRANCH  26  28
ENDBRANCH  25  26
ENDBRANCH  24  25
ENDBRANCH  12  24
TORSDOF 7
ENDMDL
