MODEL 1
REMARK VINA RESULT:     -12.3      0.000      0.000
REMARK  Name = 17748441
REMARK  5 active torsions:
REMARK  status: ('A' for Active; 'I' for Inactive)
REMARK    1  A    between atoms: C_2  and  N_10
REMARK    2  A    between atoms: C_3  and  O_24
REMARK    3  A    between atoms: C_12  and  C_16
REMARK    4  A    between atoms: C_16  and  C_18
REMARK    5  A    between atoms: O_24  and  C_27
REMARK                            x       y       z     vdW  Elec       q    Type
REMARK                         _______ _______ _______ _____ _____    ______ ____
ROOT
ATOM      1  F   UNL     1      30.820 -11.784 -20.770  0.00  0.00    -0.201 F 
ATOM      2  C   UNL     1      33.718 -13.716 -21.817  0.00  0.00    +0.054 C 
ATOM      3  C   UNL     1      32.363 -11.383 -22.527  0.00  0.00    +0.173 C 
ATOM      4  C   UNL     1      32.584 -13.323 -21.105  0.00  0.00    +0.047 C 
ATOM      5  C   UNL     1      34.173 -12.942 -22.884  0.00  0.00    +0.018 C 
ATOM      6  C   UNL     1      31.908 -12.156 -21.460  0.00  0.00    +0.176 C 
ATOM      7  C   UNL     1      33.496 -11.776 -23.240  0.00  0.00    +0.041 C 
ENDROOT
BRANCH   2  10
ATOM      8  O   UNL     1      35.745 -18.575 -23.185  0.00  0.00    -0.274 OA
ATOM      9  O   UNL     1      34.450 -16.116 -23.466  0.00  0.00    -0.252 OA
ATOM     10  N   UNL     1      34.405 -14.899 -21.457  0.00  0.00    -0.268 N 
ATOM     11  N   UNL     1      35.410 -16.967 -21.530  0.00  0.00    -0.239 N 
ATOM     12  C   UNL     1      35.875 -18.187 -22.027  0.00  0.00    +0.234 C 
ATOM     13  C   UNL     1      34.719 -15.990 -22.274  0.00  0.00    +0.310 C 
ATOM     14  H   UNL     1      34.696 -14.962 -20.518  0.00  0.00    +0.156 HD
ATOM     15  H   UNL     1      35.579 -16.774 -20.578  0.00  0.00    +0.159 HD
BRANCH  12  16
ATOM     16  C   UNL     1      36.573 -18.992 -20.947  0.00  0.00    +0.112 C 
BRANCH  16  18
ATOM     17  F   UNL     1      33.181 -22.677 -18.365  0.00  0.00    -0.204 F 
ATOM     18  C   UNL     1      35.667 -19.976 -20.257  0.00  0.00    -0.013 C 
ATOM     19  C   UNL     1      36.205 -20.942 -19.407  0.00  0.00    -0.001 C 
ATOM     20  C   UNL     1      34.289 -19.923 -20.468  0.00  0.00    -0.001 C 
ATOM     21  C   UNL     1      35.365 -21.854 -18.768  0.00  0.00    +0.029 C 
ATOM     22  C   UNL     1      33.449 -20.836 -19.830  0.00  0.00    +0.029 C 
ATOM     23  C   UNL     1      33.987 -21.801 -18.979  0.00  0.00    +0.140 C 
ENDBRANCH  16  18
ENDBRANCH  12  16
ENDBRANCH   2  10
BRANCH   3  24
ATOM     24  O   UNL     1      31.701 -10.246 -22.875  0.00  0.00    -0.451 OA
BRANCH  24  27
ATOM     25  N   UNL     1      33.402  -6.593 -21.766  0.00  0.00    -0.229 NA
ATOM     26  N   UNL     1      33.357  -7.281 -19.485  0.00  0.00    -0.343 N 
ATOM     27  C   UNL     1      32.264  -9.035 -22.507  0.00  0.00    +0.150 C 
ATOM     28  C   UNL     1      32.529  -8.766 -21.169  0.00  0.00    +0.071 C 
ATOM     29  C   UNL     1      32.568  -8.084 -23.475  0.00  0.00    +0.058 C 
ATOM     30  C   UNL     1      33.094  -7.541 -20.853  0.00  0.00    +0.128 C 
ATOM     31  C   UNL     1      33.131  -6.889 -23.056  0.00  0.00    +0.103 C 
ATOM     32  H   UNL     1      33.758  -6.424 -19.215  0.00  0.00    +0.144 HD
ATOM     33  H   UNL     1      33.140  -7.959 -18.805  0.00  0.00    +0.144 HD
ENDBRANCH  24  27
ENDBRANCH   3  24
TORSDOF 5
ENDMDL
MODEL 2
REMARK VINA RESULT:     -11.9      3.998     10.858
REMARK  Name = 17748441
REMARK  5 active torsions:
REMARK  status: ('A' for Active; 'I' for Inactive)
REMARK    1  A    between atoms: C_2  and  N_10
REMARK    2  A    between atoms: C_3  and  O_24
REMARK    3  A    between atoms: C_12  and  C_16
REMARK    4  A    between atoms: C_16  and  C_18
REMARK    5  A    between atoms: O_24  and  C_27
REMARK                            x       y       z     vdW  Elec       q    Type
REMARK                         _______ _______ _______ _____ _____    ______ ____
ROOT
ATOM      1  F   UNL     1      36.912 -22.069 -18.443  0.00  0.00    -0.201 F 
ATOM      2  C   UNL     1      34.735 -19.804 -20.274  0.00  0.00    +0.054 C 
ATOM      3  C   UNL     1      34.573 -22.180 -18.822  0.00  0.00    +0.173 C 
ATOM      4  C   UNL     1      35.885 -20.357 -19.710  0.00  0.00    +0.047 C 
ATOM      5  C   UNL     1      33.504 -20.440 -20.112  0.00  0.00    +0.018 C 
ATOM      6  C   UNL     1      35.803 -21.544 -18.984  0.00  0.00    +0.176 C 
ATOM      7  C   UNL     1      33.423 -21.628 -19.386  0.00  0.00    +0.041 C 
ENDROOT
BRANCH   2  10
ATOM      8  O   UNL     1      34.640 -17.200 -25.050  0.00  0.00    -0.274 OA
ATOM      9  O   UNL     1      34.538 -19.318 -23.231  0.00  0.00    -0.252 OA
ATOM     10  N   UNL     1      34.816 -18.599 -21.012  0.00  0.00    -0.268 N 
ATOM     11  N   UNL     1      34.852 -17.071 -22.731  0.00  0.00    -0.239 N 
ATOM     12  C   UNL     1      34.806 -16.545 -24.025  0.00  0.00    +0.234 C 
ATOM     13  C   UNL     1      34.717 -18.434 -22.397  0.00  0.00    +0.310 C 
ATOM     14  H   UNL     1      34.961 -17.779 -20.486  0.00  0.00    +0.156 HD
ATOM     15  H   UNL     1      34.993 -16.437 -21.990  0.00  0.00    +0.159 HD
BRANCH  12  16
ATOM     16  C   UNL     1      34.990 -15.039 -24.012  0.00  0.00    +0.112 C 
BRANCH  16  18
ATOM     17  F   UNL     1      31.847 -12.441 -20.123  0.00  0.00    -0.204 F 
ATOM     18  C   UNL     1      34.150 -14.344 -22.973  0.00  0.00    -0.013 C 
ATOM     19  C   UNL     1      34.506 -14.417 -21.627  0.00  0.00    -0.001 C 
ATOM     20  C   UNL     1      33.016 -13.629 -23.356  0.00  0.00    -0.001 C 
ATOM     21  C   UNL     1      33.728 -13.774 -20.664  0.00  0.00    +0.029 C 
ATOM     22  C   UNL     1      32.237 -12.987 -22.394  0.00  0.00    +0.029 C 
ATOM     23  C   UNL     1      32.594 -13.058 -21.047  0.00  0.00    +0.140 C 
ENDBRANCH  16  18
ENDBRANCH  12  16
ENDBRANCH   2  10
BRANCH   3  24
ATOM     24  O   UNL     1      34.494 -23.340 -18.114  0.00  0.00    -0.451 OA
BRANCH  24  27
ATOM     25  N   UNL     1      32.993 -23.140 -14.218  0.00  0.00    -0.229 NA
ATOM     26  N   UNL     1      35.222 -23.154 -13.375  0.00  0.00    -0.343 N 
ATOM     27  C   UNL     1      33.997 -23.274 -16.823  0.00  0.00    +0.150 C 
ATOM     28  C   UNL     1      34.868 -23.248 -15.740  0.00  0.00    +0.071 C 
ATOM     29  C   UNL     1      32.625 -23.233 -16.605  0.00  0.00    +0.058 C 
ATOM     30  C   UNL     1      34.321 -23.181 -14.469  0.00  0.00    +0.128 C 
ATOM     31  C   UNL     1      32.177 -23.167 -15.295  0.00  0.00    +0.103 C 
ATOM     32  H   UNL     1      34.877 -23.107 -12.454  0.00  0.00    +0.144 HD
ATOM     33  H   UNL     1      36.193 -23.183 -13.537  0.00  0.00    +0.144 HD
ENDBRANCH  24  27
ENDBRANCH   3  24
TORSDOF 5
ENDMDL
MODEL 3
REMARK VINA RESULT:     -11.6      5.983      9.578
REMARK  Name = 17748441
REMARK  5 active torsions:
REMARK  status: ('A' for Active; 'I' for Inactive)
REMARK    1  A    between atoms: C_2  and  N_10
REMARK    2  A    between atoms: C_3  and  O_24
REMARK    3  A    between atoms: C_12  and  C_16
REMARK    4  A    between atoms: C_16  and  C_18
REMARK    5  A    between atoms: O_24  and  C_27
REMARK                            x       y       z     vdW  Elec       q    Type
REMARK                         _______ _______ _______ _____ _____    ______ ____
ROOT
ATOM      1  F   UNL     1      37.023 -21.582 -19.844  0.00  0.00    -0.201 F 
ATOM      2  C   UNL     1      33.540 -21.698 -18.805  0.00  0.00    +0.054 C 
ATOM      3  C   UNL     1      35.193 -20.223 -20.500  0.00  0.00    +0.173 C 
ATOM      4  C   UNL     1      34.895 -22.012 -18.904  0.00  0.00    +0.047 C 
ATOM      5  C   UNL     1      33.012 -20.646 -19.553  0.00  0.00    +0.018 C 
ATOM      6  C   UNL     1      35.722 -21.274 -19.752  0.00  0.00    +0.176 C 
ATOM      7  C   UNL     1      33.838 -19.908 -20.400  0.00  0.00    +0.041 C 
ENDROOT
BRANCH   2  10
ATOM      8  O   UNL     1      32.785 -24.362 -14.122  0.00  0.00    -0.274 OA
ATOM      9  O   UNL     1      34.086 -22.874 -16.096  0.00  0.00    -0.252 OA
ATOM     10  N   UNL     1      32.701 -22.445 -17.945  0.00  0.00    -0.268 N 
ATOM     11  N   UNL     1      31.897 -23.651 -16.159  0.00  0.00    -0.239 N 
ATOM     12  C   UNL     1      31.854 -24.299 -14.921  0.00  0.00    +0.234 C 
ATOM     13  C   UNL     1      33.013 -22.970 -16.687  0.00  0.00    +0.310 C 
ATOM     14  H   UNL     1      31.788 -22.616 -18.273  0.00  0.00    +0.156 HD
ATOM     15  H   UNL     1      31.080 -23.673 -16.708  0.00  0.00    +0.159 HD
BRANCH  12  16
ATOM     16  C   UNL     1      30.495 -24.926 -14.676  0.00  0.00    +0.112 C 
BRANCH  16  18
ATOM     17  F   UNL     1      26.212 -21.754 -16.504  0.00  0.00    -0.204 F 
ATOM     18  C   UNL     1      29.350 -24.079 -15.164  0.00  0.00    -0.013 C 
ATOM     19  C   UNL     1      28.669 -24.432 -16.328  0.00  0.00    -0.001 C 
ATOM     20  C   UNL     1      28.971 -22.940 -14.453  0.00  0.00    -0.001 C 
ATOM     21  C   UNL     1      27.608 -23.647 -16.781  0.00  0.00    +0.029 C 
ATOM     22  C   UNL     1      27.912 -22.155 -14.906  0.00  0.00    +0.029 C 
ATOM     23  C   UNL     1      27.230 -22.508 -16.070  0.00  0.00    +0.140 C 
ENDBRANCH  16  18
ENDBRANCH  12  16
ENDBRANCH   2  10
BRANCH   3  24
ATOM     24  O   UNL     1      36.000 -19.501 -21.326  0.00  0.00    -0.451 OA
BRANCH  24  27
ATOM     25  N   UNL     1      34.201 -17.438 -24.484  0.00  0.00    -0.229 NA
ATOM     26  N   UNL     1      34.883 -15.375 -23.505  0.00  0.00    -0.343 N 
ATOM     27  C   UNL     1      35.403 -18.818 -22.372  0.00  0.00    +0.150 C 
ATOM     28  C   UNL     1      35.444 -17.428 -22.411  0.00  0.00    +0.071 C 
ATOM     29  C   UNL     1      34.763 -19.517 -23.388  0.00  0.00    +0.058 C 
ATOM     30  C   UNL     1      34.833 -16.792 -23.480  0.00  0.00    +0.128 C 
ATOM     31  C   UNL     1      34.182 -18.788 -24.412  0.00  0.00    +0.103 C 
ATOM     32  H   UNL     1      34.462 -14.882 -24.245  0.00  0.00    +0.144 HD
ATOM     33  H   UNL     1      35.338 -14.886 -22.783  0.00  0.00    +0.144 HD
ENDBRANCH  24  27
ENDBRANCH   3  24
TORSDOF 5
ENDMDL
MODEL 4
REMARK VINA RESULT:     -11.6      5.276     12.818
REMARK  Name = 17748441
REMARK  5 active torsions:
REMARK  status: ('A' for Active; 'I' for Inactive)
REMARK    1  A    between atoms: C_2  and  N_10
REMARK    2  A    between atoms: C_3  and  O_24
REMARK    3  A    between atoms: C_12  and  C_16
REMARK    4  A    between atoms: C_16  and  C_18
REMARK    5  A    between atoms: O_24  and  C_27
REMARK                            x       y       z     vdW  Elec       q    Type
REMARK                         _______ _______ _______ _____ _____    ______ ____
ROOT
ATOM      1  F   UNL     1      34.148 -23.901 -16.181  0.00  0.00    -0.201 F 
ATOM      2  C   UNL     1      36.268 -21.428 -17.799  0.00  0.00    +0.054 C 
ATOM      3  C   UNL     1      36.197 -22.947 -15.461  0.00  0.00    +0.173 C 
ATOM      4  C   UNL     1      35.206 -22.302 -17.567  0.00  0.00    +0.047 C 
ATOM      5  C   UNL     1      37.294 -21.314 -16.861  0.00  0.00    +0.018 C 
ATOM      6  C   UNL     1      35.171 -23.062 -16.398  0.00  0.00    +0.176 C 
ATOM      7  C   UNL     1      37.258 -22.073 -15.692  0.00  0.00    +0.041 C 
ENDROOT
BRANCH   2  10
ATOM      8  O   UNL     1      33.778 -19.515 -22.241  0.00  0.00    -0.274 OA
ATOM      9  O   UNL     1      34.135 -20.910 -19.848  0.00  0.00    -0.252 OA
ATOM     10  N   UNL     1      36.304 -20.656 -18.984  0.00  0.00    -0.268 N 
ATOM     11  N   UNL     1      35.718 -19.617 -20.950  0.00  0.00    -0.239 N 
ATOM     12  C   UNL     1      34.950 -19.206 -22.043  0.00  0.00    +0.234 C 
ATOM     13  C   UNL     1      35.272 -20.451 -19.905  0.00  0.00    +0.310 C 
ATOM     14  H   UNL     1      37.160 -20.211 -19.184  0.00  0.00    +0.156 HD
ATOM     15  H   UNL     1      36.649 -19.298 -20.908  0.00  0.00    +0.159 HD
BRANCH  12  16
ATOM     16  C   UNL     1      35.750 -18.314 -22.974  0.00  0.00    +0.112 C 
BRANCH  16  18
ATOM     17  F   UNL     1      33.241 -13.384 -24.045  0.00  0.00    -0.204 F 
ATOM     18  C   UNL     1      35.080 -16.997 -23.260  0.00  0.00    -0.013 C 
ATOM     19  C   UNL     1      35.078 -15.991 -22.295  0.00  0.00    -0.001 C 
ATOM     20  C   UNL     1      34.460 -16.782 -24.492  0.00  0.00    -0.001 C 
ATOM     21  C   UNL     1      34.457 -14.770 -22.559  0.00  0.00    +0.029 C 
ATOM     22  C   UNL     1      33.838 -15.562 -24.756  0.00  0.00    +0.029 C 
ATOM     23  C   UNL     1      33.837 -14.556 -23.791  0.00  0.00    +0.140 C 
ENDBRANCH  16  18
ENDBRANCH  12  16
ENDBRANCH   2  10
BRANCH   3  24
ATOM     24  O   UNL     1      36.162 -23.688 -14.319  0.00  0.00    -0.451 OA
BRANCH  24  27
ATOM     25  N   UNL     1      38.325 -27.263 -14.253  0.00  0.00    -0.229 NA
ATOM     26  N   UNL     1      40.261 -26.062 -13.555  0.00  0.00    -0.343 N 
ATOM     27  C   UNL     1      36.879 -24.872 -14.297  0.00  0.00    +0.150 C 
ATOM     28  C   UNL     1      38.221 -24.869 -13.934  0.00  0.00    +0.071 C 
ATOM     29  C   UNL     1      36.260 -26.069 -14.638  0.00  0.00    +0.058 C 
ATOM     30  C   UNL     1      38.894 -26.081 -13.928  0.00  0.00    +0.128 C 
ATOM     31  C   UNL     1      37.020 -27.227 -14.600  0.00  0.00    +0.103 C 
ATOM     32  H   UNL     1      40.778 -26.899 -13.536  0.00  0.00    +0.144 HD
ATOM     33  H   UNL     1      40.693 -25.210 -13.314  0.00  0.00    +0.144 HD
ENDBRANCH  24  27
ENDBRANCH   3  24
TORSDOF 5
ENDMDL
MODEL 5
REMARK VINA RESULT:     -11.5      1.937      2.685
REMARK  Name = 17748441
REMARK  5 active torsions:
REMARK  status: ('A' for Active; 'I' for Inactive)
REMARK    1  A    between atoms: C_2  and  N_10
REMARK    2  A    between atoms: C_3  and  O_24
REMARK    3  A    between atoms: C_12  and  C_16
REMARK    4  A    between atoms: C_16  and  C_18
REMARK    5  A    between atoms: O_24  and  C_27
REMARK                            x       y       z     vdW  Elec       q    Type
REMARK                         _______ _______ _______ _____ _____    ______ ____
ROOT
ATOM      1  F   UNL     1      33.079  -8.834 -24.433  0.00  0.00    -0.201 F 
ATOM      2  C   UNL     1      32.707 -12.087 -22.851  0.00  0.00    +0.054 C 
ATOM      3  C   UNL     1      31.440  -9.602 -22.899  0.00  0.00    +0.173 C 
ATOM      4  C   UNL     1      33.218 -11.059 -23.643  0.00  0.00    +0.047 C 
ATOM      5  C   UNL     1      31.563 -11.872 -22.082  0.00  0.00    +0.018 C 
ATOM      6  C   UNL     1      32.584  -9.817 -23.668  0.00  0.00    +0.176 C 
ATOM      7  C   UNL     1      30.930 -10.629 -22.106  0.00  0.00    +0.041 C 
ENDROOT
BRANCH   2  10
ATOM      8  O   UNL     1      35.100 -16.088 -20.046  0.00  0.00    -0.274 OA
ATOM      9  O   UNL     1      33.804 -13.664 -20.542  0.00  0.00    -0.252 OA
ATOM     10  N   UNL     1      33.349 -13.347 -22.825  0.00  0.00    -0.268 N 
ATOM     11  N   UNL     1      34.411 -15.260 -22.115  0.00  0.00    -0.239 N 
ATOM     12  C   UNL     1      34.999 -16.201 -21.265  0.00  0.00    +0.234 C 
ATOM     13  C   UNL     1      33.842 -14.036 -21.712  0.00  0.00    +0.310 C 
ATOM     14  H   UNL     1      33.463 -13.792 -23.696  0.00  0.00    +0.156 HD
ATOM     15  H   UNL     1      34.394 -15.471 -23.078  0.00  0.00    +0.159 HD
BRANCH  12  16
ATOM     16  C   UNL     1      35.509 -17.401 -22.041  0.00  0.00    +0.112 C 
BRANCH  16  18
ATOM     17  F   UNL     1      35.881 -22.077 -18.920  0.00  0.00    -0.204 F 
ATOM     18  C   UNL     1      35.609 -18.651 -21.207  0.00  0.00    -0.013 C 
ATOM     19  C   UNL     1      34.476 -19.433 -20.987  0.00  0.00    -0.001 C 
ATOM     20  C   UNL     1      36.834 -19.026 -20.654  0.00  0.00    -0.001 C 
ATOM     21  C   UNL     1      34.568 -20.591 -20.214  0.00  0.00    +0.029 C 
ATOM     22  C   UNL     1      36.925 -20.183 -19.881  0.00  0.00    +0.029 C 
ATOM     23  C   UNL     1      35.793 -20.966 -19.661  0.00  0.00    +0.140 C 
ENDBRANCH  16  18
ENDBRANCH  12  16
ENDBRANCH   2  10
BRANCH   3  24
ATOM     24  O   UNL     1      30.823  -8.389 -22.922  0.00  0.00    -0.451 OA
BRANCH  24  27
ATOM     25  N   UNL     1      32.470  -5.329 -20.599  0.00  0.00    -0.229 NA
ATOM     26  N   UNL     1      33.552  -6.962 -19.242  0.00  0.00    -0.343 N 
ATOM     27  C   UNL     1      31.368  -7.375 -22.151  0.00  0.00    +0.150 C 
ATOM     28  C   UNL     1      32.193  -7.683 -21.075  0.00  0.00    +0.071 C 
ATOM     29  C   UNL     1      31.094  -6.046 -22.452  0.00  0.00    +0.058 C 
ATOM     30  C   UNL     1      32.714  -6.632 -20.336  0.00  0.00    +0.128 C 
ATOM     31  C   UNL     1      31.664  -5.069 -21.653  0.00  0.00    +0.103 C 
ATOM     32  H   UNL     1      33.944  -6.248 -18.690  0.00  0.00    +0.144 HD
ATOM     33  H   UNL     1      33.742  -7.906 -19.035  0.00  0.00    +0.144 HD
ENDBRANCH  24  27
ENDBRANCH   3  24
TORSDOF 5
ENDMDL
MODEL 6
REMARK VINA RESULT:     -11.4      2.961     11.136
REMARK  Name = 17748441
REMARK  5 active torsions:
REMARK  status: ('A' for Active; 'I' for Inactive)
REMARK    1  A    between atoms: C_2  and  N_10
REMARK    2  A    between atoms: C_3  and  O_24
REMARK    3  A    between atoms: C_12  and  C_16
REMARK    4  A    between atoms: C_16  and  C_18
REMARK    5  A    between atoms: O_24  and  C_27
REMARK                            x       y       z     vdW  Elec       q    Type
REMARK                         _______ _______ _______ _____ _____    ______ ____
ROOT
ATOM      1  F   UNL     1      35.060 -16.843 -24.561  0.00  0.00    -0.201 F 
ATOM      2  C   UNL     1      33.849 -14.419 -22.135  0.00  0.00    +0.054 C 
ATOM      3  C   UNL     1      35.324 -16.786 -22.203  0.00  0.00    +0.173 C 
ATOM      4  C   UNL     1      34.092 -15.055 -23.352  0.00  0.00    +0.047 C 
ATOM      5  C   UNL     1      34.344 -14.968 -20.952  0.00  0.00    +0.018 C 
ATOM      6  C   UNL     1      34.830 -16.238 -23.387  0.00  0.00    +0.176 C 
ATOM      7  C   UNL     1      35.081 -16.152 -20.986  0.00  0.00    +0.041 C 
ENDROOT
BRANCH   2  10
ATOM      8  O   UNL     1      33.111  -9.288 -23.785  0.00  0.00    -0.274 OA
ATOM      9  O   UNL     1      34.282 -11.815 -23.566  0.00  0.00    -0.252 OA
ATOM     10  N   UNL     1      33.101 -13.219 -22.099  0.00  0.00    -0.268 N 
ATOM     11  N   UNL     1      32.368 -11.072 -22.479  0.00  0.00    -0.239 N 
ATOM     12  C   UNL     1      32.310  -9.773 -22.990  0.00  0.00    +0.234 C 
ATOM     13  C   UNL     1      33.353 -12.031 -22.792  0.00  0.00    +0.310 C 
ATOM     14  H   UNL     1      32.308 -13.222 -21.515  0.00  0.00    +0.156 HD
ATOM     15  H   UNL     1      31.662 -11.341 -21.846  0.00  0.00    +0.159 HD
BRANCH  12  16
ATOM     16  C   UNL     1      31.117  -9.017 -22.437  0.00  0.00    +0.112 C 
BRANCH  16  18
ATOM     17  F   UNL     1      32.063  -3.497 -21.818  0.00  0.00    -0.204 F 
ATOM     18  C   UNL     1      31.370  -7.542 -22.271  0.00  0.00    -0.013 C 
ATOM     19  C   UNL     1      32.081  -7.076 -21.166  0.00  0.00    -0.001 C 
ATOM     20  C   UNL     1      30.893  -6.640 -23.223  0.00  0.00    -0.001 C 
ATOM     21  C   UNL     1      32.316  -5.709 -21.013  0.00  0.00    +0.029 C 
ATOM     22  C   UNL     1      31.126  -5.274 -23.070  0.00  0.00    +0.029 C 
ATOM     23  C   UNL     1      31.838  -4.808 -21.965  0.00  0.00    +0.140 C 
ENDBRANCH  16  18
ENDBRANCH  12  16
ENDBRANCH   2  10
BRANCH   3  24
ATOM     24  O   UNL     1      36.042 -17.942 -22.236  0.00  0.00    -0.451 OA
BRANCH  24  27
ATOM     25  N   UNL     1      35.102 -20.895 -19.431  0.00  0.00    -0.229 NA
ATOM     26  N   UNL     1      32.822 -20.801 -20.118  0.00  0.00    -0.343 N 
ATOM     27  C   UNL     1      35.730 -18.920 -21.307  0.00  0.00    +0.150 C 
ATOM     28  C   UNL     1      34.421 -19.371 -21.180  0.00  0.00    +0.071 C 
ATOM     29  C   UNL     1      36.725 -19.456 -20.497  0.00  0.00    +0.058 C 
ATOM     30  C   UNL     1      34.162 -20.352 -20.236  0.00  0.00    +0.128 C 
ATOM     31  C   UNL     1      36.363 -20.432 -19.583  0.00  0.00    +0.103 C 
ATOM     32  H   UNL     1      32.592 -21.496 -19.461  0.00  0.00    +0.144 HD
ATOM     33  H   UNL     1      32.123 -20.417 -20.695  0.00  0.00    +0.144 HD
ENDBRANCH  24  27
ENDBRANCH   3  24
TORSDOF 5
ENDMDL
MODEL 7
REMARK VINA RESULT:     -11.4      2.854     10.953
REMARK  Name = 17748441
REMARK  5 active torsions:
REMARK  status: ('A' for Active; 'I' for Inactive)
REMARK    1  A    between atoms: C_2  and  N_10
REMARK    2  A    between atoms: C_3  and  O_24
REMARK    3  A    between atoms: C_12  and  C_16
REMARK    4  A    between atoms: C_16  and  C_18
REMARK    5  A    between atoms: O_24  and  C_27
REMARK                            x       y       z     vdW  Elec       q    Type
REMARK                         _______ _______ _______ _____ _____    ______ ____
ROOT
ATOM      1  F   UNL     1      34.968 -18.597 -24.233  0.00  0.00    -0.201 F 
ATOM      2  C   UNL     1      34.584 -15.350 -22.640  0.00  0.00    +0.054 C 
ATOM      3  C   UNL     1      35.349 -17.950 -21.982  0.00  0.00    +0.173 C 
ATOM      4  C   UNL     1      34.585 -16.345 -23.618  0.00  0.00    +0.047 C 
ATOM      5  C   UNL     1      34.965 -15.656 -21.334  0.00  0.00    +0.018 C 
ATOM      6  C   UNL     1      34.968 -17.645 -23.288  0.00  0.00    +0.176 C 
ATOM      7  C   UNL     1      35.347 -16.956 -21.005  0.00  0.00    +0.041 C 
ENDROOT
BRANCH   2  10
ATOM      8  O   UNL     1      31.269 -11.099 -21.910  0.00  0.00    -0.274 OA
ATOM      9  O   UNL     1      32.359 -13.647 -21.561  0.00  0.00    -0.252 OA
ATOM     10  N   UNL     1      34.196 -14.031 -22.973  0.00  0.00    -0.268 N 
ATOM     11  N   UNL     1      33.094 -12.013 -23.038  0.00  0.00    -0.239 N 
ATOM     12  C   UNL     1      32.167 -11.010 -22.742  0.00  0.00    +0.234 C 
ATOM     13  C   UNL     1      33.144 -13.285 -22.433  0.00  0.00    +0.310 C 
ATOM     14  H   UNL     1      34.731 -13.586 -23.670  0.00  0.00    +0.156 HD
ATOM     15  H   UNL     1      33.768 -11.815 -23.729  0.00  0.00    +0.159 HD
BRANCH  12  16
ATOM     16  C   UNL     1      32.408  -9.772 -23.586  0.00  0.00    +0.112 C 
BRANCH  16  18
ATOM     17  F   UNL     1      31.814  -4.961 -20.713  0.00  0.00    -0.204 F 
ATOM     18  C   UNL     1      32.249  -8.486 -22.817  0.00  0.00    -0.013 C 
ATOM     19  C   UNL     1      31.105  -7.708 -22.991  0.00  0.00    -0.001 C 
ATOM     20  C   UNL     1      33.246  -8.074 -21.933  0.00  0.00    -0.001 C 
ATOM     21  C   UNL     1      30.958  -6.517 -22.280  0.00  0.00    +0.029 C 
ATOM     22  C   UNL     1      33.099  -6.882 -21.223  0.00  0.00    +0.029 C 
ATOM     23  C   UNL     1      31.955  -6.104 -21.396  0.00  0.00    +0.140 C 
ENDBRANCH  16  18
ENDBRANCH  12  16
ENDBRANCH   2  10
BRANCH   3  24
ATOM     24  O   UNL     1      35.720 -19.220 -21.660  0.00  0.00    -0.451 OA
BRANCH  24  27
ATOM     25  N   UNL     1      33.246 -21.366 -19.063  0.00  0.00    -0.229 NA
ATOM     26  N   UNL     1      35.176 -22.295 -18.017  0.00  0.00    -0.343 N 
ATOM     27  C   UNL     1      34.901 -19.932 -20.800  0.00  0.00    +0.150 C 
ATOM     28  C   UNL     1      35.457 -20.763 -19.833  0.00  0.00    +0.071 C 
ATOM     29  C   UNL     1      33.519 -19.818 -20.898  0.00  0.00    +0.058 C 
ATOM     30  C   UNL     1      34.594 -21.452 -18.997  0.00  0.00    +0.128 C 
ATOM     31  C   UNL     1      32.742 -20.549 -20.014  0.00  0.00    +0.103 C 
ATOM     32  H   UNL     1      34.601 -22.804 -17.401  0.00  0.00    +0.144 HD
ATOM     33  H   UNL     1      36.155 -22.371 -17.953  0.00  0.00    +0.144 HD
ENDBRANCH  24  27
ENDBRANCH   3  24
TORSDOF 5
ENDMDL
MODEL 8
REMARK VINA RESULT:     -11.2      4.878      8.331
REMARK  Name = 17748441
REMARK  5 active torsions:
REMARK  status: ('A' for Active; 'I' for Inactive)
REMARK    1  A    between atoms: C_2  and  N_10
REMARK    2  A    between atoms: C_3  and  O_24
REMARK    3  A    between atoms: C_12  and  C_16
REMARK    4  A    between atoms: C_16  and  C_18
REMARK    5  A    between atoms: O_24  and  C_27
REMARK                            x       y       z     vdW  Elec       q    Type
REMARK                         _______ _______ _______ _____ _____    ______ ____
ROOT
ATOM      1  F   UNL     1      33.453 -19.808 -21.905  0.00  0.00    -0.201 F 
ATOM      2  C   UNL     1      36.208 -20.141 -19.554  0.00  0.00    +0.054 C 
ATOM      3  C   UNL     1      35.688 -19.026 -22.057  0.00  0.00    +0.173 C 
ATOM      4  C   UNL     1      34.937 -20.254 -20.118  0.00  0.00    +0.047 C 
ATOM      5  C   UNL     1      37.219 -19.470 -20.242  0.00  0.00    +0.018 C 
ATOM      6  C   UNL     1      34.677 -19.696 -21.369  0.00  0.00    +0.176 C 
ATOM      7  C   UNL     1      36.959 -18.913 -21.494  0.00  0.00    +0.041 C 
ENDROOT
BRANCH   2  10
ATOM      8  O   UNL     1      35.377 -24.082 -15.898  0.00  0.00    -0.274 OA
ATOM      9  O   UNL     1      35.143 -22.643 -18.280  0.00  0.00    -0.252 OA
ATOM     10  N   UNL     1      36.473 -20.707 -18.284  0.00  0.00    -0.268 N 
ATOM     11  N   UNL     1      36.463 -22.094 -16.450  0.00  0.00    -0.239 N 
ATOM     12  C   UNL     1      36.150 -23.171 -15.616  0.00  0.00    +0.234 C 
ATOM     13  C   UNL     1      35.943 -21.882 -17.742  0.00  0.00    +0.310 C 
ATOM     14  H   UNL     1      37.106 -20.212 -17.714  0.00  0.00    +0.156 HD
ATOM     15  H   UNL     1      37.100 -21.426 -16.105  0.00  0.00    +0.159 HD
BRANCH  12  16
ATOM     16  C   UNL     1      36.891 -23.079 -14.296  0.00  0.00    +0.112 C 
BRANCH  16  18
ATOM     17  F   UNL     1      41.076 -26.822 -13.825  0.00  0.00    -0.204 F 
ATOM     18  C   UNL     1      38.010 -24.079 -14.170  0.00  0.00    -0.013 C 
ATOM     19  C   UNL     1      39.080 -24.044 -15.062  0.00  0.00    -0.001 C 
ATOM     20  C   UNL     1      37.975 -25.041 -13.160  0.00  0.00    -0.001 C 
ATOM     21  C   UNL     1      40.117 -24.970 -14.946  0.00  0.00    +0.029 C 
ATOM     22  C   UNL     1      39.011 -25.968 -13.044  0.00  0.00    +0.029 C 
ATOM     23  C   UNL     1      40.082 -25.933 -13.937  0.00  0.00    +0.140 C 
ENDBRANCH  16  18
ENDBRANCH  12  16
ENDBRANCH   2  10
BRANCH   3  24
ATOM     24  O   UNL     1      35.435 -18.483 -23.280  0.00  0.00    -0.451 OA
BRANCH  24  27
ATOM     25  N   UNL     1      34.046 -14.543 -23.404  0.00  0.00    -0.229 NA
ATOM     26  N   UNL     1      33.129 -14.950 -25.565  0.00  0.00    -0.343 N 
ATOM     27  C   UNL     1      34.975 -17.177 -23.322  0.00  0.00    +0.150 C 
ATOM     28  C   UNL     1      34.278 -16.718 -24.433  0.00  0.00    +0.071 C 
ATOM     29  C   UNL     1      35.209 -16.321 -22.252  0.00  0.00    +0.058 C 
ATOM     30  C   UNL     1      33.838 -15.403 -24.425  0.00  0.00    +0.128 C 
ATOM     31  C   UNL     1      34.728 -15.024 -22.341  0.00  0.00    +0.103 C 
ATOM     32  H   UNL     1      32.798 -14.024 -25.603  0.00  0.00    +0.144 HD
ATOM     33  H   UNL     1      32.967 -15.562 -26.319  0.00  0.00    +0.144 HD
ENDBRANCH  24  27
ENDBRANCH   3  24
TORSDOF 5
ENDMDL
MODEL 9
REMARK VINA RESULT:     -11.2      5.002      8.247
REMARK  Name = 17748441
REMARK  5 active torsions:
REMARK  status: ('A' for Active; 'I' for Inactive)
REMARK    1  A    between atoms: C_2  and  N_10
REMARK    2  A    between atoms: C_3  and  O_24
REMARK    3  A    between atoms: C_12  and  C_16
REMARK    4  A    between atoms: C_16  and  C_18
REMARK    5  A    between atoms: O_24  and  C_27
REMARK                            x       y       z     vdW  Elec       q    Type
REMARK                         _______ _______ _______ _____ _____    ______ ____
ROOT
ATOM      1  F   UNL     1      37.989 -18.489 -21.958  0.00  0.00    -0.201 F 
ATOM      2  C   UNL     1      35.828 -20.294 -19.656  0.00  0.00    +0.054 C 
ATOM      3  C   UNL     1      35.677 -18.994 -22.120  0.00  0.00    +0.173 C 
ATOM      4  C   UNL     1      36.966 -19.703 -20.204  0.00  0.00    +0.047 C 
ATOM      5  C   UNL     1      34.614 -20.234 -20.341  0.00  0.00    +0.018 C 
ATOM      6  C   UNL     1      36.891 -19.053 -21.436  0.00  0.00    +0.176 C 
ATOM      7  C   UNL     1      34.538 -19.584 -21.572  0.00  0.00    +0.041 C 
ENDROOT
BRANCH   2  10
ATOM      8  O   UNL     1      34.307 -24.371 -16.392  0.00  0.00    -0.274 OA
ATOM      9  O   UNL     1      34.452 -22.779 -18.682  0.00  0.00    -0.252 OA
ATOM     10  N   UNL     1      35.903 -20.953 -18.407  0.00  0.00    -0.268 N 
ATOM     11  N   UNL     1      35.585 -22.441 -16.683  0.00  0.00    -0.239 N 
ATOM     12  C   UNL     1      35.103 -23.539 -15.964  0.00  0.00    +0.234 C 
ATOM     13  C   UNL     1      35.235 -22.114 -18.008  0.00  0.00    +0.310 C 
ATOM     14  H   UNL     1      36.498 -20.542 -17.737  0.00  0.00    +0.156 HD
ATOM     15  H   UNL     1      36.221 -21.846 -16.224  0.00  0.00    +0.159 HD
BRANCH  12  16
ATOM     16  C   UNL     1      35.690 -23.582 -14.566  0.00  0.00    +0.112 C 
BRANCH  16  18
ATOM     17  F   UNL     1      40.350 -26.729 -14.198  0.00  0.00    -0.204 F 
ATOM     18  C   UNL     1      36.935 -24.423 -14.468  0.00  0.00    -0.013 C 
ATOM     19  C   UNL     1      36.836 -25.785 -14.186  0.00  0.00    -0.001 C 
ATOM     20  C   UNL     1      38.188 -23.840 -14.659  0.00  0.00    -0.001 C 
ATOM     21  C   UNL     1      37.990 -26.564 -14.095  0.00  0.00    +0.029 C 
ATOM     22  C   UNL     1      39.342 -24.619 -14.567  0.00  0.00    +0.029 C 
ATOM     23  C   UNL     1      39.243 -25.981 -14.286  0.00  0.00    +0.140 C 
ENDBRANCH  16  18
ENDBRANCH  12  16
ENDBRANCH   2  10
BRANCH   3  24
ATOM     24  O   UNL     1      35.603 -18.358 -23.321  0.00  0.00    -0.451 OA
BRANCH  24  27
ATOM     25  N   UNL     1      33.952 -14.518 -23.386  0.00  0.00    -0.229 NA
ATOM     26  N   UNL     1      33.059 -14.955 -25.551  0.00  0.00    -0.343 N 
ATOM     27  C   UNL     1      35.056 -17.086 -23.343  0.00  0.00    +0.150 C 
ATOM     28  C   UNL     1      34.326 -16.658 -24.447  0.00  0.00    +0.071 C 
ATOM     29  C   UNL     1      35.234 -16.231 -22.261  0.00  0.00    +0.058 C 
ATOM     30  C   UNL     1      33.800 -15.376 -24.419  0.00  0.00    +0.128 C 
ATOM     31  C   UNL     1      34.667 -14.969 -22.331  0.00  0.00    +0.103 C 
ATOM     32  H   UNL     1      32.666 -14.053 -25.575  0.00  0.00    +0.144 HD
ATOM     33  H   UNL     1      32.936 -15.565 -26.314  0.00  0.00    +0.144 HD
ENDBRANCH  24  27
ENDBRANCH   3  24
TORSDOF 5
ENDMDL
