MODEL 1
REMARK VINA RESULT:     -11.5      0.000      0.000
REMARK  Name = 151194
REMARK  3 active torsions:
REMARK  status: ('A' for Active; 'I' for Inactive)
REMARK    1  A    between atoms: N_1  and  C_14
REMARK    2  A    between atoms: C_6  and  C_20
REMARK    3  A    between atoms: C_20  and  C_22
REMARK                            x       y       z     vdW  Elec       q    Type
REMARK                         _______ _______ _______ _____ _____    ______ ____
ROOT
ATOM      1  N   UNL     1      35.311 -22.298 -17.932  0.00  0.00    -0.297 N 
ATOM      2  N   UNL     1      32.092 -23.073 -16.487  0.00  0.00    -0.151 NA
ATOM      3  N   UNL     1      33.054 -22.677 -17.362  0.00  0.00    -0.133 NA
ATOM      4  C   UNL     1      33.771 -23.566 -14.827  0.00  0.00    +0.018 A 
ATOM      5  C   UNL     1      34.764 -23.157 -15.730  0.00  0.00    +0.035 A 
ATOM      6  C   UNL     1      32.451 -23.504 -15.258  0.00  0.00    +0.085 A 
ATOM      7  C   UNL     1      34.350 -22.722 -16.983  0.00  0.00    +0.154 A 
ATOM      8  C   UNL     1      34.137 -24.014 -13.546  0.00  0.00    +0.001 C 
ATOM      9  C   UNL     1      36.115 -23.200 -15.342  0.00  0.00    +0.003 C 
ATOM     10  C   UNL     1      35.481 -24.053 -13.172  0.00  0.00    +0.000 C 
ATOM     11  C   UNL     1      36.468 -23.647 -14.069  0.00  0.00    +0.000 C 
ATOM     12  H   UNL     1      36.181 -22.749 -17.843  0.00  0.00    +0.154 HD
ENDROOT
BRANCH   1  14
ATOM     13 CL   UNL     1      35.110 -18.340 -22.331  0.00  0.00    -0.082 Cl
ATOM     14  C   UNL     1      35.264 -21.360 -18.976  0.00  0.00    +0.049 C 
ATOM     15  C   UNL     1      34.043 -21.030 -19.569  0.00  0.00    +0.016 C 
ATOM     16  C   UNL     1      36.438 -20.751 -19.427  0.00  0.00    +0.016 C 
ATOM     17  C   UNL     1      33.995 -20.097 -20.605  0.00  0.00    +0.013 C 
ATOM     18  C   UNL     1      36.391 -19.817 -20.464  0.00  0.00    +0.013 C 
ATOM     19  C   UNL     1      35.169 -19.491 -21.053  0.00  0.00    +0.058 C 
ENDBRANCH   1  14
BRANCH   6  20
ATOM     20  C   UNL     1      31.314 -23.915 -14.380  0.00  0.00    +0.074 C 
BRANCH  20  22
ATOM     21  N   UNL     1      27.452 -23.235 -16.109  0.00  0.00    -0.242 NA
ATOM     22  C   UNL     1      29.950 -23.675 -14.990  0.00  0.00    -0.013 C 
ATOM     23  C   UNL     1      29.284 -22.501 -14.711  0.00  0.00    +0.017 C 
ATOM     24  C   UNL     1      29.401 -24.636 -15.814  0.00  0.00    +0.017 C 
ATOM     25  C   UNL     1      28.039 -22.329 -15.295  0.00  0.00    +0.099 C 
ATOM     26  C   UNL     1      28.151 -24.368 -16.348  0.00  0.00    +0.099 C 
ENDBRANCH  20  22
ENDBRANCH   6  20
TORSDOF 3
ENDMDL
MODEL 2
REMARK VINA RESULT:     -11.0     11.418     14.569
REMARK  Name = 151194
REMARK  3 active torsions:
REMARK  status: ('A' for Active; 'I' for Inactive)
REMARK    1  A    between atoms: N_1  and  C_14
REMARK    2  A    between atoms: C_6  and  C_20
REMARK    3  A    between atoms: C_20  and  C_22
REMARK                            x       y       z     vdW  Elec       q    Type
REMARK                         _______ _______ _______ _____ _____    ______ ____
ROOT
ATOM      1  N   UNL     1      33.552  -7.315 -22.283  0.00  0.00    -0.297 N 
ATOM      2  N   UNL     1      32.856 -10.747 -23.173  0.00  0.00    -0.151 NA
ATOM      3  N   UNL     1      33.299  -9.463 -23.225  0.00  0.00    -0.133 NA
ATOM      4  C   UNL     1      31.937 -10.366 -20.975  0.00  0.00    +0.018 A 
ATOM      5  C   UNL     1      32.395  -9.040 -21.029  0.00  0.00    +0.035 A 
ATOM      6  C   UNL     1      32.196 -11.176 -22.075  0.00  0.00    +0.085 A 
ATOM      7  C   UNL     1      33.069  -8.643 -22.177  0.00  0.00    +0.154 A 
ATOM      8  C   UNL     1      31.249 -10.819 -19.837  0.00  0.00    +0.001 C 
ATOM      9  C   UNL     1      32.160  -8.181 -19.942  0.00  0.00    +0.003 C 
ATOM     10  C   UNL     1      31.021  -9.957 -18.764  0.00  0.00    +0.000 C 
ATOM     11  C   UNL     1      31.476  -8.640 -18.816  0.00  0.00    +0.000 C 
ATOM     12  H   UNL     1      33.794  -6.912 -21.418  0.00  0.00    +0.154 HD
ENDROOT
BRANCH   1  14
ATOM     13 CL   UNL     1      34.398  -3.728 -26.917  0.00  0.00    -0.082 Cl
ATOM     14  C   UNL     1      33.753  -6.464 -23.382  0.00  0.00    +0.049 C 
ATOM     15  C   UNL     1      34.986  -6.442 -24.038  0.00  0.00    +0.016 C 
ATOM     16  C   UNL     1      32.720  -5.633 -23.825  0.00  0.00    +0.016 C 
ATOM     17  C   UNL     1      35.186  -5.597 -25.130  0.00  0.00    +0.013 C 
ATOM     18  C   UNL     1      32.919  -4.788 -24.917  0.00  0.00    +0.013 C 
ATOM     19  C   UNL     1      34.152  -4.770 -25.569  0.00  0.00    +0.058 C 
ENDBRANCH   1  14
BRANCH   6  20
ATOM     20  C   UNL     1      31.755 -12.602 -22.125  0.00  0.00    +0.074 C 
BRANCH  20  22
ATOM     21  N   UNL     1      34.874 -15.415 -21.271  0.00  0.00    -0.242 NA
ATOM     22  C   UNL     1      32.857 -13.595 -21.823  0.00  0.00    -0.013 C 
ATOM     23  C   UNL     1      33.147 -13.903 -20.511  0.00  0.00    +0.017 C 
ATOM     24  C   UNL     1      33.549 -14.173 -22.867  0.00  0.00    +0.017 C 
ATOM     25  C   UNL     1      34.163 -14.818 -20.288  0.00  0.00    +0.099 C 
ATOM     26  C   UNL     1      34.548 -15.075 -22.539  0.00  0.00    +0.099 C 
ENDBRANCH  20  22
ENDBRANCH   6  20
TORSDOF 3
ENDMDL
MODEL 3
REMARK VINA RESULT:     -10.7     11.545     15.047
REMARK  Name = 151194
REMARK  3 active torsions:
REMARK  status: ('A' for Active; 'I' for Inactive)
REMARK    1  A    between atoms: N_1  and  C_14
REMARK    2  A    between atoms: C_6  and  C_20
REMARK    3  A    between atoms: C_20  and  C_22
REMARK                            x       y       z     vdW  Elec       q    Type
REMARK                         _______ _______ _______ _____ _____    ______ ____
ROOT
ATOM      1  N   UNL     1      32.239 -12.195 -22.108  0.00  0.00    -0.297 N 
ATOM      2  N   UNL     1      33.502  -8.964 -23.116  0.00  0.00    -0.151 NA
ATOM      3  N   UNL     1      33.198 -10.289 -23.112  0.00  0.00    -0.133 NA
ATOM      4  C   UNL     1      32.442  -8.691 -20.966  0.00  0.00    +0.018 A 
ATOM      5  C   UNL     1      32.128 -10.059 -20.962  0.00  0.00    +0.035 A 
ATOM      6  C   UNL     1      33.130  -8.197 -22.068  0.00  0.00    +0.085 A 
ATOM      7  C   UNL     1      32.530 -10.810 -22.060  0.00  0.00    +0.154 A 
ATOM      8  C   UNL     1      32.059  -7.887 -19.879  0.00  0.00    +0.001 C 
ATOM      9  C   UNL     1      31.434 -10.609 -19.871  0.00  0.00    +0.003 C 
ATOM     10  C   UNL     1      31.370  -8.443 -18.801  0.00  0.00    +0.000 C 
ATOM     11  C   UNL     1      31.057  -9.802 -18.797  0.00  0.00    +0.000 C 
ATOM     12  H   UNL     1      31.414 -12.443 -21.631  0.00  0.00    +0.154 HD
ENDROOT
BRANCH   1  14
ATOM     13 CL   UNL     1      35.015 -16.784 -24.616  0.00  0.00    -0.082 Cl
ATOM     14  C   UNL     1      32.898 -13.283 -22.703  0.00  0.00    +0.049 C 
ATOM     15  C   UNL     1      33.790 -14.059 -21.958  0.00  0.00    +0.016 C 
ATOM     16  C   UNL     1      32.665 -13.597 -24.045  0.00  0.00    +0.016 C 
ATOM     17  C   UNL     1      34.444 -15.140 -22.548  0.00  0.00    +0.013 C 
ATOM     18  C   UNL     1      33.319 -14.679 -24.637  0.00  0.00    +0.013 C 
ATOM     19  C   UNL     1      34.208 -15.450 -23.888  0.00  0.00    +0.058 C 
ENDBRANCH   1  14
BRANCH   6  20
ATOM     20  C   UNL     1      33.515  -6.757 -22.176  0.00  0.00    +0.074 C 
BRANCH  20  22
ATOM     21  N   UNL     1      30.341  -4.212 -23.526  0.00  0.00    -0.242 NA
ATOM     22  C   UNL     1      32.394  -5.858 -22.653  0.00  0.00    -0.013 C 
ATOM     23  C   UNL     1      31.896  -6.019 -23.929  0.00  0.00    +0.017 C 
ATOM     24  C   UNL     1      31.893  -4.895 -21.802  0.00  0.00    +0.017 C 
ATOM     25  C   UNL     1      30.871  -5.172 -24.317  0.00  0.00    +0.099 C 
ATOM     26  C   UNL     1      30.868  -4.098 -22.285  0.00  0.00    +0.099 C 
ENDBRANCH  20  22
ENDBRANCH   6  20
TORSDOF 3
ENDMDL
MODEL 4
REMARK VINA RESULT:     -10.4     11.525     15.189
REMARK  Name = 151194
REMARK  3 active torsions:
REMARK  status: ('A' for Active; 'I' for Inactive)
REMARK    1  A    between atoms: N_1  and  C_14
REMARK    2  A    between atoms: C_6  and  C_20
REMARK    3  A    between atoms: C_20  and  C_22
REMARK                            x       y       z     vdW  Elec       q    Type
REMARK                         _______ _______ _______ _____ _____    ______ ____
ROOT
ATOM      1  N   UNL     1      32.287 -12.141 -22.134  0.00  0.00    -0.297 N 
ATOM      2  N   UNL     1      33.569  -8.926 -23.170  0.00  0.00    -0.151 NA
ATOM      3  N   UNL     1      33.260 -10.249 -23.154  0.00  0.00    -0.133 NA
ATOM      4  C   UNL     1      32.497  -8.626 -21.030  0.00  0.00    +0.018 A 
ATOM      5  C   UNL     1      32.178  -9.992 -21.013  0.00  0.00    +0.035 A 
ATOM      6  C   UNL     1      33.194  -8.146 -22.133  0.00  0.00    +0.085 A 
ATOM      7  C   UNL     1      32.583 -10.757 -22.101  0.00  0.00    +0.154 A 
ATOM      8  C   UNL     1      32.110  -7.808 -19.955  0.00  0.00    +0.001 C 
ATOM      9  C   UNL     1      31.474 -10.527 -19.921  0.00  0.00    +0.003 C 
ATOM     10  C   UNL     1      31.412  -8.350 -18.875  0.00  0.00    +0.000 C 
ATOM     11  C   UNL     1      31.094  -9.708 -18.858  0.00  0.00    +0.000 C 
ATOM     12  H   UNL     1      31.459 -12.381 -21.660  0.00  0.00    +0.154 HD
ENDROOT
BRANCH   1  14
ATOM     13 CL   UNL     1      35.064 -16.765 -24.578  0.00  0.00    -0.082 Cl
ATOM     14  C   UNL     1      32.946 -13.238 -22.714  0.00  0.00    +0.049 C 
ATOM     15  C   UNL     1      32.679 -13.600 -24.036  0.00  0.00    +0.016 C 
ATOM     16  C   UNL     1      33.872 -13.975 -21.970  0.00  0.00    +0.016 C 
ATOM     17  C   UNL     1      33.333 -14.689 -24.613  0.00  0.00    +0.013 C 
ATOM     18  C   UNL     1      34.527 -15.064 -22.545  0.00  0.00    +0.013 C 
ATOM     19  C   UNL     1      34.257 -15.421 -23.867  0.00  0.00    +0.058 C 
ENDBRANCH   1  14
BRANCH   6  20
ATOM     20  C   UNL     1      33.584  -6.709 -22.255  0.00  0.00    +0.074 C 
BRANCH  20  22
ATOM     21  N   UNL     1      31.508  -4.602 -25.356  0.00  0.00    -0.242 NA
ATOM     22  C   UNL     1      32.851  -5.965 -23.351  0.00  0.00    -0.013 C 
ATOM     23  C   UNL     1      31.484  -5.809 -23.261  0.00  0.00    +0.017 C 
ATOM     24  C   UNL     1      33.565  -5.458 -24.416  0.00  0.00    +0.017 C 
ATOM     25  C   UNL     1      30.860  -5.120 -24.289  0.00  0.00    +0.099 C 
ATOM     26  C   UNL     1      32.848  -4.785 -25.392  0.00  0.00    +0.099 C 
ENDBRANCH  20  22
ENDBRANCH   6  20
TORSDOF 3
ENDMDL
MODEL 5
REMARK VINA RESULT:     -10.4     11.304     15.263
REMARK  Name = 151194
REMARK  3 active torsions:
REMARK  status: ('A' for Active; 'I' for Inactive)
REMARK    1  A    between atoms: N_1  and  C_14
REMARK    2  A    between atoms: C_6  and  C_20
REMARK    3  A    between atoms: C_20  and  C_22
REMARK                            x       y       z     vdW  Elec       q    Type
REMARK                         _______ _______ _______ _____ _____    ______ ____
ROOT
ATOM      1  N   UNL     1      32.309 -12.175 -22.150  0.00  0.00    -0.297 N 
ATOM      2  N   UNL     1      33.604  -8.981 -23.232  0.00  0.00    -0.151 NA
ATOM      3  N   UNL     1      33.287 -10.302 -23.199  0.00  0.00    -0.133 NA
ATOM      4  C   UNL     1      32.547  -8.648 -21.089  0.00  0.00    +0.018 A 
ATOM      5  C   UNL     1      32.220 -10.013 -21.054  0.00  0.00    +0.035 A 
ATOM      6  C   UNL     1      33.240  -8.186 -22.203  0.00  0.00    +0.085 A 
ATOM      7  C   UNL     1      32.614 -10.792 -22.135  0.00  0.00    +0.154 A 
ATOM      8  C   UNL     1      32.172  -7.815 -20.021  0.00  0.00    +0.001 C 
ATOM      9  C   UNL     1      31.520 -10.530 -19.951  0.00  0.00    +0.003 C 
ATOM     10  C   UNL     1      31.478  -8.340 -18.931  0.00  0.00    +0.000 C 
ATOM     11  C   UNL     1      31.152  -9.695 -18.896  0.00  0.00    +0.000 C 
ATOM     12  H   UNL     1      31.482 -12.404 -21.668  0.00  0.00    +0.154 HD
ENDROOT
BRANCH   1  14
ATOM     13 CL   UNL     1      35.039 -16.847 -24.553  0.00  0.00    -0.082 Cl
ATOM     14  C   UNL     1      32.957 -13.283 -22.721  0.00  0.00    +0.049 C 
ATOM     15  C   UNL     1      33.856 -14.039 -21.963  0.00  0.00    +0.016 C 
ATOM     16  C   UNL     1      32.707 -13.636 -24.050  0.00  0.00    +0.016 C 
ATOM     17  C   UNL     1      34.499 -15.140 -22.529  0.00  0.00    +0.013 C 
ATOM     18  C   UNL     1      33.350 -14.738 -24.616  0.00  0.00    +0.013 C 
ATOM     19  C   UNL     1      34.246 -15.489 -23.856  0.00  0.00    +0.058 C 
ENDBRANCH   1  14
BRANCH   6  20
ATOM     20  C   UNL     1      33.638  -6.753 -22.344  0.00  0.00    +0.074 C 
BRANCH  20  22
ATOM     21  N   UNL     1      34.151  -5.485 -26.406  0.00  0.00    -0.242 NA
ATOM     22  C   UNL     1      33.819  -6.306 -23.779  0.00  0.00    -0.013 C 
ATOM     23  C   UNL     1      32.706  -6.049 -24.551  0.00  0.00    +0.017 C 
ATOM     24  C   UNL     1      35.095  -6.164 -24.285  0.00  0.00    +0.017 C 
ATOM     25  C   UNL     1      32.925  -5.642 -25.857  0.00  0.00    +0.099 C 
ATOM     26  C   UNL     1      35.207  -5.752 -25.603  0.00  0.00    +0.099 C 
ENDBRANCH  20  22
ENDBRANCH   6  20
TORSDOF 3
ENDMDL
MODEL 6
REMARK VINA RESULT:     -10.3      1.553      2.511
REMARK  Name = 151194
REMARK  3 active torsions:
REMARK  status: ('A' for Active; 'I' for Inactive)
REMARK    1  A    between atoms: N_1  and  C_14
REMARK    2  A    between atoms: C_6  and  C_20
REMARK    3  A    between atoms: C_20  and  C_22
REMARK                            x       y       z     vdW  Elec       q    Type
REMARK                         _______ _______ _______ _____ _____    ______ ____
ROOT
ATOM      1  N   UNL     1      36.203 -20.963 -19.413  0.00  0.00    -0.297 N 
ATOM      2  N   UNL     1      33.387 -22.958 -18.343  0.00  0.00    -0.151 NA
ATOM      3  N   UNL     1      34.203 -22.174 -19.095  0.00  0.00    -0.133 NA
ATOM      4  C   UNL     1      34.993 -22.944 -16.543  0.00  0.00    +0.018 A 
ATOM      5  C   UNL     1      35.836 -22.134 -17.320  0.00  0.00    +0.035 A 
ATOM      6  C   UNL     1      33.780 -23.327 -17.104  0.00  0.00    +0.085 A 
ATOM      7  C   UNL     1      35.391 -21.779 -18.588  0.00  0.00    +0.154 A 
ATOM      8  C   UNL     1      35.395 -23.330 -15.253  0.00  0.00    +0.001 C 
ATOM      9  C   UNL     1      37.073 -21.719 -16.798  0.00  0.00    +0.003 C 
ATOM     10  C   UNL     1      36.626 -22.913 -14.746  0.00  0.00    +0.000 C 
ATOM     11  C   UNL     1      37.464 -22.109 -15.517  0.00  0.00    +0.000 C 
ATOM     12  H   UNL     1      37.168 -21.077 -19.256  0.00  0.00    +0.154 HD
ENDROOT
BRANCH   1  14
ATOM     13 CL   UNL     1      34.919 -17.009 -23.628  0.00  0.00    -0.082 Cl
ATOM     14  C   UNL     1      35.898 -20.025 -20.413  0.00  0.00    +0.049 C 
ATOM     15  C   UNL     1      36.735 -18.927 -20.625  0.00  0.00    +0.016 C 
ATOM     16  C   UNL     1      34.754 -20.184 -21.201  0.00  0.00    +0.016 C 
ATOM     17  C   UNL     1      36.434 -17.995 -21.618  0.00  0.00    +0.013 C 
ATOM     18  C   UNL     1      34.452 -19.253 -22.195  0.00  0.00    +0.013 C 
ATOM     19  C   UNL     1      35.291 -18.158 -22.403  0.00  0.00    +0.058 C 
ENDBRANCH   1  14
BRANCH   6  20
ATOM     20  C   UNL     1      32.807 -24.188 -16.367  0.00  0.00    +0.074 C 
BRANCH  20  22
ATOM     21  N   UNL     1      29.597 -22.012 -14.542  0.00  0.00    -0.242 NA
ATOM     22  C   UNL     1      31.674 -23.419 -15.722  0.00  0.00    -0.013 C 
ATOM     23  C   UNL     1      30.481 -23.283 -16.400  0.00  0.00    +0.017 C 
ATOM     24  C   UNL     1      31.857 -22.870 -14.470  0.00  0.00    +0.017 C 
ATOM     25  C   UNL     1      29.474 -22.571 -15.767  0.00  0.00    +0.099 C 
ATOM     26  C   UNL     1      30.789 -22.177 -13.924  0.00  0.00    +0.099 C 
ENDBRANCH  20  22
ENDBRANCH   6  20
TORSDOF 3
ENDMDL
MODEL 7
REMARK VINA RESULT:     -10.0      3.403      6.769
REMARK  Name = 151194
REMARK  3 active torsions:
REMARK  status: ('A' for Active; 'I' for Inactive)
REMARK    1  A    between atoms: N_1  and  C_14
REMARK    2  A    between atoms: C_6  and  C_20
REMARK    3  A    between atoms: C_20  and  C_22
REMARK                            x       y       z     vdW  Elec       q    Type
REMARK                         _______ _______ _______ _____ _____    ______ ____
ROOT
ATOM      1  N   UNL     1      35.036 -25.239 -14.235  0.00  0.00    -0.297 N 
ATOM      2  N   UNL     1      34.205 -23.464 -17.271  0.00  0.00    -0.151 NA
ATOM      3  N   UNL     1      34.863 -24.230 -16.361  0.00  0.00    -0.133 NA
ATOM      4  C   UNL     1      32.408 -23.103 -15.703  0.00  0.00    +0.018 A 
ATOM      5  C   UNL     1      33.086 -23.895 -14.763  0.00  0.00    +0.035 A 
ATOM      6  C   UNL     1      33.013 -22.921 -16.941  0.00  0.00    +0.085 A 
ATOM      7  C   UNL     1      34.309 -24.433 -15.145  0.00  0.00    +0.154 A 
ATOM      8  C   UNL     1      31.167 -22.535 -15.367  0.00  0.00    +0.001 C 
ATOM      9  C   UNL     1      32.517 -24.110 -13.497  0.00  0.00    +0.003 C 
ATOM     10  C   UNL     1      30.611 -22.755 -14.106  0.00  0.00    +0.000 C 
ATOM     11  C   UNL     1      31.285 -23.542 -13.173  0.00  0.00    +0.000 C 
ATOM     12  H   UNL     1      34.467 -25.737 -13.606  0.00  0.00    +0.154 HD
ENDROOT
BRANCH   1  14
ATOM     13 CL   UNL     1      40.831 -26.197 -13.491  0.00  0.00    -0.082 Cl
ATOM     14  C   UNL     1      36.410 -25.466 -14.058  0.00  0.00    +0.049 C 
ATOM     15  C   UNL     1      36.974 -26.690 -14.429  0.00  0.00    +0.016 C 
ATOM     16  C   UNL     1      37.222 -24.470 -13.509  0.00  0.00    +0.016 C 
ATOM     17  C   UNL     1      38.340 -26.916 -14.255  0.00  0.00    +0.013 C 
ATOM     18  C   UNL     1      38.588 -24.695 -13.334  0.00  0.00    +0.013 C 
ATOM     19  C   UNL     1      39.147 -25.918 -13.706  0.00  0.00    +0.058 C 
ENDBRANCH   1  14
BRANCH   6  20
ATOM     20  C   UNL     1      32.379 -22.099 -18.015  0.00  0.00    +0.074 C 
BRANCH  20  22
ATOM     21  N   UNL     1      35.190 -20.186 -20.624  0.00  0.00    -0.242 NA
ATOM     22  C   UNL     1      33.372 -21.423 -18.937  0.00  0.00    -0.013 C 
ATOM     23  C   UNL     1      34.716 -21.698 -18.798  0.00  0.00    +0.017 C 
ATOM     24  C   UNL     1      32.913 -20.545 -19.897  0.00  0.00    +0.017 C 
ATOM     25  C   UNL     1      35.584 -21.055 -19.666  0.00  0.00    +0.099 C 
ATOM     26  C   UNL     1      33.861 -19.954 -20.715  0.00  0.00    +0.099 C 
ENDBRANCH  20  22
ENDBRANCH   6  20
TORSDOF 3
ENDMDL
MODEL 8
REMARK VINA RESULT:     -10.0      3.274      7.168
REMARK  Name = 151194
REMARK  3 active torsions:
REMARK  status: ('A' for Active; 'I' for Inactive)
REMARK    1  A    between atoms: N_1  and  C_14
REMARK    2  A    between atoms: C_6  and  C_20
REMARK    3  A    between atoms: C_20  and  C_22
REMARK                            x       y       z     vdW  Elec       q    Type
REMARK                         _______ _______ _______ _____ _____    ______ ____
ROOT
ATOM      1  N   UNL     1      31.345 -23.144 -16.627  0.00  0.00    -0.297 N 
ATOM      2  N   UNL     1      33.753 -23.638 -13.980  0.00  0.00    -0.151 NA
ATOM      3  N   UNL     1      32.583 -23.588 -14.669  0.00  0.00    -0.133 NA
ATOM      4  C   UNL     1      34.954 -22.848 -15.917  0.00  0.00    +0.018 A 
ATOM      5  C   UNL     1      33.746 -22.797 -16.629  0.00  0.00    +0.035 A 
ATOM      6  C   UNL     1      34.900 -23.276 -14.596  0.00  0.00    +0.085 A 
ATOM      7  C   UNL     1      32.591 -23.178 -15.956  0.00  0.00    +0.154 A 
ATOM      8  C   UNL     1      36.151 -22.474 -16.551  0.00  0.00    +0.001 C 
ATOM      9  C   UNL     1      33.747 -22.371 -17.968  0.00  0.00    +0.003 C 
ATOM     10  C   UNL     1      36.141 -22.053 -17.881  0.00  0.00    +0.000 C 
ATOM     11  C   UNL     1      34.940 -22.001 -18.589  0.00  0.00    +0.000 C 
ATOM     12  H   UNL     1      31.412 -23.305 -17.596  0.00  0.00    +0.154 HD
ENDROOT
BRANCH   1  14
ATOM     13 CL   UNL     1      25.808 -22.233 -14.738  0.00  0.00    -0.082 Cl
ATOM     14  C   UNL     1      30.032 -22.927 -16.179  0.00  0.00    +0.049 C 
ATOM     15  C   UNL     1      28.947 -23.238 -17.003  0.00  0.00    +0.016 C 
ATOM     16  C   UNL     1      29.802 -22.399 -14.906  0.00  0.00    +0.016 C 
ATOM     17  C   UNL     1      27.642 -23.024 -16.559  0.00  0.00    +0.013 C 
ATOM     18  C   UNL     1      28.497 -22.184 -14.460  0.00  0.00    +0.013 C 
ATOM     19  C   UNL     1      27.418 -22.497 -15.287  0.00  0.00    +0.058 C 
ENDBRANCH   1  14
BRANCH   6  20
ATOM     20  C   UNL     1      36.125 -23.370 -13.746  0.00  0.00    +0.074 C 
BRANCH  20  22
ATOM     21  N   UNL     1      38.315 -27.020 -14.255  0.00  0.00    -0.242 NA
ATOM     22  C   UNL     1      36.898 -24.660 -13.925  0.00  0.00    -0.013 C 
ATOM     23  C   UNL     1      36.281 -25.738 -14.522  0.00  0.00    +0.017 C 
ATOM     24  C   UNL     1      38.205 -24.729 -13.489  0.00  0.00    +0.017 C 
ATOM     25  C   UNL     1      37.032 -26.894 -14.664  0.00  0.00    +0.099 C 
ATOM     26  C   UNL     1      38.869 -25.930 -13.676  0.00  0.00    +0.099 C 
ENDBRANCH  20  22
ENDBRANCH   6  20
TORSDOF 3
ENDMDL
MODEL 9
REMARK VINA RESULT:      -9.7      6.596     10.553
REMARK  Name = 151194
REMARK  3 active torsions:
REMARK  status: ('A' for Active; 'I' for Inactive)
REMARK    1  A    between atoms: N_1  and  C_14
REMARK    2  A    between atoms: C_6  and  C_20
REMARK    3  A    between atoms: C_20  and  C_22
REMARK                            x       y       z     vdW  Elec       q    Type
REMARK                         _______ _______ _______ _____ _____    ______ ____
ROOT
ATOM      1  N   UNL     1      32.380 -13.239 -21.810  0.00  0.00    -0.297 N 
ATOM      2  N   UNL     1      34.799 -15.540 -20.431  0.00  0.00    -0.151 NA
ATOM      3  N   UNL     1      33.870 -14.554 -20.540  0.00  0.00    -0.133 NA
ATOM      4  C   UNL     1      34.661 -15.966 -22.801  0.00  0.00    +0.018 A 
ATOM      5  C   UNL     1      33.701 -14.948 -22.914  0.00  0.00    +0.035 A 
ATOM      6  C   UNL     1      35.176 -16.220 -21.535  0.00  0.00    +0.085 A 
ATOM      7  C   UNL     1      33.343 -14.275 -21.752  0.00  0.00    +0.154 A 
ATOM      8  C   UNL     1      35.058 -16.677 -23.946  0.00  0.00    +0.001 C 
ATOM      9  C   UNL     1      33.149 -14.652 -24.172  0.00  0.00    +0.003 C 
ATOM     10  C   UNL     1      34.503 -16.375 -25.190  0.00  0.00    +0.000 C 
ATOM     11  C   UNL     1      33.549 -15.364 -25.302  0.00  0.00    +0.000 C 
ATOM     12  H   UNL     1      31.710 -13.359 -22.522  0.00  0.00    +0.154 HD
ENDROOT
BRANCH   1  14
ATOM     13 CL   UNL     1      31.596  -8.326 -18.600  0.00  0.00    -0.082 Cl
ATOM     14  C   UNL     1      32.193 -12.073 -21.049  0.00  0.00    +0.049 C 
ATOM     15  C   UNL     1      32.157 -12.143 -19.654  0.00  0.00    +0.016 C 
ATOM     16  C   UNL     1      32.042 -10.837 -21.682  0.00  0.00    +0.016 C 
ATOM     17  C   UNL     1      31.973 -10.986 -18.897  0.00  0.00    +0.013 C 
ATOM     18  C   UNL     1      31.857  -9.678 -20.926  0.00  0.00    +0.013 C 
ATOM     19  C   UNL     1      31.823  -9.753 -19.534  0.00  0.00    +0.058 C 
ENDBRANCH   1  14
BRANCH   6  20
ATOM     20  C   UNL     1      36.201 -17.281 -21.300  0.00  0.00    +0.074 C 
BRANCH  20  22
ATOM     21  N   UNL     1      34.573 -20.986 -19.889  0.00  0.00    -0.242 NA
ATOM     22  C   UNL     1      35.626 -18.589 -20.801  0.00  0.00    -0.013 C 
ATOM     23  C   UNL     1      34.281 -18.841 -20.967  0.00  0.00    +0.017 C 
ATOM     24  C   UNL     1      36.460 -19.504 -20.191  0.00  0.00    +0.017 C 
ATOM     25  C   UNL     1      33.804 -20.053 -20.493  0.00  0.00    +0.099 C 
ATOM     26  C   UNL     1      35.885 -20.686 -19.753  0.00  0.00    +0.099 C 
ENDBRANCH  20  22
ENDBRANCH   6  20
TORSDOF 3
ENDMDL
