MODEL 1
REMARK VINA RESULT:     -12.4      0.000      0.000
REMARK  Name = 11633167
REMARK  7 active torsions:
REMARK  status: ('A' for Active; 'I' for Inactive)
REMARK    1  A    between atoms: C_1  and  C_8
REMARK    2  A    between atoms: C_2  and  C_25
REMARK    3  A    between atoms: C_4  and  O_17
REMARK    4  A    between atoms: O_17  and  C_18
REMARK    5  A    between atoms: C_18  and  C_20
REMARK    6  A    between atoms: C_25  and  N_26
REMARK    7  A    between atoms: N_26  and  C_29
REMARK                            x       y       z     vdW  Elec       q    Type
REMARK                         _______ _______ _______ _____ _____    ______ ____
ROOT
ATOM      1  C   UNL     1      35.299 -20.262 -20.196  0.00  0.00    -0.000 C 
ATOM      2  C   UNL     1      34.459 -22.026 -18.778  0.00  0.00    +0.031 C 
ATOM      3  C   UNL     1      34.281 -21.148 -19.847  0.00  0.00    +0.000 C 
ATOM      4  C   UNL     1      35.654 -22.017 -18.059  0.00  0.00    +0.137 C 
ATOM      5  C   UNL     1      36.494 -20.252 -19.479  0.00  0.00    +0.003 C 
ATOM      6  C   UNL     1      36.673 -21.131 -18.410  0.00  0.00    +0.037 C 
ENDROOT
BRANCH   1   8
ATOM      7  N   UNL     1      35.221 -15.764 -22.300  0.00  0.00    -0.312 N 
ATOM      8  C   UNL     1      35.115 -19.350 -21.306  0.00  0.00    +0.001 C 
ATOM      9  C   UNL     1      35.111 -17.132 -22.203  0.00  0.00    +0.048 C 
ATOM     10  C   UNL     1      34.754 -17.606 -23.468  0.00  0.00    +0.015 C 
ATOM     11  C   UNL     1      35.298 -17.979 -21.104  0.00  0.00    +0.015 C 
ATOM     12  C   UNL     1      34.760 -19.851 -22.556  0.00  0.00    +0.000 C 
ATOM     13  C   UNL     1      34.575 -18.993 -23.646  0.00  0.00    +0.001 C 
ATOM     14  C   UNL     1      34.656 -16.476 -24.326  0.00  0.00    +0.017 C 
ATOM     15  C   UNL     1      34.947 -15.357 -23.579  0.00  0.00    +0.062 C 
ATOM     16  H   UNL     1      35.461 -15.163 -21.558  0.00  0.00    +0.152 HD
ENDBRANCH   1   8
BRANCH   4  17
ATOM     17  O   UNL     1      35.845 -22.867 -17.012  0.00  0.00    -0.469 OA
BRANCH  17  18
ATOM     18  C   UNL     1      36.797 -22.477 -16.025  0.00  0.00    +0.251 C 
BRANCH  18  20
ATOM     19  N   UNL     1      36.352 -24.709 -15.198  0.00  0.00    -0.244 NA
ATOM     20  C   UNL     1      36.758 -23.460 -14.892  0.00  0.00    +0.103 C 
ATOM     21  C   UNL     1      37.132 -23.045 -13.629  0.00  0.00    +0.018 C 
ATOM     22  C   UNL     1      37.085 -23.979 -12.602  0.00  0.00    +0.003 C 
ATOM     23  C   UNL     1      36.319 -25.590 -14.174  0.00  0.00    +0.099 C 
ATOM     24  C   UNL     1      36.672 -25.280 -12.871  0.00  0.00    +0.021 C 
ENDBRANCH  18  20
ENDBRANCH  17  18
ENDBRANCH   4  17
BRANCH   2  25
ATOM     25  C   UNL     1      33.360 -22.969 -18.416  0.00  0.00    +0.117 C 
BRANCH  25  26
ATOM     26  N   UNL     1      32.382 -22.362 -17.512  0.00  0.00    -0.327 N 
ATOM     27  H   UNL     1      31.903 -21.555 -17.810  0.00  0.00    +0.147 HD
BRANCH  26  29
ATOM     28  N   UNL     1      30.482 -23.550 -14.563  0.00  0.00    -0.228 NA
ATOM     29  C   UNL     1      32.102 -22.864 -16.263  0.00  0.00    +0.077 C 
ATOM     30  C   UNL     1      30.798 -23.059 -15.782  0.00  0.00    +0.139 C 
ATOM     31  C   UNL     1      33.136 -23.219 -15.378  0.00  0.00    +0.019 C 
ATOM     32  C   UNL     1      32.852 -23.727 -14.114  0.00  0.00    +0.022 C 
ATOM     33  C   UNL     1      31.520 -23.872 -13.759  0.00  0.00    +0.100 C 
ATOM     34  N   UNL     1      29.731 -22.711 -16.649  0.00  0.00    -0.342 N 
ATOM     35  H   UNL     1      28.799 -22.831 -16.354  0.00  0.00    +0.144 HD
ATOM     36  H   UNL     1      29.921 -22.351 -17.545  0.00  0.00    +0.144 HD
ENDBRANCH  26  29
ENDBRANCH  25  26
ENDBRANCH   2  25
TORSDOF 7
ENDMDL
MODEL 2
REMARK VINA RESULT:     -12.0      1.176      1.639
REMARK  Name = 11633167
REMARK  7 active torsions:
REMARK  status: ('A' for Active; 'I' for Inactive)
REMARK    1  A    between atoms: C_1  and  C_8
REMARK    2  A    between atoms: C_2  and  C_25
REMARK    3  A    between atoms: C_4  and  O_17
REMARK    4  A    between atoms: O_17  and  C_18
REMARK    5  A    between atoms: C_18  and  C_20
REMARK    6  A    between atoms: C_25  and  N_26
REMARK    7  A    between atoms: N_26  and  C_29
REMARK                            x       y       z     vdW  Elec       q    Type
REMARK                         _______ _______ _______ _____ _____    ______ ____
ROOT
ATOM      1  C   UNL     1      35.436 -20.536 -19.671  0.00  0.00    -0.000 C 
ATOM      2  C   UNL     1      34.468 -22.296 -18.331  0.00  0.00    +0.031 C 
ATOM      3  C   UNL     1      34.371 -21.390 -19.388  0.00  0.00    +0.000 C 
ATOM      4  C   UNL     1      35.628 -22.347 -17.560  0.00  0.00    +0.137 C 
ATOM      5  C   UNL     1      36.596 -20.585 -18.900  0.00  0.00    +0.003 C 
ATOM      6  C   UNL     1      36.693 -21.492 -17.844  0.00  0.00    +0.037 C 
ENDROOT
BRANCH   1   8
ATOM      7  N   UNL     1      33.819 -19.034 -24.120  0.00  0.00    -0.312 N 
ATOM      8  C   UNL     1      35.336 -19.595 -20.767  0.00  0.00    +0.001 C 
ATOM      9  C   UNL     1      34.493 -18.985 -22.920  0.00  0.00    +0.048 C 
ATOM     10  C   UNL     1      35.158 -17.757 -22.873  0.00  0.00    +0.015 C 
ATOM     11  C   UNL     1      34.563 -19.923 -21.884  0.00  0.00    +0.015 C 
ATOM     12  C   UNL     1      36.011 -18.378 -20.692  0.00  0.00    +0.000 C 
ATOM     13  C   UNL     1      35.932 -17.450 -21.737  0.00  0.00    +0.001 C 
ATOM     14  C   UNL     1      34.860 -17.073 -24.084  0.00  0.00    +0.017 C 
ATOM     15  C   UNL     1      34.035 -17.884 -24.831  0.00  0.00    +0.062 C 
ATOM     16  H   UNL     1      33.263 -19.788 -24.424  0.00  0.00    +0.152 HD
ENDBRANCH   1   8
BRANCH   4  17
ATOM     17  O   UNL     1      35.740 -23.225 -16.525  0.00  0.00    -0.469 OA
BRANCH  17  18
ATOM     18  C   UNL     1      36.605 -22.858 -15.452  0.00  0.00    +0.251 C 
BRANCH  18  20
ATOM     19  N   UNL     1      38.382 -24.044 -14.314  0.00  0.00    -0.244 NA
ATOM     20  C   UNL     1      37.123 -24.102 -14.793  0.00  0.00    +0.103 C 
ATOM     21  C   UNL     1      36.303 -25.211 -14.711  0.00  0.00    +0.018 C 
ATOM     22  C   UNL     1      36.814 -26.347 -14.095  0.00  0.00    +0.003 C 
ATOM     23  C   UNL     1      38.844 -25.167 -13.721  0.00  0.00    +0.099 C 
ATOM     24  C   UNL     1      38.108 -26.333 -13.586  0.00  0.00    +0.021 C 
ENDBRANCH  18  20
ENDBRANCH  17  18
ENDBRANCH   4  17
BRANCH   2  25
ATOM     25  C   UNL     1      33.319 -23.205 -18.041  0.00  0.00    +0.117 C 
BRANCH  25  26
ATOM     26  N   UNL     1      32.247 -22.528 -17.310  0.00  0.00    -0.327 N 
ATOM     27  H   UNL     1      31.771 -21.788 -17.751  0.00  0.00    +0.147 HD
BRANCH  26  29
ATOM     28  N   UNL     1      30.127 -23.337 -14.382  0.00  0.00    -0.228 NA
ATOM     29  C   UNL     1      31.872 -22.878 -16.033  0.00  0.00    +0.077 C 
ATOM     30  C   UNL     1      30.535 -22.997 -15.626  0.00  0.00    +0.139 C 
ATOM     31  C   UNL     1      32.837 -23.140 -15.044  0.00  0.00    +0.019 C 
ATOM     32  C   UNL     1      32.457 -23.494 -13.753  0.00  0.00    +0.022 C 
ATOM     33  C   UNL     1      31.101 -23.577 -13.476  0.00  0.00    +0.100 C 
ATOM     34  N   UNL     1      29.536 -22.739 -16.599  0.00  0.00    -0.342 N 
ATOM     35  H   UNL     1      28.585 -22.811 -16.357  0.00  0.00    +0.144 HD
ATOM     36  H   UNL     1      29.795 -22.488 -17.515  0.00  0.00    +0.144 HD
ENDBRANCH  26  29
ENDBRANCH  25  26
ENDBRANCH   2  25
TORSDOF 7
ENDMDL
MODEL 3
REMARK VINA RESULT:     -11.9      1.834      4.859
REMARK  Name = 11633167
REMARK  7 active torsions:
REMARK  status: ('A' for Active; 'I' for Inactive)
REMARK    1  A    between atoms: C_1  and  C_8
REMARK    2  A    between atoms: C_2  and  C_25
REMARK    3  A    between atoms: C_4  and  O_17
REMARK    4  A    between atoms: O_17  and  C_18
REMARK    5  A    between atoms: C_18  and  C_20
REMARK    6  A    between atoms: C_25  and  N_26
REMARK    7  A    between atoms: N_26  and  C_29
REMARK                            x       y       z     vdW  Elec       q    Type
REMARK                         _______ _______ _______ _____ _____    ______ ____
ROOT
ATOM      1  C   UNL     1      35.159 -21.622 -18.415  0.00  0.00    -0.000 C 
ATOM      2  C   UNL     1      35.837 -22.631 -16.328  0.00  0.00    +0.031 C 
ATOM      3  C   UNL     1      36.100 -21.774 -17.397  0.00  0.00    +0.000 C 
ATOM      4  C   UNL     1      34.634 -23.334 -16.277  0.00  0.00    +0.137 C 
ATOM      5  C   UNL     1      33.957 -22.325 -18.365  0.00  0.00    +0.003 C 
ATOM      6  C   UNL     1      33.693 -23.181 -17.295  0.00  0.00    +0.037 C 
ENDROOT
BRANCH   1   8
ATOM      7  N   UNL     1      33.992 -19.276 -22.633  0.00  0.00    -0.312 N 
ATOM      8  C   UNL     1      35.432 -20.734 -19.525  0.00  0.00    +0.001 C 
ATOM      9  C   UNL     1      34.752 -19.662 -21.552  0.00  0.00    +0.048 C 
ATOM     10  C   UNL     1      35.983 -19.009 -21.662  0.00  0.00    +0.015 C 
ATOM     11  C   UNL     1      34.448 -20.528 -20.496  0.00  0.00    +0.015 C 
ATOM     12  C   UNL     1      36.668 -20.097 -19.608  0.00  0.00    +0.000 C 
ATOM     13  C   UNL     1      36.959 -19.233 -20.671  0.00  0.00    +0.001 C 
ATOM     14  C   UNL     1      35.933 -18.220 -22.844  0.00  0.00    +0.017 C 
ATOM     15  C   UNL     1      34.697 -18.405 -23.421  0.00  0.00    +0.062 C 
ATOM     16  H   UNL     1      33.074 -19.582 -22.815  0.00  0.00    +0.152 HD
ENDBRANCH   1   8
BRANCH   4  17
ATOM     17  O   UNL     1      34.361 -24.175 -15.241  0.00  0.00    -0.469 OA
BRANCH  17  18
ATOM     18  C   UNL     1      33.731 -23.607 -14.094  0.00  0.00    +0.251 C 
BRANCH  18  20
ATOM     19  N   UNL     1      31.842 -25.106 -13.879  0.00  0.00    -0.244 NA
ATOM     20  C   UNL     1      32.254 -23.856 -14.172  0.00  0.00    +0.103 C 
ATOM     21  C   UNL     1      31.416 -22.817 -14.530  0.00  0.00    +0.018 C 
ATOM     22  C   UNL     1      30.053 -23.081 -14.593  0.00  0.00    +0.003 C 
ATOM     23  C   UNL     1      30.511 -25.325 -13.951  0.00  0.00    +0.099 C 
ATOM     24  C   UNL     1      29.583 -24.356 -14.299  0.00  0.00    +0.021 C 
ENDBRANCH  18  20
ENDBRANCH  17  18
ENDBRANCH   4  17
BRANCH   2  25
ATOM     25  C   UNL     1      36.854 -22.782 -15.246  0.00  0.00    +0.117 C 
BRANCH  25  26
ATOM     26  N   UNL     1      37.347 -24.155 -15.135  0.00  0.00    -0.327 N 
ATOM     27  H   UNL     1      37.636 -24.619 -15.954  0.00  0.00    +0.147 HD
BRANCH  26  29
ATOM     28  N   UNL     1      36.962 -26.814 -12.585  0.00  0.00    -0.228 NA
ATOM     29  C   UNL     1      37.425 -24.831 -13.939  0.00  0.00    +0.077 C 
ATOM     30  C   UNL     1      36.906 -26.119 -13.743  0.00  0.00    +0.139 C 
ATOM     31  C   UNL     1      38.047 -24.248 -12.820  0.00  0.00    +0.019 C 
ATOM     32  C   UNL     1      38.126 -24.932 -11.611  0.00  0.00    +0.022 C 
ATOM     33  C   UNL     1      37.572 -26.201 -11.547  0.00  0.00    +0.100 C 
ATOM     34  N   UNL     1      36.271 -26.736 -14.851  0.00  0.00    -0.342 N 
ATOM     35  H   UNL     1      35.892 -27.640 -14.760  0.00  0.00    +0.144 HD
ATOM     36  H   UNL     1      36.210 -26.261 -15.711  0.00  0.00    +0.144 HD
ENDBRANCH  26  29
ENDBRANCH  25  26
ENDBRANCH   2  25
TORSDOF 7
ENDMDL
MODEL 4
REMARK VINA RESULT:     -11.8      1.915      5.498
REMARK  Name = 11633167
REMARK  7 active torsions:
REMARK  status: ('A' for Active; 'I' for Inactive)
REMARK    1  A    between atoms: C_1  and  C_8
REMARK    2  A    between atoms: C_2  and  C_25
REMARK    3  A    between atoms: C_4  and  O_17
REMARK    4  A    between atoms: O_17  and  C_18
REMARK    5  A    between atoms: C_18  and  C_20
REMARK    6  A    between atoms: C_25  and  N_26
REMARK    7  A    between atoms: N_26  and  C_29
REMARK                            x       y       z     vdW  Elec       q    Type
REMARK                         _______ _______ _______ _____ _____    ______ ____
ROOT
ATOM      1  C   UNL     1      34.790 -21.824 -18.153  0.00  0.00    -0.000 C 
ATOM      2  C   UNL     1      35.233 -22.859 -16.017  0.00  0.00    +0.031 C 
ATOM      3  C   UNL     1      35.638 -22.034 -17.067  0.00  0.00    +0.000 C 
ATOM      4  C   UNL     1      33.981 -23.472 -16.055  0.00  0.00    +0.137 C 
ATOM      5  C   UNL     1      33.538 -22.436 -18.192  0.00  0.00    +0.003 C 
ATOM      6  C   UNL     1      33.133 -23.260 -17.141  0.00  0.00    +0.037 C 
ENDROOT
BRANCH   1   8
ATOM      7  N   UNL     1      34.059 -19.283 -22.358  0.00  0.00    -0.312 N 
ATOM      8  C   UNL     1      35.209 -20.968 -19.243  0.00  0.00    +0.001 C 
ATOM      9  C   UNL     1      34.733 -19.785 -21.267  0.00  0.00    +0.048 C 
ATOM     10  C   UNL     1      36.045 -19.311 -21.341  0.00  0.00    +0.015 C 
ATOM     11  C   UNL     1      34.287 -20.614 -20.232  0.00  0.00    +0.015 C 
ATOM     12  C   UNL     1      36.524 -20.510 -19.291  0.00  0.00    +0.000 C 
ATOM     13  C   UNL     1      36.957 -19.682 -20.333  0.00  0.00    +0.001 C 
ATOM     14  C   UNL     1      36.134 -18.507 -22.511  0.00  0.00    +0.017 C 
ATOM     15  C   UNL     1      34.898 -18.510 -23.116  0.00  0.00    +0.062 C 
ATOM     16  H   UNL     1      33.112 -19.454 -22.563  0.00  0.00    +0.152 HD
ENDBRANCH   1   8
BRANCH   4  17
ATOM     17  O   UNL     1      33.570 -24.280 -15.039  0.00  0.00    -0.469 OA
BRANCH  17  18
ATOM     18  C   UNL     1      32.800 -23.677 -14.001  0.00  0.00    +0.251 C 
BRANCH  18  20
ATOM     19  N   UNL     1      30.655 -22.782 -14.680  0.00  0.00    -0.244 NA
ATOM     20  C   UNL     1      31.342 -23.876 -14.293  0.00  0.00    +0.103 C 
ATOM     21  C   UNL     1      30.796 -25.137 -14.155  0.00  0.00    +0.018 C 
ATOM     22  C   UNL     1      29.442 -25.287 -14.434  0.00  0.00    +0.003 C 
ATOM     23  C   UNL     1      29.342 -22.966 -14.942  0.00  0.00    +0.099 C 
ATOM     24  C   UNL     1      28.694 -24.186 -14.836  0.00  0.00    +0.021 C 
ENDBRANCH  18  20
ENDBRANCH  17  18
ENDBRANCH   4  17
BRANCH   2  25
ATOM     25  C   UNL     1      36.153 -23.075 -14.861  0.00  0.00    +0.117 C 
BRANCH  25  26
ATOM     26  N   UNL     1      36.311 -24.492 -14.534  0.00  0.00    -0.327 N 
ATOM     27  H   UNL     1      35.504 -25.028 -14.361  0.00  0.00    +0.147 HD
BRANCH  26  29
ATOM     28  N   UNL     1      38.879 -27.146 -14.242  0.00  0.00    -0.228 NA
ATOM     29  C   UNL     1      37.537 -25.113 -14.458  0.00  0.00    +0.077 C 
ATOM     30  C   UNL     1      37.694 -26.500 -14.321  0.00  0.00    +0.139 C 
ATOM     31  C   UNL     1      38.729 -24.367 -14.514  0.00  0.00    +0.019 C 
ATOM     32  C   UNL     1      39.968 -24.995 -14.436  0.00  0.00    +0.022 C 
ATOM     33  C   UNL     1      39.987 -26.375 -14.302  0.00  0.00    +0.100 C 
ATOM     34  N   UNL     1      36.513 -27.282 -14.260  0.00  0.00    -0.342 N 
ATOM     35  H   UNL     1      36.575 -28.260 -14.165  0.00  0.00    +0.144 HD
ATOM     36  H   UNL     1      35.631 -26.847 -14.314  0.00  0.00    +0.144 HD
ENDBRANCH  26  29
ENDBRANCH  25  26
ENDBRANCH   2  25
TORSDOF 7
ENDMDL
MODEL 5
REMARK VINA RESULT:     -11.7      1.349      3.936
REMARK  Name = 11633167
REMARK  7 active torsions:
REMARK  status: ('A' for Active; 'I' for Inactive)
REMARK    1  A    between atoms: C_1  and  C_8
REMARK    2  A    between atoms: C_2  and  C_25
REMARK    3  A    between atoms: C_4  and  O_17
REMARK    4  A    between atoms: O_17  and  C_18
REMARK    5  A    between atoms: C_18  and  C_20
REMARK    6  A    between atoms: C_25  and  N_26
REMARK    7  A    between atoms: N_26  and  C_29
REMARK                            x       y       z     vdW  Elec       q    Type
REMARK                         _______ _______ _______ _____ _____    ______ ____
ROOT
ATOM      1  C   UNL     1      34.608 -20.309 -20.215  0.00  0.00    -0.000 C 
ATOM      2  C   UNL     1      35.690 -21.595 -18.481  0.00  0.00    +0.031 C 
ATOM      3  C   UNL     1      35.765 -20.679 -19.530  0.00  0.00    +0.000 C 
ATOM      4  C   UNL     1      34.460 -22.140 -18.118  0.00  0.00    +0.137 C 
ATOM      5  C   UNL     1      33.377 -20.854 -19.852  0.00  0.00    +0.003 C 
ATOM      6  C   UNL     1      33.302 -21.769 -18.802  0.00  0.00    +0.037 C 
ENDROOT
BRANCH   1   8
ATOM      7  N   UNL     1      35.123 -15.754 -22.125  0.00  0.00    -0.312 N 
ATOM      8  C   UNL     1      34.685 -19.359 -21.305  0.00  0.00    +0.001 C 
ATOM      9  C   UNL     1      34.944 -17.118 -22.102  0.00  0.00    +0.048 C 
ATOM     10  C   UNL     1      34.832 -17.540 -23.429  0.00  0.00    +0.015 C 
ATOM     11  C   UNL     1      34.875 -18.003 -21.020  0.00  0.00    +0.015 C 
ATOM     12  C   UNL     1      34.569 -19.808 -22.618  0.00  0.00    +0.000 C 
ATOM     13  C   UNL     1      34.640 -18.911 -23.691  0.00  0.00    +0.001 C 
ATOM     14  C   UNL     1      34.950 -16.382 -24.247  0.00  0.00    +0.017 C 
ATOM     15  C   UNL     1      35.127 -15.299 -23.417  0.00  0.00    +0.062 C 
ATOM     16  H   UNL     1      35.231 -15.186 -21.328  0.00  0.00    +0.152 HD
ENDBRANCH   1   8
BRANCH   4  17
ATOM     17  O   UNL     1      34.368 -23.036 -17.095  0.00  0.00    -0.469 OA
BRANCH  17  18
ATOM     18  C   UNL     1      33.256 -23.928 -17.112  0.00  0.00    +0.251 C 
BRANCH  18  20
ATOM     19  N   UNL     1      32.848 -24.238 -14.746  0.00  0.00    -0.244 NA
ATOM     20  C   UNL     1      32.413 -23.684 -15.896  0.00  0.00    +0.103 C 
ATOM     21  C   UNL     1      31.267 -22.922 -16.015  0.00  0.00    +0.018 C 
ATOM     22  C   UNL     1      30.508 -22.715 -14.869  0.00  0.00    +0.003 C 
ATOM     23  C   UNL     1      32.085 -24.015 -13.653  0.00  0.00    +0.099 C 
ATOM     24  C   UNL     1      30.918 -23.268 -13.660  0.00  0.00    +0.021 C 
ENDBRANCH  18  20
ENDBRANCH  17  18
ENDBRANCH   4  17
BRANCH   2  25
ATOM     25  C   UNL     1      36.938 -21.981 -17.758  0.00  0.00    +0.117 C 
BRANCH  25  26
ATOM     26  N   UNL     1      36.839 -21.750 -16.316  0.00  0.00    -0.327 N 
ATOM     27  H   UNL     1      36.543 -20.866 -16.001  0.00  0.00    +0.147 HD
BRANCH  26  29
ATOM     28  N   UNL     1      36.541 -23.997 -13.387  0.00  0.00    -0.228 NA
ATOM     29  C   UNL     1      37.139 -22.712 -15.380  0.00  0.00    +0.077 C 
ATOM     30  C   UNL     1      36.281 -23.060 -14.326  0.00  0.00    +0.139 C 
ATOM     31  C   UNL     1      38.357 -23.415 -15.432  0.00  0.00    +0.019 C 
ATOM     32  C   UNL     1      38.660 -24.387 -14.484  0.00  0.00    +0.022 C 
ATOM     33  C   UNL     1      37.726 -24.638 -13.491  0.00  0.00    +0.100 C 
ATOM     34  N   UNL     1      35.046 -22.369 -14.243  0.00  0.00    -0.342 N 
ATOM     35  H   UNL     1      34.412 -22.581 -13.520  0.00  0.00    +0.144 HD
ATOM     36  H   UNL     1      34.821 -21.679 -14.908  0.00  0.00    +0.144 HD
ENDBRANCH  26  29
ENDBRANCH  25  26
ENDBRANCH   2  25
TORSDOF 7
ENDMDL
MODEL 6
REMARK VINA RESULT:     -11.3      1.680      2.653
REMARK  Name = 11633167
REMARK  7 active torsions:
REMARK  status: ('A' for Active; 'I' for Inactive)
REMARK    1  A    between atoms: C_1  and  C_8
REMARK    2  A    between atoms: C_2  and  C_25
REMARK    3  A    between atoms: C_4  and  O_17
REMARK    4  A    between atoms: O_17  and  C_18
REMARK    5  A    between atoms: C_18  and  C_20
REMARK    6  A    between atoms: C_25  and  N_26
REMARK    7  A    between atoms: N_26  and  C_29
REMARK                            x       y       z     vdW  Elec       q    Type
REMARK                         _______ _______ _______ _____ _____    ______ ____
ROOT
ATOM      1  C   UNL     1      35.666 -21.303 -18.598  0.00  0.00    -0.000 C 
ATOM      2  C   UNL     1      34.434 -22.861 -17.225  0.00  0.00    +0.031 C 
ATOM      3  C   UNL     1      34.502 -22.025 -18.340  0.00  0.00    +0.000 C 
ATOM      4  C   UNL     1      35.529 -22.973 -16.369  0.00  0.00    +0.137 C 
ATOM      5  C   UNL     1      36.762 -21.415 -17.744  0.00  0.00    +0.003 C 
ATOM      6  C   UNL     1      36.694 -22.251 -16.629  0.00  0.00    +0.037 C 
ENDROOT
BRANCH   1   8
ATOM      7  N   UNL     1      33.923 -19.357 -22.822  0.00  0.00    -0.312 N 
ATOM      8  C   UNL     1      35.738 -20.436 -19.755  0.00  0.00    +0.001 C 
ATOM      9  C   UNL     1      34.791 -19.574 -21.776  0.00  0.00    +0.048 C 
ATOM     10  C   UNL     1      35.899 -18.748 -21.985  0.00  0.00    +0.015 C 
ATOM     11  C   UNL     1      34.682 -20.427 -20.672  0.00  0.00    +0.015 C 
ATOM     12  C   UNL     1      36.855 -19.624 -19.938  0.00  0.00    +0.000 C 
ATOM     13  C   UNL     1      36.951 -18.776 -21.047  0.00  0.00    +0.001 C 
ATOM     14  C   UNL     1      35.664 -18.030 -23.190  0.00  0.00    +0.017 C 
ATOM     15  C   UNL     1      34.442 -18.427 -23.682  0.00  0.00    +0.062 C 
ATOM     16  H   UNL     1      33.054 -19.807 -22.935  0.00  0.00    +0.152 HD
ENDBRANCH   1   8
BRANCH   4  17
ATOM     17  O   UNL     1      35.480 -23.784 -15.276  0.00  0.00    -0.469 OA
BRANCH  17  18
ATOM     18  C   UNL     1      36.724 -24.236 -14.747  0.00  0.00    +0.251 C 
BRANCH  18  20
ATOM     19  N   UNL     1      37.969 -23.741 -12.730  0.00  0.00    -0.244 NA
ATOM     20  C   UNL     1      36.755 -23.970 -13.271  0.00  0.00    +0.103 C 
ATOM     21  C   UNL     1      35.569 -23.974 -12.563  0.00  0.00    +0.018 C 
ATOM     22  C   UNL     1      35.633 -23.724 -11.197  0.00  0.00    +0.003 C 
ATOM     23  C   UNL     1      37.991 -23.502 -11.400  0.00  0.00    +0.099 C 
ATOM     24  C   UNL     1      36.863 -23.482 -10.596  0.00  0.00    +0.021 C 
ENDBRANCH  18  20
ENDBRANCH  17  18
ENDBRANCH   4  17
BRANCH   2  25
ATOM     25  C   UNL     1      33.180 -23.627 -16.962  0.00  0.00    +0.117 C 
BRANCH  25  26
ATOM     26  N   UNL     1      32.541 -23.234 -15.705  0.00  0.00    -0.327 N 
ATOM     27  H   UNL     1      32.977 -22.547 -15.151  0.00  0.00    +0.147 HD
BRANCH  26  29
ATOM     28  N   UNL     1      30.148 -25.307 -13.783  0.00  0.00    -0.228 NA
ATOM     29  C   UNL     1      31.360 -23.780 -15.261  0.00  0.00    +0.077 C 
ATOM     30  C   UNL     1      31.288 -24.747 -14.246  0.00  0.00    +0.139 C 
ATOM     31  C   UNL     1      30.128 -23.388 -15.816  0.00  0.00    +0.019 C 
ATOM     32  C   UNL     1      28.934 -23.941 -15.365  0.00  0.00    +0.022 C 
ATOM     33  C   UNL     1      28.998 -24.888 -14.356  0.00  0.00    +0.100 C 
ATOM     34  N   UNL     1      32.511 -25.166 -13.665  0.00  0.00    -0.342 N 
ATOM     35  H   UNL     1      32.510 -25.842 -12.949  0.00  0.00    +0.144 HD
ATOM     36  H   UNL     1      33.363 -24.781 -13.976  0.00  0.00    +0.144 HD
ENDBRANCH  26  29
ENDBRANCH  25  26
ENDBRANCH   2  25
TORSDOF 7
ENDMDL
MODEL 7
REMARK VINA RESULT:     -11.0      6.990     14.039
REMARK  Name = 11633167
REMARK  7 active torsions:
REMARK  status: ('A' for Active; 'I' for Inactive)
REMARK    1  A    between atoms: C_1  and  C_8
REMARK    2  A    between atoms: C_2  and  C_25
REMARK    3  A    between atoms: C_4  and  O_17
REMARK    4  A    between atoms: O_17  and  C_18
REMARK    5  A    between atoms: C_18  and  C_20
REMARK    6  A    between atoms: C_25  and  N_26
REMARK    7  A    between atoms: N_26  and  C_29
REMARK                            x       y       z     vdW  Elec       q    Type
REMARK                         _______ _______ _______ _____ _____    ______ ____
ROOT
ATOM      1  C   UNL     1      33.521 -13.779 -22.368  0.00  0.00    -0.000 C 
ATOM      2  C   UNL     1      33.260 -11.487 -23.083  0.00  0.00    +0.031 C 
ATOM      3  C   UNL     1      33.894 -12.724 -23.201  0.00  0.00    +0.000 C 
ATOM      4  C   UNL     1      32.255 -11.306 -22.134  0.00  0.00    +0.137 C 
ATOM      5  C   UNL     1      32.516 -13.599 -21.419  0.00  0.00    +0.003 C 
ATOM      6  C   UNL     1      31.882 -12.361 -21.302  0.00  0.00    +0.037 C 
ENDROOT
BRANCH   1   8
ATOM      7  N   UNL     1      35.846 -17.781 -20.567  0.00  0.00    -0.312 N 
ATOM      8  C   UNL     1      34.179 -15.063 -22.489  0.00  0.00    +0.001 C 
ATOM      9  C   UNL     1      35.287 -16.939 -21.501  0.00  0.00    +0.048 C 
ATOM     10  C   UNL     1      35.447 -17.547 -22.749  0.00  0.00    +0.015 C 
ATOM     11  C   UNL     1      34.658 -15.699 -21.340  0.00  0.00    +0.015 C 
ATOM     12  C   UNL     1      34.324 -15.645 -23.746  0.00  0.00    +0.000 C 
ATOM     13  C   UNL     1      34.956 -16.886 -23.893  0.00  0.00    +0.001 C 
ATOM     14  C   UNL     1      36.119 -18.781 -22.529  0.00  0.00    +0.017 C 
ATOM     15  C   UNL     1      36.352 -18.897 -21.178  0.00  0.00    +0.062 C 
ATOM     16  H   UNL     1      35.878 -17.606 -19.598  0.00  0.00    +0.152 HD
ENDBRANCH   1   8
BRANCH   4  17
ATOM     17  O   UNL     1      31.625 -10.105 -22.006  0.00  0.00    -0.469 OA
BRANCH  17  18
ATOM     18  C   UNL     1      31.491  -9.580 -20.687  0.00  0.00    +0.251 C 
BRANCH  18  20
ATOM     19  N   UNL     1      31.093  -7.310 -21.427  0.00  0.00    -0.244 NA
ATOM     20  C   UNL     1      31.874  -8.129 -20.695  0.00  0.00    +0.103 C 
ATOM     21  C   UNL     1      32.977  -7.722 -19.970  0.00  0.00    +0.018 C 
ATOM     22  C   UNL     1      33.304  -6.371 -19.999  0.00  0.00    +0.003 C 
ATOM     23  C   UNL     1      31.441  -6.004 -21.431  0.00  0.00    +0.099 C 
ATOM     24  C   UNL     1      32.527  -5.488 -20.741  0.00  0.00    +0.021 C 
ENDBRANCH  18  20
ENDBRANCH  17  18
ENDBRANCH   4  17
BRANCH   2  25
ATOM     25  C   UNL     1      33.671 -10.368 -23.982  0.00  0.00    +0.117 C 
BRANCH  25  26
ATOM     26  N   UNL     1      33.955  -9.138 -23.243  0.00  0.00    -0.327 N 
ATOM     27  H   UNL     1      34.131  -9.200 -22.276  0.00  0.00    +0.147 HD
BRANCH  26  29
ATOM     28  N   UNL     1      32.861  -6.078 -25.021  0.00  0.00    -0.228 NA
ATOM     29  C   UNL     1      33.988  -7.896 -23.835  0.00  0.00    +0.077 C 
ATOM     30  C   UNL     1      32.869  -7.294 -24.430  0.00  0.00    +0.139 C 
ATOM     31  C   UNL     1      35.177  -7.147 -23.877  0.00  0.00    +0.019 C 
ATOM     32  C   UNL     1      35.210  -5.892 -24.476  0.00  0.00    +0.022 C 
ATOM     33  C   UNL     1      34.035  -5.407 -25.029  0.00  0.00    +0.100 C 
ATOM     34  N   UNL     1      31.653  -8.022 -24.406  0.00  0.00    -0.342 N 
ATOM     35  H   UNL     1      30.842  -7.638 -24.811  0.00  0.00    +0.144 HD
ATOM     36  H   UNL     1      31.619  -8.911 -23.985  0.00  0.00    +0.144 HD
ENDBRANCH  26  29
ENDBRANCH  25  26
ENDBRANCH   2  25
TORSDOF 7
ENDMDL
MODEL 8
REMARK VINA RESULT:     -10.8      2.057      7.197
REMARK  Name = 11633167
REMARK  7 active torsions:
REMARK  status: ('A' for Active; 'I' for Inactive)
REMARK    1  A    between atoms: C_1  and  C_8
REMARK    2  A    between atoms: C_2  and  C_25
REMARK    3  A    between atoms: C_4  and  O_17
REMARK    4  A    between atoms: O_17  and  C_18
REMARK    5  A    between atoms: C_18  and  C_20
REMARK    6  A    between atoms: C_25  and  N_26
REMARK    7  A    between atoms: N_26  and  C_29
REMARK                            x       y       z     vdW  Elec       q    Type
REMARK                         _______ _______ _______ _____ _____    ______ ____
ROOT
ATOM      1  C   UNL     1      33.649 -23.255 -15.015  0.00  0.00    -0.000 C 
ATOM      2  C   UNL     1      35.672 -22.589 -16.155  0.00  0.00    +0.031 C 
ATOM      3  C   UNL     1      34.295 -22.817 -16.171  0.00  0.00    +0.000 C 
ATOM      4  C   UNL     1      36.400 -22.799 -14.985  0.00  0.00    +0.137 C 
ATOM      5  C   UNL     1      34.376 -23.464 -13.845  0.00  0.00    +0.003 C 
ATOM      6  C   UNL     1      35.752 -23.236 -13.829  0.00  0.00    +0.037 C 
ENDROOT
BRANCH   1   8
ATOM      7  N   UNL     1      29.048 -22.624 -16.774  0.00  0.00    -0.312 N 
ATOM      8  C   UNL     1      32.221 -23.492 -15.031  0.00  0.00    +0.001 C 
ATOM      9  C   UNL     1      30.054 -23.106 -15.968  0.00  0.00    +0.048 C 
ATOM     10  C   UNL     1      29.460 -23.967 -15.041  0.00  0.00    +0.015 C 
ATOM     11  C   UNL     1      31.429 -22.849 -15.987  0.00  0.00    +0.015 C 
ATOM     12  C   UNL     1      31.657 -24.355 -14.095  0.00  0.00    +0.000 C 
ATOM     13  C   UNL     1      30.279 -24.603 -14.087  0.00  0.00    +0.001 C 
ATOM     14  C   UNL     1      28.066 -23.985 -15.321  0.00  0.00    +0.017 C 
ATOM     15  C   UNL     1      27.842 -23.149 -16.391  0.00  0.00    +0.062 C 
ATOM     16  H   UNL     1      29.175 -21.993 -17.519  0.00  0.00    +0.152 HD
ENDBRANCH   1   8
BRANCH   4  17
ATOM     17  O   UNL     1      37.744 -22.582 -14.951  0.00  0.00    -0.469 OA
BRANCH  17  18
ATOM     18  C   UNL     1      38.589 -23.721 -15.093  0.00  0.00    +0.251 C 
BRANCH  18  20
ATOM     19  N   UNL     1      38.487 -24.378 -12.766  0.00  0.00    -0.244 NA
ATOM     20  C   UNL     1      38.232 -24.730 -14.042  0.00  0.00    +0.103 C 
ATOM     21  C   UNL     1      37.676 -25.934 -14.428  0.00  0.00    +0.018 C 
ATOM     22  C   UNL     1      37.358 -26.847 -13.429  0.00  0.00    +0.003 C 
ATOM     23  C   UNL     1      38.164 -25.290 -11.822  0.00  0.00    +0.099 C 
ATOM     24  C   UNL     1      37.602 -26.527 -12.098  0.00  0.00    +0.021 C 
ENDBRANCH  18  20
ENDBRANCH  17  18
ENDBRANCH   4  17
BRANCH   2  25
ATOM     25  C   UNL     1      36.348 -22.121 -17.400  0.00  0.00    +0.117 C 
BRANCH  25  26
ATOM     26  N   UNL     1      35.442 -22.095 -18.549  0.00  0.00    -0.327 N 
ATOM     27  H   UNL     1      34.853 -22.869 -18.701  0.00  0.00    +0.147 HD
BRANCH  26  29
ATOM     28  N   UNL     1      34.071 -19.556 -20.872  0.00  0.00    -0.228 NA
ATOM     29  C   UNL     1      35.374 -21.038 -19.427  0.00  0.00    +0.077 C 
ATOM     30  C   UNL     1      34.177 -20.589 -20.005  0.00  0.00    +0.139 C 
ATOM     31  C   UNL     1      36.534 -20.335 -19.802  0.00  0.00    +0.019 C 
ATOM     32  C   UNL     1      36.464 -19.267 -20.691  0.00  0.00    +0.022 C 
ATOM     33  C   UNL     1      35.219 -18.921 -21.193  0.00  0.00    +0.100 C 
ATOM     34  N   UNL     1      32.989 -21.276 -19.649  0.00  0.00    -0.342 N 
ATOM     35  H   UNL     1      32.126 -20.995 -20.030  0.00  0.00    +0.144 HD
ATOM     36  H   UNL     1      33.027 -22.033 -19.021  0.00  0.00    +0.144 HD
ENDBRANCH  26  29
ENDBRANCH  25  26
ENDBRANCH   2  25
TORSDOF 7
ENDMDL
MODEL 9
REMARK VINA RESULT:     -10.5      1.919      3.243
REMARK  Name = 11633167
REMARK  7 active torsions:
REMARK  status: ('A' for Active; 'I' for Inactive)
REMARK    1  A    between atoms: C_1  and  C_8
REMARK    2  A    between atoms: C_2  and  C_25
REMARK    3  A    between atoms: C_4  and  O_17
REMARK    4  A    between atoms: O_17  and  C_18
REMARK    5  A    between atoms: C_18  and  C_20
REMARK    6  A    between atoms: C_25  and  N_26
REMARK    7  A    between atoms: N_26  and  C_29
REMARK                            x       y       z     vdW  Elec       q    Type
REMARK                         _______ _______ _______ _____ _____    ______ ____
ROOT
ATOM      1  C   UNL     1      35.145 -22.012 -17.718  0.00  0.00    -0.000 C 
ATOM      2  C   UNL     1      34.045 -23.597 -16.266  0.00  0.00    +0.031 C 
ATOM      3  C   UNL     1      34.031 -22.789 -17.404  0.00  0.00    +0.000 C 
ATOM      4  C   UNL     1      35.171 -23.626 -15.445  0.00  0.00    +0.137 C 
ATOM      5  C   UNL     1      36.271 -22.040 -16.898  0.00  0.00    +0.003 C 
ATOM      6  C   UNL     1      36.285 -22.849 -15.761  0.00  0.00    +0.037 C 
ENDROOT
BRANCH   1   8
ATOM      7  N   UNL     1      37.232 -18.983 -21.056  0.00  0.00    -0.312 N 
ATOM      8  C   UNL     1      35.131 -21.173 -18.899  0.00  0.00    +0.001 C 
ATOM      9  C   UNL     1      36.250 -19.726 -20.441  0.00  0.00    +0.048 C 
ATOM     10  C   UNL     1      35.080 -19.557 -21.186  0.00  0.00    +0.015 C 
ATOM     11  C   UNL     1      36.306 -20.527 -19.294  0.00  0.00    +0.015 C 
ATOM     12  C   UNL     1      33.950 -21.023 -19.622  0.00  0.00    +0.000 C 
ATOM     13  C   UNL     1      33.908 -20.219 -20.767  0.00  0.00    +0.001 C 
ATOM     14  C   UNL     1      35.395 -18.689 -22.268  0.00  0.00    +0.017 C 
ATOM     15  C   UNL     1      36.725 -18.352 -22.161  0.00  0.00    +0.062 C 
ATOM     16  H   UNL     1      38.164 -18.915 -20.746  0.00  0.00    +0.152 HD
ENDBRANCH   1   8
BRANCH   4  17
ATOM     17  O   UNL     1      35.201 -24.409 -14.331  0.00  0.00    -0.469 OA
BRANCH  17  18
ATOM     18  C   UNL     1      35.794 -25.699 -14.460  0.00  0.00    +0.251 C 
BRANCH  18  20
ATOM     19  N   UNL     1      37.454 -24.950 -12.865  0.00  0.00    -0.244 NA
ATOM     20  C   UNL     1      37.222 -25.631 -14.006  0.00  0.00    +0.103 C 
ATOM     21  C   UNL     1      38.197 -26.253 -14.760  0.00  0.00    +0.018 C 
ATOM     22  C   UNL     1      39.510 -26.170 -14.311  0.00  0.00    +0.003 C 
ATOM     23  C   UNL     1      38.742 -24.891 -12.460  0.00  0.00    +0.099 C 
ATOM     24  C   UNL     1      39.797 -25.479 -13.139  0.00  0.00    +0.021 C 
ENDBRANCH  18  20
ENDBRANCH  17  18
ENDBRANCH   4  17
BRANCH   2  25
ATOM     25  C   UNL     1      32.844 -24.423 -15.943  0.00  0.00    +0.117 C 
BRANCH  25  26
ATOM     26  N   UNL     1      31.966 -23.772 -14.971  0.00  0.00    -0.327 N 
ATOM     27  H   UNL     1      32.364 -23.412 -14.145  0.00  0.00    +0.147 HD
BRANCH  26  29
ATOM     28  N   UNL     1      28.320 -24.350 -14.674  0.00  0.00    -0.228 NA
ATOM     29  C   UNL     1      30.610 -23.638 -15.155  0.00  0.00    +0.077 C 
ATOM     30  C   UNL     1      29.659 -24.450 -14.518  0.00  0.00    +0.139 C 
ATOM     31  C   UNL     1      30.091 -22.653 -16.015  0.00  0.00    +0.019 C 
ATOM     32  C   UNL     1      28.719 -22.518 -16.201  0.00  0.00    +0.022 C 
ATOM     33  C   UNL     1      27.884 -23.384 -15.513  0.00  0.00    +0.100 C 
ATOM     34  N   UNL     1      30.147 -25.454 -13.644  0.00  0.00    -0.342 N 
ATOM     35  H   UNL     1      29.517 -26.047 -13.176  0.00  0.00    +0.144 HD
ATOM     36  H   UNL     1      31.117 -25.558 -13.506  0.00  0.00    +0.144 HD
ENDBRANCH  26  29
ENDBRANCH  25  26
ENDBRANCH   2  25
TORSDOF 7
ENDMDL
