MODEL 1
REMARK VINA RESULT:     -11.2      0.000      0.000
REMARK  Name = 5472495
REMARK  6 active torsions:
REMARK  status: ('A' for Active; 'I' for Inactive)
REMARK    1  A    between atoms: C_2  and  C_23
REMARK    2  A    between atoms: C_3  and  C_7
REMARK    3  A    between atoms: C_7  and  C_13
REMARK    4  A    between atoms: C_16  and  S_19
REMARK    5  A    between atoms: C_23  and  C_25
REMARK    6  A    between atoms: C_25  and  O_26
REMARK                            x       y       z     vdW  Elec       q    Type
REMARK                         _______ _______ _______ _____ _____    ______ ____
ROOT
ATOM      1  F   UNL     1      37.352 -23.209 -12.474  0.00  0.00    -0.204 F 
ATOM      2  C   UNL     1      32.868 -23.132 -14.572  0.00  0.00    -0.030 C 
ATOM      3  C   UNL     1      33.761 -23.114 -16.686  0.00  0.00    -0.036 C 
ATOM      4  C   UNL     1      32.539 -23.112 -15.882  0.00  0.00    +0.037 C 
ATOM      5  C   UNL     1      34.339 -23.150 -14.476  0.00  0.00    -0.005 C 
ATOM      6  C   UNL     1      34.899 -23.138 -15.765  0.00  0.00    -0.008 C 
ATOM      7  C   UNL     1      35.155 -23.174 -13.355  0.00  0.00    +0.029 C 
ATOM      8  C   UNL     1      36.270 -23.151 -15.958  0.00  0.00    +0.002 C 
ATOM      9  C   UNL     1      31.180 -23.088 -16.493  0.00  0.00    +0.009 C 
ATOM     10  C   UNL     1      36.541 -23.186 -13.541  0.00  0.00    +0.140 C 
ATOM     11  C   UNL     1      37.093 -23.174 -14.831  0.00  0.00    +0.030 C 
ENDROOT
BRANCH   3  12
ATOM     12  C   UNL     1      33.854 -23.096 -18.021  0.00  0.00    +0.049 C 
BRANCH  12  13
ATOM     13  C   UNL     1      34.328 -21.965 -18.835  0.00  0.00    -0.018 C 
ATOM     14  C   UNL     1      35.688 -21.712 -18.921  0.00  0.00    -0.003 C 
ATOM     15  C   UNL     1      33.406 -21.172 -19.502  0.00  0.00    -0.003 C 
ATOM     16  C   UNL     1      35.222 -19.836 -20.370  0.00  0.00    +0.106 C 
ATOM     17  C   UNL     1      36.138 -20.641 -19.694  0.00  0.00    +0.018 C 
ATOM     18  C   UNL     1      33.856 -20.102 -20.275  0.00  0.00    +0.018 C 
BRANCH  16  19
ATOM     19  S   UNL     1      35.786 -18.496 -21.336  0.00  0.00    +0.010 S 
ATOM     20  O   UNL     1      35.301 -17.267 -20.724  0.00  0.00    -0.169 OA
ATOM     21  O   UNL     1      37.210 -18.663 -21.592  0.00  0.00    -0.169 OA
ATOM     22  C   UNL     1      34.954 -18.695 -22.896  0.00  0.00    +0.182 C 
ENDBRANCH  16  19
ENDBRANCH  12  13
ENDBRANCH   3  12
BRANCH   2  23
ATOM     23  C   UNL     1      32.003 -23.138 -13.364  0.00  0.00    +0.132 C 
BRANCH  23  25
ATOM     24  O   UNL     1      30.205 -24.793 -13.364  0.00  0.00    -0.250 OA
ATOM     25  C   UNL     1      31.374 -24.496 -13.169  0.00  0.00    +0.318 C 
BRANCH  25  26
ATOM     26  O   UNL     1      32.310 -25.379 -12.730  0.00  0.00    -0.480 OA
ATOM     27  H   UNL     1      32.045 -26.210 -12.387  0.00  0.00    +0.295 HD
ENDBRANCH  25  26
ENDBRANCH  23  25
ENDBRANCH   2  23
TORSDOF 6
ENDMDL
MODEL 2
REMARK VINA RESULT:     -10.8      1.914      3.465
REMARK  Name = 5472495
REMARK  6 active torsions:
REMARK  status: ('A' for Active; 'I' for Inactive)
REMARK    1  A    between atoms: C_2  and  C_23
REMARK    2  A    between atoms: C_3  and  C_7
REMARK    3  A    between atoms: C_7  and  C_13
REMARK    4  A    between atoms: C_16  and  S_19
REMARK    5  A    between atoms: C_23  and  C_25
REMARK    6  A    between atoms: C_25  and  O_26
REMARK                            x       y       z     vdW  Elec       q    Type
REMARK                         _______ _______ _______ _____ _____    ______ ____
ROOT
ATOM      1  F   UNL     1      29.692 -23.158 -13.299  0.00  0.00    -0.204 F 
ATOM      2  C   UNL     1      34.493 -23.148 -14.505  0.00  0.00    -0.030 C 
ATOM      3  C   UNL     1      34.019 -23.125 -16.750  0.00  0.00    -0.036 C 
ATOM      4  C   UNL     1      35.065 -23.136 -15.728  0.00  0.00    +0.037 C 
ATOM      5  C   UNL     1      33.031 -23.145 -14.691  0.00  0.00    -0.005 C 
ATOM      6  C   UNL     1      32.727 -23.132 -16.062  0.00  0.00    -0.008 C 
ATOM      7  C   UNL     1      32.016 -23.154 -13.745  0.00  0.00    +0.029 C 
ATOM      8  C   UNL     1      31.417 -23.127 -16.513  0.00  0.00    +0.002 C 
ATOM      9  C   UNL     1      36.517 -23.133 -16.070  0.00  0.00    +0.009 C 
ATOM     10  C   UNL     1      30.691 -23.150 -14.191  0.00  0.00    +0.140 C 
ATOM     11  C   UNL     1      30.394 -23.136 -15.563  0.00  0.00    +0.030 C 
ENDROOT
BRANCH   3  12
ATOM     12  C   UNL     1      34.182 -23.113 -18.079  0.00  0.00    +0.049 C 
BRANCH  12  13
ATOM     13  C   UNL     1      34.573 -21.947 -18.887  0.00  0.00    -0.018 C 
ATOM     14  C   UNL     1      33.592 -21.201 -19.522  0.00  0.00    -0.003 C 
ATOM     15  C   UNL     1      35.914 -21.614 -18.999  0.00  0.00    -0.003 C 
ATOM     16  C   UNL     1      35.308 -19.748 -20.407  0.00  0.00    +0.106 C 
ATOM     17  C   UNL     1      33.962 -20.094 -20.286  0.00  0.00    +0.018 C 
ATOM     18  C   UNL     1      36.284 -20.508 -19.763  0.00  0.00    +0.018 C 
BRANCH  16  19
ATOM     19  S   UNL     1      35.769 -18.363 -21.364  0.00  0.00    +0.010 S 
ATOM     20  O   UNL     1      35.261 -17.170 -20.701  0.00  0.00    -0.169 OA
ATOM     21  O   UNL     1      37.186 -18.462 -21.687  0.00  0.00    -0.169 OA
ATOM     22  C   UNL     1      34.876 -18.562 -22.889  0.00  0.00    +0.182 C 
ENDBRANCH  16  19
ENDBRANCH  12  13
ENDBRANCH   3  12
BRANCH   2  23
ATOM     23  C   UNL     1      35.112 -23.162 -13.154  0.00  0.00    +0.132 C 
BRANCH  23  25
ATOM     24  O   UNL     1      36.344 -25.272 -13.195  0.00  0.00    -0.250 OA
ATOM     25  C   UNL     1      35.451 -24.573 -12.741  0.00  0.00    +0.318 C 
BRANCH  25  26
ATOM     26  O   UNL     1      34.599 -24.984 -11.764  0.00  0.00    -0.480 OA
ATOM     27  H   UNL     1      34.926 -25.464 -11.029  0.00  0.00    +0.295 HD
ENDBRANCH  25  26
ENDBRANCH  23  25
ENDBRANCH   2  23
TORSDOF 6
ENDMDL
MODEL 3
REMARK VINA RESULT:      -9.5      5.117      9.912
REMARK  Name = 5472495
REMARK  6 active torsions:
REMARK  status: ('A' for Active; 'I' for Inactive)
REMARK    1  A    between atoms: C_2  and  C_23
REMARK    2  A    between atoms: C_3  and  C_7
REMARK    3  A    between atoms: C_7  and  C_13
REMARK    4  A    between atoms: C_16  and  S_19
REMARK    5  A    between atoms: C_23  and  C_25
REMARK    6  A    between atoms: C_25  and  O_26
REMARK                            x       y       z     vdW  Elec       q    Type
REMARK                         _______ _______ _______ _____ _____    ______ ____
ROOT
ATOM      1  F   UNL     1      32.702 -14.135 -26.218  0.00  0.00    -0.204 F 
ATOM      2  C   UNL     1      34.147 -14.613 -21.507  0.00  0.00    -0.030 C 
ATOM      3  C   UNL     1      35.150 -16.634 -21.928  0.00  0.00    -0.036 C 
ATOM      4  C   UNL     1      34.843 -15.614 -20.926  0.00  0.00    +0.037 C 
ATOM      5  C   UNL     1      33.975 -14.951 -22.932  0.00  0.00    -0.005 C 
ATOM      6  C   UNL     1      34.585 -16.188 -23.203  0.00  0.00    -0.008 C 
ATOM      7  C   UNL     1      33.335 -14.246 -23.941  0.00  0.00    +0.029 C 
ATOM      8  C   UNL     1      34.568 -16.740 -24.473  0.00  0.00    +0.002 C 
ATOM      9  C   UNL     1      35.268 -15.739 -19.502  0.00  0.00    +0.009 C 
ATOM     10  C   UNL     1      33.313 -14.796 -25.226  0.00  0.00    +0.140 C 
ATOM     11  C   UNL     1      33.924 -16.032 -25.490  0.00  0.00    +0.030 C 
ENDROOT
BRANCH   3  12
ATOM     12  C   UNL     1      35.822 -17.777 -21.744  0.00  0.00    +0.049 C 
BRANCH  12  13
ATOM     13  C   UNL     1      35.349 -18.937 -20.971  0.00  0.00    -0.018 C 
ATOM     14  C   UNL     1      33.998 -19.243 -20.962  0.00  0.00    -0.003 C 
ATOM     15  C   UNL     1      36.265 -19.705 -20.267  0.00  0.00    -0.003 C 
ATOM     16  C   UNL     1      34.460 -21.124 -19.519  0.00  0.00    +0.106 C 
ATOM     17  C   UNL     1      33.550 -20.344 -20.231  0.00  0.00    +0.018 C 
ATOM     18  C   UNL     1      35.817 -20.805 -19.537  0.00  0.00    +0.018 C 
BRANCH  16  19
ATOM     19  S   UNL     1      33.898 -22.501 -18.604  0.00  0.00    +0.010 S 
ATOM     20  O   UNL     1      32.552 -22.207 -18.131  0.00  0.00    -0.169 OA
ATOM     21  O   UNL     1      34.144 -23.713 -19.374  0.00  0.00    -0.169 OA
ATOM     22  C   UNL     1      34.973 -22.561 -17.189  0.00  0.00    +0.182 C 
ENDBRANCH  16  19
ENDBRANCH  12  13
ENDBRANCH   3  12
BRANCH   2  23
ATOM     23  C   UNL     1      33.603 -13.358 -20.928  0.00  0.00    +0.132 C 
BRANCH  23  25
ATOM     24  O   UNL     1      31.943 -14.399 -19.467  0.00  0.00    -0.250 OA
ATOM     25  C   UNL     1      32.233 -13.595 -20.340  0.00  0.00    +0.318 C 
BRANCH  25  26
ATOM     26  O   UNL     1      31.329 -12.770 -20.932  0.00  0.00    -0.480 OA
ATOM     27  H   UNL     1      31.084 -12.909 -21.825  0.00  0.00    +0.295 HD
ENDBRANCH  25  26
ENDBRANCH  23  25
ENDBRANCH   2  23
TORSDOF 6
ENDMDL
MODEL 4
REMARK VINA RESULT:      -9.3      4.321      6.623
REMARK  Name = 5472495
REMARK  6 active torsions:
REMARK  status: ('A' for Active; 'I' for Inactive)
REMARK    1  A    between atoms: C_2  and  C_23
REMARK    2  A    between atoms: C_3  and  C_7
REMARK    3  A    between atoms: C_7  and  C_13
REMARK    4  A    between atoms: C_16  and  S_19
REMARK    5  A    between atoms: C_23  and  C_25
REMARK    6  A    between atoms: C_25  and  O_26
REMARK                            x       y       z     vdW  Elec       q    Type
REMARK                         _______ _______ _______ _____ _____    ______ ____
ROOT
ATOM      1  F   UNL     1      33.454 -21.739 -19.309  0.00  0.00    -0.204 F 
ATOM      2  C   UNL     1      31.491 -23.920 -15.321  0.00  0.00    -0.030 C 
ATOM      3  C   UNL     1      33.534 -24.059 -14.283  0.00  0.00    -0.036 C 
ATOM      4  C   UNL     1      32.102 -24.341 -14.192  0.00  0.00    +0.037 C 
ATOM      5  C   UNL     1      32.522 -23.338 -16.200  0.00  0.00    -0.005 C 
ATOM      6  C   UNL     1      33.778 -23.418 -15.577  0.00  0.00    -0.008 C 
ATOM      7  C   UNL     1      32.397 -22.774 -17.461  0.00  0.00    +0.029 C 
ATOM      8  C   UNL     1      34.923 -22.941 -16.193  0.00  0.00    +0.002 C 
ATOM      9  C   UNL     1      31.491 -24.997 -13.000  0.00  0.00    +0.009 C 
ATOM     10  C   UNL     1      33.547 -22.290 -18.091  0.00  0.00    +0.140 C 
ATOM     11  C   UNL     1      34.799 -22.373 -17.462  0.00  0.00    +0.030 C 
ENDROOT
BRANCH   3  12
ATOM     12  C   UNL     1      34.475 -24.328 -13.369  0.00  0.00    +0.049 C 
BRANCH  12  13
ATOM     13  C   UNL     1      35.889 -24.620 -13.651  0.00  0.00    -0.018 C 
ATOM     14  C   UNL     1      36.860 -23.703 -13.280  0.00  0.00    -0.003 C 
ATOM     15  C   UNL     1      36.227 -25.807 -14.282  0.00  0.00    -0.003 C 
ATOM     16  C   UNL     1      38.554 -25.171 -14.179  0.00  0.00    +0.106 C 
ATOM     17  C   UNL     1      38.201 -23.980 -13.546  0.00  0.00    +0.018 C 
ATOM     18  C   UNL     1      37.567 -26.085 -14.547  0.00  0.00    +0.018 C 
BRANCH  16  19
ATOM     19  S   UNL     1      40.233 -25.517 -14.512  0.00  0.00    +0.010 S 
ATOM     20  O   UNL     1      40.336 -25.947 -15.900  0.00  0.00    -0.169 OA
ATOM     21  O   UNL     1      41.048 -24.407 -14.037  0.00  0.00    -0.169 OA
ATOM     22  C   UNL     1      40.609 -26.914 -13.478  0.00  0.00    +0.182 C 
ENDBRANCH  16  19
ENDBRANCH  12  13
ENDBRANCH   3  12
BRANCH   2  23
ATOM     23  C   UNL     1      30.061 -23.975 -15.718  0.00  0.00    +0.132 C 
BRANCH  23  25
ATOM     24  O   UNL     1      29.313 -22.086 -14.360  0.00  0.00    -0.250 OA
ATOM     25  C   UNL     1      29.382 -22.657 -15.438  0.00  0.00    +0.318 C 
BRANCH  25  26
ATOM     26  O   UNL     1      28.832 -22.170 -16.582  0.00  0.00    -0.480 OA
ATOM     27  H   UNL     1      27.917 -22.283 -16.746  0.00  0.00    +0.295 HD
ENDBRANCH  25  26
ENDBRANCH  23  25
ENDBRANCH   2  23
TORSDOF 6
ENDMDL
MODEL 5
REMARK VINA RESULT:      -9.2      4.549      6.875
REMARK  Name = 5472495
REMARK  6 active torsions:
REMARK  status: ('A' for Active; 'I' for Inactive)
REMARK    1  A    between atoms: C_2  and  C_23
REMARK    2  A    between atoms: C_3  and  C_7
REMARK    3  A    between atoms: C_7  and  C_13
REMARK    4  A    between atoms: C_16  and  S_19
REMARK    5  A    between atoms: C_23  and  C_25
REMARK    6  A    between atoms: C_25  and  O_26
REMARK                            x       y       z     vdW  Elec       q    Type
REMARK                         _______ _______ _______ _____ _____    ______ ____
ROOT
ATOM      1  F   UNL     1      36.995 -22.042 -17.328  0.00  0.00    -0.204 F 
ATOM      2  C   UNL     1      36.562 -23.939 -12.775  0.00  0.00    -0.030 C 
ATOM      3  C   UNL     1      34.299 -24.236 -13.019  0.00  0.00    -0.036 C 
ATOM      4  C   UNL     1      35.458 -24.386 -12.139  0.00  0.00    +0.037 C 
ATOM      5  C   UNL     1      36.155 -23.475 -14.114  0.00  0.00    -0.005 C 
ATOM      6  C   UNL     1      34.770 -23.651 -14.276  0.00  0.00    -0.008 C 
ATOM      7  C   UNL     1      36.919 -22.933 -15.136  0.00  0.00    +0.029 C 
ATOM      8  C   UNL     1      34.127 -23.293 -15.449  0.00  0.00    +0.002 C 
ATOM      9  C   UNL     1      35.350 -24.955 -10.764  0.00  0.00    +0.009 C 
ATOM     10  C   UNL     1      36.279 -22.568 -16.324  0.00  0.00    +0.140 C 
ATOM     11  C   UNL     1      34.895 -22.747 -16.479  0.00  0.00    +0.030 C 
ENDROOT
BRANCH   3  12
ATOM     12  C   UNL     1      33.029 -24.563 -12.751  0.00  0.00    +0.049 C 
BRANCH  12  13
ATOM     13  C   UNL     1      31.861 -24.223 -13.580  0.00  0.00    -0.018 C 
ATOM     14  C   UNL     1      31.479 -22.897 -13.706  0.00  0.00    -0.003 C 
ATOM     15  C   UNL     1      31.164 -25.236 -14.221  0.00  0.00    -0.003 C 
ATOM     16  C   UNL     1      29.663 -23.584 -15.144  0.00  0.00    +0.106 C 
ATOM     17  C   UNL     1      30.373 -22.575 -14.494  0.00  0.00    +0.018 C 
ATOM     18  C   UNL     1      30.059 -24.914 -15.008  0.00  0.00    +0.018 C 
BRANCH  16  19
ATOM     19  S   UNL     1      28.279 -23.180 -16.128  0.00  0.00    +0.010 S 
ATOM     20  O   UNL     1      28.653 -22.070 -16.995  0.00  0.00    -0.169 OA
ATOM     21  O   UNL     1      27.740 -24.401 -16.711  0.00  0.00    -0.169 OA
ATOM     22  C   UNL     1      27.070 -22.583 -14.968  0.00  0.00    +0.182 C 
ENDBRANCH  16  19
ENDBRANCH  12  13
ENDBRANCH   3  12
BRANCH   2  23
ATOM     23  C   UNL     1      37.975 -23.874 -12.319  0.00  0.00    +0.132 C 
BRANCH  23  25
ATOM     24  O   UNL     1      38.563 -26.245 -12.416  0.00  0.00    -0.250 OA
ATOM     25  C   UNL     1      38.737 -25.092 -12.782  0.00  0.00    +0.318 C 
BRANCH  25  26
ATOM     26  O   UNL     1      39.680 -24.727 -13.691  0.00  0.00    -0.480 OA
ATOM     27  H   UNL     1      40.449 -24.271 -13.409  0.00  0.00    +0.295 HD
ENDBRANCH  25  26
ENDBRANCH  23  25
ENDBRANCH   2  23
TORSDOF 6
ENDMDL
MODEL 6
REMARK VINA RESULT:      -8.7      8.366     12.659
REMARK  Name = 5472495
REMARK  6 active torsions:
REMARK  status: ('A' for Active; 'I' for Inactive)
REMARK    1  A    between atoms: C_2  and  C_23
REMARK    2  A    between atoms: C_3  and  C_7
REMARK    3  A    between atoms: C_7  and  C_13
REMARK    4  A    between atoms: C_16  and  S_19
REMARK    5  A    between atoms: C_23  and  C_25
REMARK    6  A    between atoms: C_25  and  O_26
REMARK                            x       y       z     vdW  Elec       q    Type
REMARK                         _______ _______ _______ _____ _____    ______ ____
ROOT
ATOM      1  F   UNL     1      34.309  -6.285 -22.657  0.00  0.00    -0.204 F 
ATOM      2  C   UNL     1      32.063 -10.578 -21.639  0.00  0.00    -0.030 C 
ATOM      3  C   UNL     1      33.364 -11.717 -23.149  0.00  0.00    -0.036 C 
ATOM      4  C   UNL     1      32.289 -11.804 -22.161  0.00  0.00    +0.037 C 
ATOM      5  C   UNL     1      33.000  -9.636 -22.279  0.00  0.00    -0.005 C 
ATOM      6  C   UNL     1      33.802 -10.321 -23.207  0.00  0.00    -0.008 C 
ATOM      7  C   UNL     1      33.160  -8.273 -22.082  0.00  0.00    +0.029 C 
ATOM      8  C   UNL     1      34.770  -9.666 -23.950  0.00  0.00    +0.002 C 
ATOM      9  C   UNL     1      31.599 -13.086 -21.840  0.00  0.00    +0.009 C 
ATOM     10  C   UNL     1      34.134  -7.602 -22.828  0.00  0.00    +0.140 C 
ATOM     11  C   UNL     1      34.932  -8.293 -23.754  0.00  0.00    +0.030 C 
ENDROOT
BRANCH   3  12
ATOM     12  C   UNL     1      33.874 -12.714 -23.883  0.00  0.00    +0.049 C 
BRANCH  12  13
ATOM     13  C   UNL     1      34.271 -14.038 -23.378  0.00  0.00    -0.018 C 
ATOM     14  C   UNL     1      34.624 -14.179 -22.045  0.00  0.00    -0.003 C 
ATOM     15  C   UNL     1      34.286 -15.121 -24.244  0.00  0.00    -0.003 C 
ATOM     16  C   UNL     1      35.018 -16.532 -22.425  0.00  0.00    +0.106 C 
ATOM     17  C   UNL     1      34.999 -15.434 -21.565  0.00  0.00    +0.018 C 
ATOM     18  C   UNL     1      34.661 -16.375 -23.764  0.00  0.00    +0.018 C 
BRANCH  16  19
ATOM     19  S   UNL     1      35.488 -18.102 -21.824  0.00  0.00    +0.010 S 
ATOM     20  O   UNL     1      36.930 -18.229 -21.981  0.00  0.00    -0.169 OA
ATOM     21  O   UNL     1      34.883 -18.308 -20.515  0.00  0.00    -0.169 OA
ATOM     22  C   UNL     1      34.714 -19.252 -22.938  0.00  0.00    +0.182 C 
ENDBRANCH  16  19
ENDBRANCH  12  13
ENDBRANCH   3  12
BRANCH   2  23
ATOM     23  C   UNL     1      31.087 -10.136 -20.610  0.00  0.00    +0.132 C 
BRANCH  23  25
ATOM     24  O   UNL     1      31.980  -8.896 -18.703  0.00  0.00    -0.250 OA
ATOM     25  C   UNL     1      31.769  -9.954 -19.276  0.00  0.00    +0.318 C 
BRANCH  25  26
ATOM     26  O   UNL     1      32.134 -11.165 -18.777  0.00  0.00    -0.480 OA
ATOM     27  H   UNL     1      31.568 -11.615 -18.181  0.00  0.00    +0.295 HD
ENDBRANCH  25  26
ENDBRANCH  23  25
ENDBRANCH   2  23
TORSDOF 6
ENDMDL
MODEL 7
REMARK VINA RESULT:      -8.5     10.710     14.519
REMARK  Name = 5472495
REMARK  6 active torsions:
REMARK  status: ('A' for Active; 'I' for Inactive)
REMARK    1  A    between atoms: C_2  and  C_23
REMARK    2  A    between atoms: C_3  and  C_7
REMARK    3  A    between atoms: C_7  and  C_13
REMARK    4  A    between atoms: C_16  and  S_19
REMARK    5  A    between atoms: C_23  and  C_25
REMARK    6  A    between atoms: C_25  and  O_26
REMARK                            x       y       z     vdW  Elec       q    Type
REMARK                         _______ _______ _______ _____ _____    ______ ____
ROOT
ATOM      1  F   UNL     1      31.254 -10.419 -17.508  0.00  0.00    -0.204 F 
ATOM      2  C   UNL     1      32.645 -12.501 -21.779  0.00  0.00    -0.030 C 
ATOM      3  C   UNL     1      32.694 -10.472 -22.853  0.00  0.00    -0.036 C 
ATOM      4  C   UNL     1      32.896 -11.916 -22.971  0.00  0.00    +0.037 C 
ATOM      5  C   UNL     1      32.265 -11.440 -20.828  0.00  0.00    -0.005 C 
ATOM      6  C   UNL     1      32.291 -10.192 -21.473  0.00  0.00    -0.008 C 
ATOM      7  C   UNL     1      31.917 -11.532 -19.488  0.00  0.00    +0.029 C 
ATOM      8  C   UNL     1      31.972  -9.023 -20.802  0.00  0.00    +0.002 C 
ATOM      9  C   UNL     1      33.314 -12.563 -24.247  0.00  0.00    +0.009 C 
ATOM     10  C   UNL     1      31.594 -10.358 -18.802  0.00  0.00    +0.140 C 
ATOM     11  C   UNL     1      31.621  -9.115 -19.453  0.00  0.00    +0.030 C 
ENDROOT
BRANCH   3  12
ATOM     12  C   UNL     1      32.841  -9.551 -23.812  0.00  0.00    +0.049 C 
BRANCH  12  13
ATOM     13  C   UNL     1      32.428  -8.141 -23.722  0.00  0.00    -0.018 C 
ATOM     14  C   UNL     1      33.353  -7.185 -23.332  0.00  0.00    -0.003 C 
ATOM     15  C   UNL     1      31.121  -7.794 -24.028  0.00  0.00    -0.003 C 
ATOM     16  C   UNL     1      31.650  -5.486 -23.553  0.00  0.00    +0.106 C 
ATOM     17  C   UNL     1      32.961  -5.849 -23.247  0.00  0.00    +0.018 C 
ATOM     18  C   UNL     1      30.730  -6.458 -23.944  0.00  0.00    +0.018 C 
BRANCH  16  19
ATOM     19  S   UNL     1      31.162  -3.813 -23.447  0.00  0.00    +0.010 S 
ATOM     20  O   UNL     1      32.334  -2.986 -23.702  0.00  0.00    -0.169 OA
ATOM     21  O   UNL     1      29.956  -3.621 -24.241  0.00  0.00    -0.169 OA
ATOM     22  C   UNL     1      30.700  -3.595 -21.743  0.00  0.00    +0.182 C 
ENDBRANCH  16  19
ENDBRANCH  12  13
ENDBRANCH   3  12
BRANCH   2  23
ATOM     23  C   UNL     1      32.705 -13.930 -21.378  0.00  0.00    +0.132 C 
BRANCH  23  25
ATOM     24  O   UNL     1      34.834 -14.071 -20.186  0.00  0.00    -0.250 OA
ATOM     25  C   UNL     1      34.134 -14.355 -21.146  0.00  0.00    +0.318 C 
BRANCH  25  26
ATOM     26  O   UNL     1      34.561 -15.121 -22.186  0.00  0.00    -0.480 OA
ATOM     27  H   UNL     1      35.297 -14.848 -22.696  0.00  0.00    +0.295 HD
ENDBRANCH  25  26
ENDBRANCH  23  25
ENDBRANCH   2  23
TORSDOF 6
ENDMDL
