MODEL 1
REMARK VINA RESULT:     -12.4      0.000      0.000
REMARK  Name = 1712
REMARK  5 active torsions:
REMARK  status: ('A' for Active; 'I' for Inactive)
REMARK    1  A    between atoms: C_1  and  N_18
REMARK    2  A    between atoms: C_2  and  S_7
REMARK    3  A    between atoms: S_7  and  N_10
REMARK    4  A    between atoms: N_18  and  C_20
REMARK    5  A    between atoms: C_20  and  C_26
REMARK                            x       y       z     vdW  Elec       q    Type
REMARK                         _______ _______ _______ _____ _____    ______ ____
ROOT
ATOM      1  C   UNL     1      35.328 -19.845 -20.503  0.00  0.00    +0.045 C 
ATOM      2  C   UNL     1      34.384 -21.874 -18.796  0.00  0.00    +0.125 C 
ATOM      3  C   UNL     1      33.952 -20.123 -20.404  0.00  0.00    +0.016 C 
ATOM      4  C   UNL     1      36.220 -20.608 -19.727  0.00  0.00    +0.016 C 
ATOM      5  C   UNL     1      33.484 -21.128 -19.558  0.00  0.00    +0.021 C 
ATOM      6  C   UNL     1      35.752 -21.613 -18.881  0.00  0.00    +0.021 C 
ENDROOT
BRANCH   2   7
ATOM      7  S   UNL     1      33.799 -23.133 -17.738  0.00  0.00    +0.075 S 
ATOM      8  O   UNL     1      34.645 -23.145 -16.550  0.00  0.00    -0.150 OA
ATOM      9  O   UNL     1      33.654 -24.361 -18.510  0.00  0.00    -0.150 OA
BRANCH   7  10
ATOM     10  N   UNL     1      32.242 -22.553 -17.279  0.00  0.00    -0.199 N 
ATOM     11  H   UNL     1      31.742 -21.934 -17.858  0.00  0.00    +0.175 HD
ATOM     12  N   UNL     1      32.333 -22.566 -14.922  0.00  0.00    -0.228 NA
ATOM     13  C   UNL     1      31.696 -23.001 -16.027  0.00  0.00    +0.147 C 
ATOM     14  C   UNL     1      30.587 -23.824 -16.024  0.00  0.00    +0.036 C 
ATOM     15  C   UNL     1      30.093 -24.232 -14.790  0.00  0.00    +0.005 C 
ATOM     16  C   UNL     1      31.825 -22.983 -13.741  0.00  0.00    +0.100 C 
ATOM     17  C   UNL     1      30.718 -23.808 -13.623  0.00  0.00    +0.021 C 
ENDBRANCH   7  10
ENDBRANCH   2   7
BRANCH   1  18
ATOM     18  N   UNL     1      35.793 -18.845 -21.343  0.00  0.00    -0.328 N 
ATOM     19  H   UNL     1      36.444 -19.090 -22.040  0.00  0.00    +0.147 HD
BRANCH  18  20
ATOM     20  C   UNL     1      35.380 -17.466 -21.255  0.00  0.00    +0.127 C 
BRANCH  20  26
ATOM     21  S   UNL     1      34.080 -14.127 -20.830  0.00  0.00    -0.104 S 
ATOM     22  O   UNL     1      35.494 -19.024 -23.745  0.00  0.00    -0.210 OA
ATOM     23  N   UNL     1      34.514 -17.243 -24.881  0.00  0.00    -0.333 NA
ATOM     24  N   UNL     1      33.035 -12.494 -22.554  0.00  0.00    -0.262 NA
ATOM     25  C   UNL     1      34.345 -15.880 -23.016  0.00  0.00    +0.033 C 
ATOM     26  C   UNL     1      34.905 -17.007 -22.582  0.00  0.00    +0.092 C 
ATOM     27  C   UNL     1      34.124 -16.087 -24.456  0.00  0.00    +0.142 C 
ATOM     28  C   UNL     1      33.960 -14.659 -22.442  0.00  0.00    +0.114 C 
ATOM     29  C   UNL     1      35.020 -17.897 -23.777  0.00  0.00    +0.202 C 
ATOM     30  C   UNL     1      33.380 -13.653 -23.200  0.00  0.00    +0.069 C 
ATOM     31  C   UNL     1      33.500 -14.983 -25.234  0.00  0.00    +0.034 C 
ATOM     32  C   UNL     1      33.160 -13.843 -24.601  0.00  0.00    +0.018 C 
ATOM     33  C   UNL     1      33.361 -12.631 -21.286  0.00  0.00    +0.183 C 
ENDBRANCH  20  26
ENDBRANCH  18  20
ENDBRANCH   1  18
TORSDOF 5
ENDMDL
MODEL 2
REMARK VINA RESULT:     -12.2      3.824      6.841
REMARK  Name = 1712
REMARK  5 active torsions:
REMARK  status: ('A' for Active; 'I' for Inactive)
REMARK    1  A    between atoms: C_1  and  N_18
REMARK    2  A    between atoms: C_2  and  S_7
REMARK    3  A    between atoms: S_7  and  N_10
REMARK    4  A    between atoms: N_18  and  C_20
REMARK    5  A    between atoms: C_20  and  C_26
REMARK                            x       y       z     vdW  Elec       q    Type
REMARK                         _______ _______ _______ _____ _____    ______ ____
ROOT
ATOM      1  C   UNL     1      34.248 -13.836 -22.888  0.00  0.00    +0.045 C 
ATOM      2  C   UNL     1      34.938 -16.526 -22.439  0.00  0.00    +0.125 C 
ATOM      3  C   UNL     1      34.601 -14.284 -21.603  0.00  0.00    +0.016 C 
ATOM      4  C   UNL     1      34.248 -14.766 -23.944  0.00  0.00    +0.016 C 
ATOM      5  C   UNL     1      34.943 -15.618 -21.380  0.00  0.00    +0.021 C 
ATOM      6  C   UNL     1      34.590 -16.100 -23.721  0.00  0.00    +0.021 C 
ENDROOT
BRANCH   2   7
ATOM      7  S   UNL     1      35.364 -18.196 -22.160  0.00  0.00    +0.075 S 
ATOM      8  O   UNL     1      36.818 -18.274 -22.065  0.00  0.00    -0.150 OA
ATOM      9  O   UNL     1      34.679 -19.023 -23.145  0.00  0.00    -0.150 OA
BRANCH   7  10
ATOM     10  N   UNL     1      34.710 -18.501 -20.595  0.00  0.00    -0.199 N 
ATOM     11  H   UNL     1      34.335 -17.771 -20.052  0.00  0.00    +0.175 HD
ATOM     12  N   UNL     1      35.947 -20.364 -19.845  0.00  0.00    -0.228 NA
ATOM     13  C   UNL     1      34.729 -19.853 -20.107  0.00  0.00    +0.147 C 
ATOM     14  C   UNL     1      33.537 -20.531 -19.938  0.00  0.00    +0.036 C 
ATOM     15  C   UNL     1      33.602 -21.837 -19.463  0.00  0.00    +0.005 C 
ATOM     16  C   UNL     1      35.972 -21.635 -19.386  0.00  0.00    +0.100 C 
ATOM     17  C   UNL     1      34.839 -22.406 -19.179  0.00  0.00    +0.021 C 
ENDBRANCH   7  10
ENDBRANCH   2   7
BRANCH   1  18
ATOM     18  N   UNL     1      33.910 -12.509 -23.110  0.00  0.00    -0.328 N 
ATOM     19  H   UNL     1      34.638 -11.863 -23.259  0.00  0.00    +0.147 HD
BRANCH  18  20
ATOM     20  C   UNL     1      32.553 -12.021 -23.134  0.00  0.00    +0.127 C 
BRANCH  20  26
ATOM     21  S   UNL     1      33.117  -8.499 -23.676  0.00  0.00    -0.104 S 
ATOM     22  O   UNL     1      31.671 -13.317 -20.647  0.00  0.00    -0.210 OA
ATOM     23  N   UNL     1      31.600 -11.233 -19.610  0.00  0.00    -0.333 NA
ATOM     24  N   UNL     1      32.868  -6.485 -22.060  0.00  0.00    -0.262 NA
ATOM     25  C   UNL     1      32.288 -10.051 -21.480  0.00  0.00    +0.033 C 
ATOM     26  C   UNL     1      32.255 -11.327 -21.859  0.00  0.00    +0.092 C 
ATOM     27  C   UNL     1      31.870 -10.056 -20.069  0.00  0.00    +0.142 C 
ATOM     28  C   UNL     1      32.608  -8.826 -22.086  0.00  0.00    +0.114 C 
ATOM     29  C   UNL     1      31.812 -12.102 -20.660  0.00  0.00    +0.202 C 
ATOM     30  C   UNL     1      32.537  -7.632 -21.386  0.00  0.00    +0.069 C 
ATOM     31  C   UNL     1      31.807  -8.753 -19.353  0.00  0.00    +0.034 C 
ATOM     32  C   UNL     1      32.132  -7.623 -20.013  0.00  0.00    +0.018 C 
ATOM     33  C   UNL     1      33.195  -6.823 -23.290  0.00  0.00    +0.183 C 
ENDBRANCH  20  26
ENDBRANCH  18  20
ENDBRANCH   1  18
TORSDOF 5
ENDMDL
MODEL 3
REMARK VINA RESULT:     -11.9      1.924      2.393
REMARK  Name = 1712
REMARK  5 active torsions:
REMARK  status: ('A' for Active; 'I' for Inactive)
REMARK    1  A    between atoms: C_1  and  N_18
REMARK    2  A    between atoms: C_2  and  S_7
REMARK    3  A    between atoms: S_7  and  N_10
REMARK    4  A    between atoms: N_18  and  C_20
REMARK    5  A    between atoms: C_20  and  C_26
REMARK                            x       y       z     vdW  Elec       q    Type
REMARK                         _______ _______ _______ _____ _____    ______ ____
ROOT
ATOM      1  C   UNL     1      35.148 -20.184 -20.395  0.00  0.00    +0.045 C 
ATOM      2  C   UNL     1      34.026 -21.920 -18.486  0.00  0.00    +0.125 C 
ATOM      3  C   UNL     1      35.968 -20.942 -19.540  0.00  0.00    +0.016 C 
ATOM      4  C   UNL     1      33.753 -20.314 -20.271  0.00  0.00    +0.016 C 
ATOM      5  C   UNL     1      35.412 -21.803 -18.594  0.00  0.00    +0.021 C 
ATOM      6  C   UNL     1      33.196 -21.175 -19.325  0.00  0.00    +0.021 C 
ENDROOT
BRANCH   2   7
ATOM      7  S   UNL     1      33.330 -22.996 -17.301  0.00  0.00    +0.075 S 
ATOM      8  O   UNL     1      33.840 -24.337 -17.563  0.00  0.00    -0.150 OA
ATOM      9  O   UNL     1      31.888 -22.787 -17.271  0.00  0.00    -0.150 OA
BRANCH   7  10
ATOM     10  N   UNL     1      34.024 -22.440 -15.825  0.00  0.00    -0.199 N 
ATOM     11  H   UNL     1      33.897 -21.511 -15.525  0.00  0.00    +0.175 HD
ATOM     12  N   UNL     1      35.954 -23.776 -15.597  0.00  0.00    -0.228 NA
ATOM     13  C   UNL     1      34.793 -23.372 -15.046  0.00  0.00    +0.147 C 
ATOM     14  C   UNL     1      34.317 -23.787 -13.818  0.00  0.00    +0.036 C 
ATOM     15  C   UNL     1      35.093 -24.688 -13.098  0.00  0.00    +0.005 C 
ATOM     16  C   UNL     1      36.682 -24.653 -14.869  0.00  0.00    +0.100 C 
ATOM     17  C   UNL     1      36.300 -25.134 -13.627  0.00  0.00    +0.021 C 
ENDBRANCH   7  10
ENDBRANCH   2   7
BRANCH   1  18
ATOM     18  N   UNL     1      35.700 -19.329 -21.337  0.00  0.00    -0.328 N 
ATOM     19  H   UNL     1      36.241 -19.722 -22.060  0.00  0.00    +0.147 HD
BRANCH  18  20
ATOM     20  C   UNL     1      35.531 -17.897 -21.317  0.00  0.00    +0.127 C 
BRANCH  20  26
ATOM     21  S   UNL     1      34.622 -14.425 -20.947  0.00  0.00    -0.104 S 
ATOM     22  O   UNL     1      35.236 -19.564 -23.721  0.00  0.00    -0.210 OA
ATOM     23  N   UNL     1      34.328 -17.740 -24.850  0.00  0.00    -0.333 NA
ATOM     24  N   UNL     1      33.575 -12.767 -22.646  0.00  0.00    -0.262 NA
ATOM     25  C   UNL     1      34.486 -16.288 -23.052  0.00  0.00    +0.033 C 
ATOM     26  C   UNL     1      34.973 -17.448 -22.615  0.00  0.00    +0.092 C 
ATOM     27  C   UNL     1      34.101 -16.533 -24.451  0.00  0.00    +0.142 C 
ATOM     28  C   UNL     1      34.285 -15.010 -22.509  0.00  0.00    +0.114 C 
ATOM     29  C   UNL     1      34.876 -18.396 -23.766  0.00  0.00    +0.202 C 
ATOM     30  C   UNL     1      33.735 -13.983 -23.260  0.00  0.00    +0.069 C 
ATOM     31  C   UNL     1      33.514 -15.404 -25.223  0.00  0.00    +0.034 C 
ATOM     32  C   UNL     1      33.356 -14.208 -24.621  0.00  0.00    +0.018 C 
ATOM     33  C   UNL     1      34.013 -12.883 -21.410  0.00  0.00    +0.183 C 
ENDBRANCH  20  26
ENDBRANCH  18  20
ENDBRANCH   1  18
TORSDOF 5
ENDMDL
MODEL 4
REMARK VINA RESULT:     -11.7      3.801      6.867
REMARK  Name = 1712
REMARK  5 active torsions:
REMARK  status: ('A' for Active; 'I' for Inactive)
REMARK    1  A    between atoms: C_1  and  N_18
REMARK    2  A    between atoms: C_2  and  S_7
REMARK    3  A    between atoms: S_7  and  N_10
REMARK    4  A    between atoms: N_18  and  C_20
REMARK    5  A    between atoms: C_20  and  C_26
REMARK                            x       y       z     vdW  Elec       q    Type
REMARK                         _______ _______ _______ _____ _____    ______ ____
ROOT
ATOM      1  C   UNL     1      33.940 -13.981 -23.053  0.00  0.00    +0.045 C 
ATOM      2  C   UNL     1      34.882 -16.571 -22.483  0.00  0.00    +0.125 C 
ATOM      3  C   UNL     1      34.320 -14.339 -21.746  0.00  0.00    +0.016 C 
ATOM      4  C   UNL     1      34.042 -14.951 -24.067  0.00  0.00    +0.016 C 
ATOM      5  C   UNL     1      34.787 -15.622 -21.464  0.00  0.00    +0.021 C 
ATOM      6  C   UNL     1      34.510 -16.234 -23.784  0.00  0.00    +0.021 C 
ENDROOT
BRANCH   2   7
ATOM      7  S   UNL     1      35.466 -18.177 -22.129  0.00  0.00    +0.075 S 
ATOM      8  O   UNL     1      36.918 -18.107 -22.009  0.00  0.00    -0.150 OA
ATOM      9  O   UNL     1      34.885 -19.107 -23.089  0.00  0.00    -0.150 OA
BRANCH   7  10
ATOM     10  N   UNL     1      34.815 -18.484 -20.563  0.00  0.00    -0.199 N 
ATOM     11  H   UNL     1      34.476 -17.749 -20.003  0.00  0.00    +0.175 HD
ATOM     12  N   UNL     1      35.982 -20.409 -19.859  0.00  0.00    -0.228 NA
ATOM     13  C   UNL     1      34.783 -19.844 -20.099  0.00  0.00    +0.147 C 
ATOM     14  C   UNL     1      33.566 -20.476 -19.929  0.00  0.00    +0.036 C 
ATOM     15  C   UNL     1      33.582 -21.791 -19.478  0.00  0.00    +0.005 C 
ATOM     16  C   UNL     1      35.958 -21.689 -19.423  0.00  0.00    +0.100 C 
ATOM     17  C   UNL     1      34.797 -22.416 -19.218  0.00  0.00    +0.021 C 
ENDBRANCH   7  10
ENDBRANCH   2   7
BRANCH   1  18
ATOM     18  N   UNL     1      33.476 -12.705 -23.334  0.00  0.00    -0.328 N 
ATOM     19  H   UNL     1      34.021 -12.132 -23.921  0.00  0.00    +0.147 HD
BRANCH  18  20
ATOM     20  C   UNL     1      32.243 -12.167 -22.816  0.00  0.00    +0.127 C 
BRANCH  20  26
ATOM     21  S   UNL     1      31.897 -11.324 -19.325  0.00  0.00    -0.104 S 
ATOM     22  O   UNL     1      32.665 -10.312 -25.058  0.00  0.00    -0.210 OA
ATOM     23  N   UNL     1      32.640  -8.528 -23.561  0.00  0.00    -0.333 NA
ATOM     24  N   UNL     1      31.953  -9.019 -18.135  0.00  0.00    -0.262 NA
ATOM     25  C   UNL     1      32.305  -9.843 -21.683  0.00  0.00    +0.033 C 
ATOM     26  C   UNL     1      32.355 -10.693 -22.706  0.00  0.00    +0.092 C 
ATOM     27  C   UNL     1      32.489  -8.510 -22.278  0.00  0.00    +0.142 C 
ATOM     28  C   UNL     1      32.131  -9.945 -20.294  0.00  0.00    +0.114 C 
ATOM     29  C   UNL     1      32.570  -9.857 -23.927  0.00  0.00    +0.202 C 
ATOM     30  C   UNL     1      32.130  -8.823 -19.480  0.00  0.00    +0.069 C 
ATOM     31  C   UNL     1      32.482  -7.331 -21.370  0.00  0.00    +0.034 C 
ATOM     32  C   UNL     1      32.308  -7.521 -20.047  0.00  0.00    +0.018 C 
ATOM     33  C   UNL     1      31.817 -10.313 -17.933  0.00  0.00    +0.183 C 
ENDBRANCH  20  26
ENDBRANCH  18  20
ENDBRANCH   1  18
TORSDOF 5
ENDMDL
MODEL 5
REMARK VINA RESULT:     -11.2      2.950      9.631
REMARK  Name = 1712
REMARK  5 active torsions:
REMARK  status: ('A' for Active; 'I' for Inactive)
REMARK    1  A    between atoms: C_1  and  N_18
REMARK    2  A    between atoms: C_2  and  S_7
REMARK    3  A    between atoms: S_7  and  N_10
REMARK    4  A    between atoms: N_18  and  C_20
REMARK    5  A    between atoms: C_20  and  C_26
REMARK                            x       y       z     vdW  Elec       q    Type
REMARK                         _______ _______ _______ _____ _____    ______ ____
ROOT
ATOM      1  C   UNL     1      35.407 -17.097 -21.207  0.00  0.00    +0.045 C 
ATOM      2  C   UNL     1      34.243 -14.952 -22.607  0.00  0.00    +0.125 C 
ATOM      3  C   UNL     1      34.906 -15.976 -20.522  0.00  0.00    +0.016 C 
ATOM      4  C   UNL     1      35.313 -17.119 -22.611  0.00  0.00    +0.016 C 
ATOM      5  C   UNL     1      34.329 -14.913 -21.216  0.00  0.00    +0.021 C 
ATOM      6  C   UNL     1      34.735 -16.056 -23.305  0.00  0.00    +0.021 C 
ENDROOT
BRANCH   2   7
ATOM      7  S   UNL     1      33.522 -13.621 -23.476  0.00  0.00    +0.075 S 
ATOM      8  O   UNL     1      33.201 -14.088 -24.820  0.00  0.00    -0.150 OA
ATOM      9  O   UNL     1      34.375 -12.448 -23.325  0.00  0.00    -0.150 OA
BRANCH   7  10
ATOM     10  N   UNL     1      32.042 -13.370 -22.630  0.00  0.00    -0.199 N 
ATOM     11  H   UNL     1      31.309 -14.023 -22.687  0.00  0.00    +0.175 HD
ATOM     12  N   UNL     1      31.871 -11.019 -22.525  0.00  0.00    -0.228 NA
ATOM     13  C   UNL     1      31.910 -12.177 -21.837  0.00  0.00    +0.147 C 
ATOM     14  C   UNL     1      31.834 -12.280 -20.462  0.00  0.00    +0.036 C 
ATOM     15  C   UNL     1      31.707 -11.101 -19.735  0.00  0.00    +0.005 C 
ATOM     16  C   UNL     1      31.748  -9.894 -21.785  0.00  0.00    +0.100 C 
ATOM     17  C   UNL     1      31.662  -9.881 -20.402  0.00  0.00    +0.021 C 
ENDBRANCH   7  10
ENDBRANCH   2   7
BRANCH   1  18
ATOM     18  N   UNL     1      35.980 -18.155 -20.517  0.00  0.00    -0.328 N 
ATOM     19  H   UNL     1      36.425 -17.964 -19.660  0.00  0.00    +0.147 HD
BRANCH  18  20
ATOM     20  C   UNL     1      35.963 -19.520 -20.983  0.00  0.00    +0.127 C 
BRANCH  20  26
ATOM     21  S   UNL     1      37.210 -21.232 -18.062  0.00  0.00    -0.104 S 
ATOM     22  O   UNL     1      33.205 -19.521 -22.001  0.00  0.00    -0.210 OA
ATOM     23  N   UNL     1      32.575 -20.904 -20.236  0.00  0.00    -0.333 NA
ATOM     24  N   UNL     1      35.985 -22.738 -16.342  0.00  0.00    -0.262 NA
ATOM     25  C   UNL     1      34.691 -21.014 -19.299  0.00  0.00    +0.033 C 
ATOM     26  C   UNL     1      34.819 -20.237 -20.372  0.00  0.00    +0.092 C 
ATOM     27  C   UNL     1      33.271 -21.399 -19.267  0.00  0.00    +0.142 C 
ATOM     28  C   UNL     1      35.545 -21.494 -18.294  0.00  0.00    +0.114 C 
ATOM     29  C   UNL     1      33.459 -20.157 -20.988  0.00  0.00    +0.202 C 
ATOM     30  C   UNL     1      35.079 -22.317 -17.280  0.00  0.00    +0.069 C 
ATOM     31  C   UNL     1      32.811 -22.283 -18.162  0.00  0.00    +0.034 C 
ATOM     32  C   UNL     1      33.700 -22.699 -17.238  0.00  0.00    +0.018 C 
ATOM     33  C   UNL     1      37.155 -22.223 -16.656  0.00  0.00    +0.183 C 
ENDBRANCH  20  26
ENDBRANCH  18  20
ENDBRANCH   1  18
TORSDOF 5
ENDMDL
MODEL 6
REMARK VINA RESULT:     -11.2      2.475     10.352
REMARK  Name = 1712
REMARK  5 active torsions:
REMARK  status: ('A' for Active; 'I' for Inactive)
REMARK    1  A    between atoms: C_1  and  N_18
REMARK    2  A    between atoms: C_2  and  S_7
REMARK    3  A    between atoms: S_7  and  N_10
REMARK    4  A    between atoms: N_18  and  C_20
REMARK    5  A    between atoms: C_20  and  C_26
REMARK                            x       y       z     vdW  Elec       q    Type
REMARK                         _______ _______ _______ _____ _____    ______ ____
ROOT
ATOM      1  C   UNL     1      33.831 -21.802 -19.057  0.00  0.00    +0.045 C 
ATOM      2  C   UNL     1      35.364 -19.778 -20.269  0.00  0.00    +0.125 C 
ATOM      3  C   UNL     1      33.216 -20.788 -19.814  0.00  0.00    +0.016 C 
ATOM      4  C   UNL     1      35.231 -21.778 -18.920  0.00  0.00    +0.016 C 
ATOM      5  C   UNL     1      33.976 -19.785 -20.415  0.00  0.00    +0.021 C 
ATOM      6  C   UNL     1      35.991 -20.775 -19.521  0.00  0.00    +0.021 C 
ENDROOT
BRANCH   2   7
ATOM      7  S   UNL     1      36.314 -18.522 -21.020  0.00  0.00    +0.075 S 
ATOM      8  O   UNL     1      37.701 -18.703 -20.605  0.00  0.00    -0.150 OA
ATOM      9  O   UNL     1      35.670 -17.238 -20.774  0.00  0.00    -0.150 OA
BRANCH   7  10
ATOM     10  N   UNL     1      36.204 -18.910 -22.696  0.00  0.00    -0.199 N 
ATOM     11  H   UNL     1      36.798 -19.583 -23.100  0.00  0.00    +0.175 HD
ATOM     12  N   UNL     1      35.433 -16.903 -23.667  0.00  0.00    -0.228 NA
ATOM     13  C   UNL     1      35.220 -18.221 -23.486  0.00  0.00    +0.147 C 
ATOM     14  C   UNL     1      34.147 -18.924 -24.000  0.00  0.00    +0.036 C 
ATOM     15  C   UNL     1      33.220 -18.218 -24.758  0.00  0.00    +0.005 C 
ATOM     16  C   UNL     1      34.510 -16.250 -24.408  0.00  0.00    +0.100 C 
ATOM     17  C   UNL     1      33.398 -16.855 -24.971  0.00  0.00    +0.021 C 
ENDBRANCH   7  10
ENDBRANCH   2   7
BRANCH   1  18
ATOM     18  N   UNL     1      33.076 -22.800 -18.460  0.00  0.00    -0.328 N 
ATOM     19  H   UNL     1      32.121 -22.864 -18.695  0.00  0.00    +0.147 HD
BRANCH  18  20
ATOM     20  C   UNL     1      33.606 -23.750 -17.513  0.00  0.00    +0.127 C 
BRANCH  20  26
ATOM     21  S   UNL     1      36.000 -24.870 -15.057  0.00  0.00    -0.104 S 
ATOM     22  O   UNL     1      30.969 -22.553 -17.005  0.00  0.00    -0.210 OA
ATOM     23  N   UNL     1      31.344 -22.746 -14.715  0.00  0.00    -0.333 NA
ATOM     24  N   UNL     1      35.891 -24.847 -12.465  0.00  0.00    -0.262 NA
ATOM     25  C   UNL     1      33.443 -23.702 -14.932  0.00  0.00    +0.033 C 
ATOM     26  C   UNL     1      33.017 -23.495 -16.176  0.00  0.00    +0.092 C 
ATOM     27  C   UNL     1      32.357 -23.215 -14.065  0.00  0.00    +0.142 C 
ATOM     28  C   UNL     1      34.596 -24.235 -14.336  0.00  0.00    +0.114 C 
ATOM     29  C   UNL     1      31.661 -22.878 -16.051  0.00  0.00    +0.202 C 
ATOM     30  C   UNL     1      34.730 -24.310 -12.958  0.00  0.00    +0.069 C 
ATOM     31  C   UNL     1      32.540 -23.314 -12.592  0.00  0.00    +0.034 C 
ATOM     32  C   UNL     1      33.681 -23.841 -12.105  0.00  0.00    +0.018 C 
ATOM     33  C   UNL     1      36.645 -25.182 -13.491  0.00  0.00    +0.183 C 
ENDBRANCH  20  26
ENDBRANCH  18  20
ENDBRANCH   1  18
TORSDOF 5
ENDMDL
MODEL 7
REMARK VINA RESULT:     -11.1      2.380     10.372
REMARK  Name = 1712
REMARK  5 active torsions:
REMARK  status: ('A' for Active; 'I' for Inactive)
REMARK    1  A    between atoms: C_1  and  N_18
REMARK    2  A    between atoms: C_2  and  S_7
REMARK    3  A    between atoms: S_7  and  N_10
REMARK    4  A    between atoms: N_18  and  C_20
REMARK    5  A    between atoms: C_20  and  C_26
REMARK                            x       y       z     vdW  Elec       q    Type
REMARK                         _______ _______ _______ _____ _____    ______ ____
ROOT
ATOM      1  C   UNL     1      34.205 -21.711 -19.103  0.00  0.00    +0.045 C 
ATOM      2  C   UNL     1      35.586 -19.668 -20.458  0.00  0.00    +0.125 C 
ATOM      3  C   UNL     1      35.609 -21.634 -19.054  0.00  0.00    +0.016 C 
ATOM      4  C   UNL     1      33.509 -20.741 -19.848  0.00  0.00    +0.016 C 
ATOM      5  C   UNL     1      36.294 -20.621 -19.725  0.00  0.00    +0.021 C 
ATOM      6  C   UNL     1      34.194 -19.728 -20.519  0.00  0.00    +0.021 C 
ENDROOT
BRANCH   2   7
ATOM      7  S   UNL     1      36.443 -18.401 -21.298  0.00  0.00    +0.075 S 
ATOM      8  O   UNL     1      37.863 -18.548 -20.998  0.00  0.00    -0.150 OA
ATOM      9  O   UNL     1      35.793 -17.128 -21.012  0.00  0.00    -0.150 OA
BRANCH   7  10
ATOM     10  N   UNL     1      36.202 -18.811 -22.955  0.00  0.00    -0.199 N 
ATOM     11  H   UNL     1      36.757 -19.496 -23.393  0.00  0.00    +0.175 HD
ATOM     12  N   UNL     1      35.379 -16.809 -23.894  0.00  0.00    -0.228 NA
ATOM     13  C   UNL     1      35.167 -18.122 -23.679  0.00  0.00    +0.147 C 
ATOM     14  C   UNL     1      34.052 -18.820 -24.099  0.00  0.00    +0.036 C 
ATOM     15  C   UNL     1      33.077 -18.114 -24.795  0.00  0.00    +0.005 C 
ATOM     16  C   UNL     1      34.410 -16.156 -24.573  0.00  0.00    +0.100 C 
ATOM     17  C   UNL     1      33.252 -16.757 -25.041  0.00  0.00    +0.021 C 
ENDBRANCH   7  10
ENDBRANCH   2   7
BRANCH   1  18
ATOM     18  N   UNL     1      33.524 -22.717 -18.435  0.00  0.00    -0.328 N 
ATOM     19  H   UNL     1      33.782 -23.651 -18.616  0.00  0.00    +0.147 HD
BRANCH  18  20
ATOM     20  C   UNL     1      32.459 -22.477 -17.493  0.00  0.00    +0.127 C 
BRANCH  20  26
ATOM     21  S   UNL     1      29.279 -23.558 -16.177  0.00  0.00    -0.104 S 
ATOM     22  O   UNL     1      35.117 -22.954 -16.331  0.00  0.00    -0.210 OA
ATOM     23  N   UNL     1      34.120 -24.117 -14.577  0.00  0.00    -0.333 NA
ATOM     24  N   UNL     1      28.713 -24.916 -14.041  0.00  0.00    -0.262 NA
ATOM     25  C   UNL     1      31.954 -23.833 -15.350  0.00  0.00    +0.033 C 
ATOM     26  C   UNL     1      32.731 -23.220 -16.240  0.00  0.00    +0.092 C 
ATOM     27  C   UNL     1      32.876 -24.372 -14.337  0.00  0.00    +0.142 C 
ATOM     28  C   UNL     1      30.577 -24.049 -15.193  0.00  0.00    +0.114 C 
ATOM     29  C   UNL     1      34.134 -23.395 -15.753  0.00  0.00    +0.202 C 
ATOM     30  C   UNL     1      30.073 -24.755 -14.112  0.00  0.00    +0.069 C 
ATOM     31  C   UNL     1      32.296 -25.125 -13.193  0.00  0.00    +0.034 C 
ATOM     32  C   UNL     1      30.959 -25.284 -13.120  0.00  0.00    +0.018 C 
ATOM     33  C   UNL     1      28.184 -24.319 -15.088  0.00  0.00    +0.183 C 
ENDBRANCH  20  26
ENDBRANCH  18  20
ENDBRANCH   1  18
TORSDOF 5
ENDMDL
MODEL 8
REMARK VINA RESULT:     -10.9      2.797     10.279
REMARK  Name = 1712
REMARK  5 active torsions:
REMARK  status: ('A' for Active; 'I' for Inactive)
REMARK    1  A    between atoms: C_1  and  N_18
REMARK    2  A    between atoms: C_2  and  S_7
REMARK    3  A    between atoms: S_7  and  N_10
REMARK    4  A    between atoms: N_18  and  C_20
REMARK    5  A    between atoms: C_20  and  C_26
REMARK                            x       y       z     vdW  Elec       q    Type
REMARK                         _______ _______ _______ _____ _____    ______ ____
ROOT
ATOM      1  C   UNL     1      35.843 -21.033 -18.863  0.00  0.00    +0.045 C 
ATOM      2  C   UNL     1      35.243 -19.818 -21.329  0.00  0.00    +0.125 C 
ATOM      3  C   UNL     1      36.825 -20.319 -19.573  0.00  0.00    +0.016 C 
ATOM      4  C   UNL     1      34.553 -21.126 -19.418  0.00  0.00    +0.016 C 
ATOM      5  C   UNL     1      36.528 -19.716 -20.795  0.00  0.00    +0.021 C 
ATOM      6  C   UNL     1      34.256 -20.523 -20.640  0.00  0.00    +0.021 C 
ENDROOT
BRANCH   2   7
ATOM      7  S   UNL     1      34.872 -19.065 -22.859  0.00  0.00    +0.075 S 
ATOM      8  O   UNL     1      33.469 -18.665 -22.830  0.00  0.00    -0.150 OA
ATOM      9  O   UNL     1      35.331 -19.937 -23.933  0.00  0.00    -0.150 OA
BRANCH   7  10
ATOM     10  N   UNL     1      35.835 -17.636 -22.826  0.00  0.00    -0.199 N 
ATOM     11  H   UNL     1      36.734 -17.623 -23.226  0.00  0.00    +0.175 HD
ATOM     12  N   UNL     1      35.116 -16.545 -20.862  0.00  0.00    -0.228 NA
ATOM     13  C   UNL     1      35.287 -16.465 -22.196  0.00  0.00    +0.147 C 
ATOM     14  C   UNL     1      34.976 -15.362 -22.966  0.00  0.00    +0.036 C 
ATOM     15  C   UNL     1      34.448 -14.252 -22.315  0.00  0.00    +0.005 C 
ATOM     16  C   UNL     1      34.601 -15.447 -20.264  0.00  0.00    +0.100 C 
ATOM     17  C   UNL     1      34.255 -14.288 -20.939  0.00  0.00    +0.021 C 
ENDBRANCH   7  10
ENDBRANCH   2   7
BRANCH   1  18
ATOM     18  N   UNL     1      36.138 -21.632 -17.647  0.00  0.00    -0.328 N 
ATOM     19  H   UNL     1      36.934 -21.321 -17.158  0.00  0.00    +0.147 HD
BRANCH  18  20
ATOM     20  C   UNL     1      35.347 -22.684 -17.058  0.00  0.00    +0.127 C 
BRANCH  20  26
ATOM     21  S   UNL     1      32.504 -23.803 -15.140  0.00  0.00    -0.104 S 
ATOM     22  O   UNL     1      38.107 -22.337 -16.106  0.00  0.00    -0.210 OA
ATOM     23  N   UNL     1      37.443 -23.043 -13.988  0.00  0.00    -0.333 NA
ATOM     24  N   UNL     1      32.322 -24.502 -12.649  0.00  0.00    -0.262 NA
ATOM     25  C   UNL     1      35.224 -23.369 -14.567  0.00  0.00    +0.033 C 
ATOM     26  C   UNL     1      35.822 -22.945 -15.679  0.00  0.00    +0.092 C 
ATOM     27  C   UNL     1      36.285 -23.409 -13.548  0.00  0.00    +0.142 C 
ATOM     28  C   UNL     1      33.923 -23.746 -14.203  0.00  0.00    +0.114 C 
ATOM     29  C   UNL     1      37.257 -22.730 -15.319  0.00  0.00    +0.202 C 
ATOM     30  C   UNL     1      33.621 -24.152 -12.913  0.00  0.00    +0.069 C 
ATOM     31  C   UNL     1      35.920 -23.852 -12.176  0.00  0.00    +0.034 C 
ATOM     32  C   UNL     1      34.643 -24.196 -11.913  0.00  0.00    +0.018 C 
ATOM     33  C   UNL     1      31.633 -24.355 -13.761  0.00  0.00    +0.183 C 
ENDBRANCH  20  26
ENDBRANCH  18  20
ENDBRANCH   1  18
TORSDOF 5
ENDMDL
MODEL 9
REMARK VINA RESULT:     -10.9      2.437      9.951
REMARK  Name = 1712
REMARK  5 active torsions:
REMARK  status: ('A' for Active; 'I' for Inactive)
REMARK    1  A    between atoms: C_1  and  N_18
REMARK    2  A    between atoms: C_2  and  S_7
REMARK    3  A    between atoms: S_7  and  N_10
REMARK    4  A    between atoms: N_18  and  C_20
REMARK    5  A    between atoms: C_20  and  C_26
REMARK                            x       y       z     vdW  Elec       q    Type
REMARK                         _______ _______ _______ _____ _____    ______ ____
ROOT
ATOM      1  C   UNL     1      35.278 -19.484 -21.605  0.00  0.00    +0.045 C 
ATOM      2  C   UNL     1      34.794 -17.218 -23.203  0.00  0.00    +0.125 C 
ATOM      3  C   UNL     1      35.549 -18.190 -21.123  0.00  0.00    +0.016 C 
ATOM      4  C   UNL     1      34.759 -19.616 -22.906  0.00  0.00    +0.016 C 
ATOM      5  C   UNL     1      35.309 -17.067 -21.915  0.00  0.00    +0.021 C 
ATOM      6  C   UNL     1      34.519 -18.493 -23.698  0.00  0.00    +0.021 C 
ENDROOT
BRANCH   2   7
ATOM      7  S   UNL     1      34.495 -15.813 -24.194  0.00  0.00    +0.075 S 
ATOM      8  O   UNL     1      33.058 -15.735 -24.433  0.00  0.00    -0.150 OA
ATOM      9  O   UNL     1      35.397 -15.849 -25.338  0.00  0.00    -0.150 OA
BRANCH   7  10
ATOM     10  N   UNL     1      34.935 -14.511 -23.154  0.00  0.00    -0.199 N 
ATOM     11  H   UNL     1      35.828 -14.472 -22.742  0.00  0.00    +0.175 HD
ATOM     12  N   UNL     1      32.878 -13.866 -22.195  0.00  0.00    -0.228 NA
ATOM     13  C   UNL     1      33.958 -13.485 -22.904  0.00  0.00    +0.147 C 
ATOM     14  C   UNL     1      34.173 -12.210 -23.389  0.00  0.00    +0.036 C 
ATOM     15  C   UNL     1      33.203 -11.250 -23.124  0.00  0.00    +0.005 C 
ATOM     16  C   UNL     1      31.956 -12.906 -21.958  0.00  0.00    +0.100 C 
ATOM     17  C   UNL     1      32.071 -11.597 -22.396  0.00  0.00    +0.021 C 
ENDBRANCH   7  10
ENDBRANCH   2   7
BRANCH   1  18
ATOM     18  N   UNL     1      35.515 -20.600 -20.818  0.00  0.00    -0.328 N 
ATOM     19  H   UNL     1      35.525 -21.483 -21.255  0.00  0.00    +0.147 HD
BRANCH  18  20
ATOM     20  C   UNL     1      35.748 -20.544 -19.396  0.00  0.00    +0.127 C 
BRANCH  20  26
ATOM     21  S   UNL     1      37.366 -22.040 -16.539  0.00  0.00    -0.104 S 
ATOM     22  O   UNL     1      32.946 -20.874 -20.224  0.00  0.00    -0.210 OA
ATOM     23  N   UNL     1      32.592 -22.277 -18.399  0.00  0.00    -0.333 NA
ATOM     24  N   UNL     1      36.434 -23.631 -14.715  0.00  0.00    -0.262 NA
ATOM     25  C   UNL     1      34.764 -22.131 -17.605  0.00  0.00    +0.033 C 
ATOM     26  C   UNL     1      34.733 -21.369 -18.697  0.00  0.00    +0.092 C 
ATOM     27  C   UNL     1      33.401 -22.670 -17.471  0.00  0.00    +0.142 C 
ATOM     28  C   UNL     1      35.730 -22.490 -16.653  0.00  0.00    +0.114 C 
ATOM     29  C   UNL     1      33.336 -21.455 -19.220  0.00  0.00    +0.202 C 
ATOM     30  C   UNL     1      35.426 -23.335 -15.597  0.00  0.00    +0.069 C 
ATOM     31  C   UNL     1      33.116 -23.573 -16.324  0.00  0.00    +0.034 C 
ATOM     32  C   UNL     1      34.105 -23.866 -15.455  0.00  0.00    +0.018 C 
ATOM     33  C   UNL     1      37.516 -22.998 -15.116  0.00  0.00    +0.183 C 
ENDBRANCH  20  26
ENDBRANCH  18  20
ENDBRANCH   1  18
TORSDOF 5
ENDMDL
