MODEL 1
REMARK VINA RESULT:     -11.4      0.000      0.000
REMARK  Name = 71616860
REMARK  5 active torsions:
REMARK  status: ('A' for Active; 'I' for Inactive)
REMARK    1  A    between atoms: C_10  and  C_17
REMARK    2  A    between atoms: C_15  and  O_21
REMARK    3  A    between atoms: C_16  and  C_18
REMARK    4  A    between atoms: O_21  and  C_22
REMARK    5  A    between atoms: C_22  and  C_25
REMARK                            x       y       z     vdW  Elec       q    Type
REMARK                         _______ _______ _______ _____ _____    ______ ____
ROOT
ATOM      1  O   UNL     1      37.264 -24.435 -13.223  0.00  0.00    -0.193 OA
ATOM      2  N   UNL     1      36.188 -23.467 -15.029  0.00  0.00    -0.205 N 
ATOM      3  N   UNL     1      34.998 -24.526 -13.232  0.00  0.00    -0.284 NA
ATOM      4  C   UNL     1      37.369 -21.732 -16.352  0.00  0.00    +0.049 C 
ATOM      5  C   UNL     1      36.225 -21.753 -17.327  0.00  0.00    -0.019 C 
ATOM      6  C   UNL     1      37.459 -23.081 -15.651  0.00  0.00    +0.114 C 
ATOM      7  C   UNL     1      35.058 -22.480 -17.011  0.00  0.00    +0.011 C 
ATOM      8  C   UNL     1      34.994 -23.202 -15.708  0.00  0.00    +0.068 C 
ATOM      9  C   UNL     1      36.310 -21.029 -18.526  0.00  0.00    +0.004 C 
ATOM     10  C   UNL     1      35.257 -21.051 -19.436  0.00  0.00    +0.041 C 
ATOM     11  C   UNL     1      34.016 -22.502 -17.952  0.00  0.00    +0.002 C 
ATOM     12  C   UNL     1      33.821 -23.559 -15.163  0.00  0.00    +0.088 C 
ATOM     13  C   UNL     1      34.115 -21.792 -19.152  0.00  0.00    +0.008 C 
ATOM     14  C   UNL     1      36.207 -24.159 -13.795  0.00  0.00    +0.275 C 
ATOM     15  C   UNL     1      33.919 -24.243 -13.873  0.00  0.00    +0.291 C 
ENDROOT
BRANCH  10  17
ATOM     16  C   UNL     1      35.433 -19.703 -21.686  0.00  0.00    -0.087 C 
ATOM     17  C   UNL     1      35.352 -20.319 -20.659  0.00  0.00    -0.064 C 
BRANCH  16  18
ATOM     18  C   UNL     1      35.532 -18.963 -22.918  0.00  0.00    +0.065 C 
ATOM     19  C   UNL     1      34.873 -17.616 -23.002  0.00  0.00    +0.014 C 
ATOM     20  C   UNL     1      34.292 -18.781 -23.748  0.00  0.00    +0.014 C 
ENDBRANCH  16  18
ENDBRANCH  10  17
BRANCH  15  21
ATOM     21  O   UNL     1      32.715 -24.582 -13.360  0.00  0.00    -0.448 OA
BRANCH  21  22
ATOM     22  C   UNL     1      31.922 -23.470 -12.972  0.00  0.00    +0.240 C 
BRANCH  22  25
ATOM     23  O   UNL     1      30.320 -22.742 -14.592  0.00  0.00    -0.347 OA
ATOM     24  O   UNL     1      28.965 -25.200 -14.541  0.00  0.00    -0.348 OA
ATOM     25  C   UNL     1      30.511 -23.657 -13.506  0.00  0.00    +0.188 C 
ATOM     26  C   UNL     1      30.286 -25.083 -14.003  0.00  0.00    +0.175 C 
ATOM     27  C   UNL     1      29.002 -22.864 -15.134  0.00  0.00    +0.174 C 
ATOM     28  C   UNL     1      28.778 -24.285 -15.622  0.00  0.00    +0.174 C 
ENDBRANCH  22  25
ENDBRANCH  21  22
ENDBRANCH  15  21
TORSDOF 5
ENDMDL
MODEL 2
REMARK VINA RESULT:     -10.3      1.944      5.335
REMARK  Name = 71616860
REMARK  5 active torsions:
REMARK  status: ('A' for Active; 'I' for Inactive)
REMARK    1  A    between atoms: C_10  and  C_17
REMARK    2  A    between atoms: C_15  and  O_21
REMARK    3  A    between atoms: C_16  and  C_18
REMARK    4  A    between atoms: O_21  and  C_22
REMARK    5  A    between atoms: C_22  and  C_25
REMARK                            x       y       z     vdW  Elec       q    Type
REMARK                         _______ _______ _______ _____ _____    ______ ____
ROOT
ATOM      1  O   UNL     1      31.647 -24.209 -12.942  0.00  0.00    -0.193 OA
ATOM      2  N   UNL     1      33.105 -23.526 -14.605  0.00  0.00    -0.205 N 
ATOM      3  N   UNL     1      33.837 -24.728 -12.661  0.00  0.00    -0.284 NA
ATOM      4  C   UNL     1      32.217 -23.065 -16.876  0.00  0.00    +0.049 C 
ATOM      5  C   UNL     1      33.577 -22.553 -17.261  0.00  0.00    -0.019 C 
ATOM      6  C   UNL     1      32.022 -22.902 -15.374  0.00  0.00    +0.114 C 
ATOM      7  C   UNL     1      34.658 -22.723 -16.372  0.00  0.00    +0.011 C 
ATOM      8  C   UNL     1      34.418 -23.417 -15.074  0.00  0.00    +0.068 C 
ATOM      9  C   UNL     1      33.769 -21.940 -18.508  0.00  0.00    +0.004 C 
ATOM     10  C   UNL     1      35.024 -21.456 -18.866  0.00  0.00    +0.041 C 
ATOM     11  C   UNL     1      35.911 -22.212 -16.747  0.00  0.00    +0.002 C 
ATOM     12  C   UNL     1      35.424 -23.969 -14.379  0.00  0.00    +0.088 C 
ATOM     13  C   UNL     1      36.091 -21.586 -17.984  0.00  0.00    +0.008 C 
ATOM     14  C   UNL     1      32.801 -24.159 -13.377  0.00  0.00    +0.275 C 
ATOM     15  C   UNL     1      35.029 -24.631 -13.136  0.00  0.00    +0.291 C 
ENDROOT
BRANCH  10  17
ATOM     16  C   UNL     1      35.374 -20.294 -21.198  0.00  0.00    -0.087 C 
ATOM     17  C   UNL     1      35.213 -20.824 -20.134  0.00  0.00    -0.064 C 
BRANCH  16  18
ATOM     18  C   UNL     1      35.569 -19.657 -22.475  0.00  0.00    +0.065 C 
ATOM     19  C   UNL     1      35.415 -18.166 -22.565  0.00  0.00    +0.014 C 
ATOM     20  C   UNL     1      34.377 -19.062 -23.171  0.00  0.00    +0.014 C 
ENDBRANCH  16  18
ENDBRANCH  10  17
BRANCH  15  21
ATOM     21  O   UNL     1      36.073 -25.174 -12.469  0.00  0.00    -0.448 OA
BRANCH  21  22
ATOM     22  C   UNL     1      37.255 -24.388 -12.516  0.00  0.00    +0.240 C 
BRANCH  22  25
ATOM     23  O   UNL     1      39.546 -24.566 -13.182  0.00  0.00    -0.347 OA
ATOM     24  O   UNL     1      39.136 -27.077 -14.368  0.00  0.00    -0.348 OA
ATOM     25  C   UNL     1      38.223 -25.010 -13.509  0.00  0.00    +0.188 C 
ATOM     26  C   UNL     1      38.176 -26.535 -13.456  0.00  0.00    +0.175 C 
ATOM     27  C   UNL     1      40.506 -25.112 -14.090  0.00  0.00    +0.174 C 
ATOM     28  C   UNL     1      40.453 -26.630 -14.040  0.00  0.00    +0.174 C 
ENDBRANCH  22  25
ENDBRANCH  21  22
ENDBRANCH  15  21
TORSDOF 5
ENDMDL
MODEL 3
REMARK VINA RESULT:     -10.2      7.472     11.231
REMARK  Name = 71616860
REMARK  5 active torsions:
REMARK  status: ('A' for Active; 'I' for Inactive)
REMARK    1  A    between atoms: C_10  and  C_17
REMARK    2  A    between atoms: C_15  and  O_21
REMARK    3  A    between atoms: C_16  and  C_18
REMARK    4  A    between atoms: O_21  and  C_22
REMARK    5  A    between atoms: C_22  and  C_25
REMARK                            x       y       z     vdW  Elec       q    Type
REMARK                         _______ _______ _______ _____ _____    ______ ____
ROOT
ATOM      1  O   UNL     1      34.501 -16.655 -25.117  0.00  0.00    -0.193 OA
ATOM      2  N   UNL     1      34.021 -14.982 -23.591  0.00  0.00    -0.205 N 
ATOM      3  N   UNL     1      35.007 -17.074 -22.946  0.00  0.00    -0.284 NA
ATOM      4  C   UNL     1      33.807 -12.643 -24.391  0.00  0.00    +0.049 C 
ATOM      5  C   UNL     1      33.355 -12.255 -23.011  0.00  0.00    -0.019 C 
ATOM      6  C   UNL     1      33.476 -14.109 -24.637  0.00  0.00    +0.114 C 
ATOM      7  C   UNL     1      33.436 -13.197 -21.965  0.00  0.00    +0.011 C 
ATOM      8  C   UNL     1      33.979 -14.553 -22.260  0.00  0.00    +0.068 C 
ATOM      9  C   UNL     1      32.886 -10.956 -22.765  0.00  0.00    +0.004 C 
ATOM     10  C   UNL     1      32.458 -10.593 -21.492  0.00  0.00    +0.041 C 
ATOM     11  C   UNL     1      32.983 -12.814 -20.692  0.00  0.00    +0.002 C 
ATOM     12  C   UNL     1      34.460 -15.342 -21.288  0.00  0.00    +0.088 C 
ATOM     13  C   UNL     1      32.500 -11.523 -20.458  0.00  0.00    +0.008 C 
ATOM     14  C   UNL     1      34.511 -16.261 -23.948  0.00  0.00    +0.275 C 
ATOM     15  C   UNL     1      34.976 -16.636 -21.736  0.00  0.00    +0.291 C 
ENDROOT
BRANCH  10  17
ATOM     16  C   UNL     1      31.568  -8.160 -21.044  0.00  0.00    -0.087 C 
ATOM     17  C   UNL     1      31.974  -9.271 -21.248  0.00  0.00    -0.064 C 
BRANCH  16  18
ATOM     18  C   UNL     1      31.083  -6.826 -20.801  0.00  0.00    +0.065 C 
ATOM     19  C   UNL     1      30.845  -5.922 -21.976  0.00  0.00    +0.014 C 
ATOM     20  C   UNL     1      32.004  -5.668 -21.060  0.00  0.00    +0.014 C 
ENDBRANCH  16  18
ENDBRANCH  10  17
BRANCH  15  21
ATOM     21  O   UNL     1      35.452 -17.397 -20.725  0.00  0.00    -0.448 OA
BRANCH  21  22
ATOM     22  C   UNL     1      36.374 -18.393 -21.142  0.00  0.00    +0.240 C 
BRANCH  22  25
ATOM     23  O   UNL     1      36.475 -20.162 -19.534  0.00  0.00    -0.347 OA
ATOM     24  O   UNL     1      33.869 -21.018 -20.127  0.00  0.00    -0.348 OA
ATOM     25  C   UNL     1      35.836 -19.760 -20.752  0.00  0.00    +0.188 C 
ATOM     26  C   UNL     1      34.324 -19.727 -20.540  0.00  0.00    +0.175 C 
ATOM     27  C   UNL     1      36.015 -21.450 -19.118  0.00  0.00    +0.174 C 
ATOM     28  C   UNL     1      34.511 -21.415 -18.913  0.00  0.00    +0.174 C 
ENDBRANCH  22  25
ENDBRANCH  21  22
ENDBRANCH  15  21
TORSDOF 5
ENDMDL
MODEL 4
REMARK VINA RESULT:     -10.1      7.209     10.846
REMARK  Name = 71616860
REMARK  5 active torsions:
REMARK  status: ('A' for Active; 'I' for Inactive)
REMARK    1  A    between atoms: C_10  and  C_17
REMARK    2  A    between atoms: C_15  and  O_21
REMARK    3  A    between atoms: C_16  and  C_18
REMARK    4  A    between atoms: O_21  and  C_22
REMARK    5  A    between atoms: C_22  and  C_25
REMARK                            x       y       z     vdW  Elec       q    Type
REMARK                         _______ _______ _______ _____ _____    ______ ____
ROOT
ATOM      1  O   UNL     1      34.499 -17.070 -25.128  0.00  0.00    -0.193 OA
ATOM      2  N   UNL     1      34.082 -15.372 -23.612  0.00  0.00    -0.205 N 
ATOM      3  N   UNL     1      35.149 -17.430 -22.985  0.00  0.00    -0.284 NA
ATOM      4  C   UNL     1      33.771 -13.057 -24.446  0.00  0.00    +0.049 C 
ATOM      5  C   UNL     1      33.398 -12.645 -23.049  0.00  0.00    -0.019 C 
ATOM      6  C   UNL     1      33.455 -14.534 -24.639  0.00  0.00    +0.114 C 
ATOM      7  C   UNL     1      33.563 -13.562 -21.990  0.00  0.00    +0.011 C 
ATOM      8  C   UNL     1      34.114 -14.914 -22.290  0.00  0.00    +0.068 C 
ATOM      9  C   UNL     1      32.919 -11.350 -22.803  0.00  0.00    +0.004 C 
ATOM     10  C   UNL     1      32.564 -10.966 -21.513  0.00  0.00    +0.041 C 
ATOM     11  C   UNL     1      33.182 -13.158 -20.700  0.00  0.00    +0.002 C 
ATOM     12  C   UNL     1      34.671 -15.671 -21.333  0.00  0.00    +0.088 C 
ATOM     13  C   UNL     1      32.689 -11.872 -20.464  0.00  0.00    +0.008 C 
ATOM     14  C   UNL     1      34.574 -16.649 -23.971  0.00  0.00    +0.275 C 
ATOM     15  C   UNL     1      35.184 -16.965 -21.785  0.00  0.00    +0.291 C 
ENDROOT
BRANCH  10  17
ATOM     16  C   UNL     1      31.651  -8.543 -21.060  0.00  0.00    -0.087 C 
ATOM     17  C   UNL     1      32.068  -9.649 -21.268  0.00  0.00    -0.064 C 
BRANCH  16  18
ATOM     18  C   UNL     1      31.151  -7.216 -20.810  0.00  0.00    +0.065 C 
ATOM     19  C   UNL     1      30.996  -6.275 -21.970  0.00  0.00    +0.014 C 
ATOM     20  C   UNL     1      32.088  -6.052 -20.967  0.00  0.00    +0.014 C 
ENDBRANCH  16  18
ENDBRANCH  10  17
BRANCH  15  21
ATOM     21  O   UNL     1      35.738 -17.693 -20.790  0.00  0.00    -0.448 OA
BRANCH  21  22
ATOM     22  C   UNL     1      35.865 -19.075 -21.093  0.00  0.00    +0.240 C 
BRANCH  22  25
ATOM     23  O   UNL     1      33.849 -20.211 -20.483  0.00  0.00    -0.347 OA
ATOM     24  O   UNL     1      35.202 -21.926 -18.720  0.00  0.00    -0.348 OA
ATOM     25  C   UNL     1      35.164 -19.885 -20.014  0.00  0.00    +0.188 C 
ATOM     26  C   UNL     1      35.921 -21.173 -19.701  0.00  0.00    +0.175 C 
ATOM     27  C   UNL     1      33.133 -20.968 -19.504  0.00  0.00    +0.174 C 
ATOM     28  C   UNL     1      33.891 -22.247 -19.191  0.00  0.00    +0.174 C 
ENDBRANCH  22  25
ENDBRANCH  21  22
ENDBRANCH  15  21
TORSDOF 5
ENDMDL
MODEL 5
REMARK VINA RESULT:     -10.0      2.512      4.915
REMARK  Name = 71616860
REMARK  5 active torsions:
REMARK  status: ('A' for Active; 'I' for Inactive)
REMARK    1  A    between atoms: C_10  and  C_17
REMARK    2  A    between atoms: C_15  and  O_21
REMARK    3  A    between atoms: C_16  and  C_18
REMARK    4  A    between atoms: O_21  and  C_22
REMARK    5  A    between atoms: C_22  and  C_25
REMARK                            x       y       z     vdW  Elec       q    Type
REMARK                         _______ _______ _______ _____ _____    ______ ____
ROOT
ATOM      1  O   UNL     1      33.774 -23.987 -14.857  0.00  0.00    -0.193 OA
ATOM      2  N   UNL     1      34.749 -22.775 -16.571  0.00  0.00    -0.205 N 
ATOM      3  N   UNL     1      36.032 -23.775 -14.805  0.00  0.00    -0.284 NA
ATOM      4  C   UNL     1      33.523 -22.508 -18.711  0.00  0.00    +0.049 C 
ATOM      5  C   UNL     1      34.597 -21.558 -19.163  0.00  0.00    -0.019 C 
ATOM      6  C   UNL     1      33.448 -22.499 -17.190  0.00  0.00    +0.114 C 
ATOM      7  C   UNL     1      35.765 -21.413 -18.385  0.00  0.00    +0.011 C 
ATOM      8  C   UNL     1      35.900 -22.217 -17.137  0.00  0.00    +0.068 C 
ATOM      9  C   UNL     1      34.448 -20.849 -20.363  0.00  0.00    +0.004 C 
ATOM     10  C   UNL     1      35.436 -19.962 -20.783  0.00  0.00    +0.041 C 
ATOM     11  C   UNL     1      36.740 -20.500 -18.818  0.00  0.00    +0.002 C 
ATOM     12  C   UNL     1      37.098 -22.446 -16.578  0.00  0.00    +0.088 C 
ATOM     13  C   UNL     1      36.577 -19.784 -20.007  0.00  0.00    +0.008 C 
ATOM     14  C   UNL     1      34.797 -23.539 -15.380  0.00  0.00    +0.275 C 
ATOM     15  C   UNL     1      37.072 -23.267 -15.368  0.00  0.00    +0.291 C 
ENDROOT
BRANCH  10  17
ATOM     16  C   UNL     1      35.140 -18.625 -23.027  0.00  0.00    -0.087 C 
ATOM     17  C   UNL     1      35.276 -19.236 -22.002  0.00  0.00    -0.064 C 
BRANCH  16  18
ATOM     18  C   UNL     1      34.975 -17.893 -24.256  0.00  0.00    +0.065 C 
ATOM     19  C   UNL     1      34.658 -16.427 -24.182  0.00  0.00    +0.014 C 
ATOM     20  C   UNL     1      33.603 -17.399 -24.619  0.00  0.00    +0.014 C 
ENDBRANCH  16  18
ENDBRANCH  10  17
BRANCH  15  21
ATOM     21  O   UNL     1      38.299 -23.474 -14.840  0.00  0.00    -0.448 OA
BRANCH  21  22
ATOM     22  C   UNL     1      38.547 -24.824 -14.477  0.00  0.00    +0.240 C 
BRANCH  22  25
ATOM     23  O   UNL     1      38.093 -23.684 -12.423  0.00  0.00    -0.347 OA
ATOM     24  O   UNL     1      36.923 -25.962 -11.273  0.00  0.00    -0.348 OA
ATOM     25  C   UNL     1      38.325 -24.983 -12.981  0.00  0.00    +0.188 C 
ATOM     26  C   UNL     1      37.125 -25.881 -12.686  0.00  0.00    +0.175 C 
ATOM     27  C   UNL     1      37.885 -23.767 -11.011  0.00  0.00    +0.174 C 
ATOM     28  C   UNL     1      36.695 -24.664 -10.720  0.00  0.00    +0.174 C 
ENDBRANCH  22  25
ENDBRANCH  21  22
ENDBRANCH  15  21
TORSDOF 5
ENDMDL
MODEL 6
REMARK VINA RESULT:      -9.7      9.090     13.230
REMARK  Name = 71616860
REMARK  5 active torsions:
REMARK  status: ('A' for Active; 'I' for Inactive)
REMARK    1  A    between atoms: C_10  and  C_17
REMARK    2  A    between atoms: C_15  and  O_21
REMARK    3  A    between atoms: C_16  and  C_18
REMARK    4  A    between atoms: O_21  and  C_22
REMARK    5  A    between atoms: C_22  and  C_25
REMARK                            x       y       z     vdW  Elec       q    Type
REMARK                         _______ _______ _______ _____ _____    ______ ____
ROOT
ATOM      1  O   UNL     1      32.310 -14.438 -19.507  0.00  0.00    -0.193 OA
ATOM      2  N   UNL     1      32.481 -12.708 -21.035  0.00  0.00    -0.205 N 
ATOM      3  N   UNL     1      33.728 -14.748 -21.249  0.00  0.00    -0.284 NA
ATOM      4  C   UNL     1      30.629 -11.067 -21.215  0.00  0.00    +0.049 C 
ATOM      5  C   UNL     1      31.484 -10.265 -22.157  0.00  0.00    -0.019 C 
ATOM      6  C   UNL     1      31.524 -11.882 -20.291  0.00  0.00    +0.114 C 
ATOM      7  C   UNL     1      32.697 -10.810 -22.625  0.00  0.00    +0.011 C 
ATOM      8  C   UNL     1      33.092 -12.176 -22.176  0.00  0.00    +0.068 C 
ATOM      9  C   UNL     1      31.058  -9.000 -22.586  0.00  0.00    +0.004 C 
ATOM     10  C   UNL     1      31.849  -8.249 -23.452  0.00  0.00    +0.041 C 
ATOM     11  C   UNL     1      33.487 -10.028 -23.484  0.00  0.00    +0.002 C 
ATOM     12  C   UNL     1      33.980 -12.910 -22.863  0.00  0.00    +0.088 C 
ATOM     13  C   UNL     1      33.065  -8.760 -23.894  0.00  0.00    +0.008 C 
ATOM     14  C   UNL     1      32.813 -13.992 -20.541  0.00  0.00    +0.275 C 
ATOM     15  C   UNL     1      34.250 -14.236 -22.308  0.00  0.00    +0.291 C 
ENDROOT
BRANCH  10  17
ATOM     16  C   UNL     1      31.053  -5.871 -24.240  0.00  0.00    -0.087 C 
ATOM     17  C   UNL     1      31.416  -6.957 -23.880  0.00  0.00    -0.064 C 
BRANCH  16  18
ATOM     18  C   UNL     1      30.620  -4.567 -24.671  0.00  0.00    +0.065 C 
ATOM     19  C   UNL     1      31.582  -3.709 -25.442  0.00  0.00    +0.014 C 
ATOM     20  C   UNL     1      31.233  -3.356 -24.027  0.00  0.00    +0.014 C 
ENDBRANCH  16  18
ENDBRANCH  10  17
BRANCH  15  21
ATOM     21  O   UNL     1      35.149 -14.941 -23.032  0.00  0.00    -0.448 OA
BRANCH  21  22
ATOM     22  C   UNL     1      34.574 -15.994 -23.792  0.00  0.00    +0.240 C 
BRANCH  22  25
ATOM     23  O   UNL     1      35.443 -17.269 -21.964  0.00  0.00    -0.347 OA
ATOM     24  O   UNL     1      34.924 -19.707 -23.255  0.00  0.00    -0.348 OA
ATOM     25  C   UNL     1      35.211 -17.310 -23.377  0.00  0.00    +0.188 C 
ATOM     26  C   UNL     1      34.309 -18.497 -23.706  0.00  0.00    +0.175 C 
ATOM     27  C   UNL     1      36.052 -18.481 -21.512  0.00  0.00    +0.174 C 
ATOM     28  C   UNL     1      35.155 -19.660 -21.845  0.00  0.00    +0.174 C 
ENDBRANCH  22  25
ENDBRANCH  21  22
ENDBRANCH  15  21
TORSDOF 5
ENDMDL
MODEL 7
REMARK VINA RESULT:      -9.6      5.624      9.183
REMARK  Name = 71616860
REMARK  5 active torsions:
REMARK  status: ('A' for Active; 'I' for Inactive)
REMARK    1  A    between atoms: C_10  and  C_17
REMARK    2  A    between atoms: C_15  and  O_21
REMARK    3  A    between atoms: C_16  and  C_18
REMARK    4  A    between atoms: O_21  and  C_22
REMARK    5  A    between atoms: C_22  and  C_25
REMARK                            x       y       z     vdW  Elec       q    Type
REMARK                         _______ _______ _______ _____ _____    ______ ____
ROOT
ATOM      1  O   UNL     1      34.711 -20.095 -24.092  0.00  0.00    -0.193 OA
ATOM      2  N   UNL     1      34.674 -17.916 -23.314  0.00  0.00    -0.205 N 
ATOM      3  N   UNL     1      35.626 -19.722 -22.051  0.00  0.00    -0.284 NA
ATOM      4  C   UNL     1      34.462 -16.055 -24.942  0.00  0.00    +0.049 C 
ATOM      5  C   UNL     1      34.333 -15.108 -23.782  0.00  0.00    -0.019 C 
ATOM      6  C   UNL     1      33.986 -17.439 -24.519  0.00  0.00    +0.114 C 
ATOM      7  C   UNL     1      34.564 -15.580 -22.473  0.00  0.00    +0.011 C 
ATOM      8  C   UNL     1      34.938 -17.010 -22.281  0.00  0.00    +0.068 C 
ATOM      9  C   UNL     1      34.016 -13.760 -24.007  0.00  0.00    +0.004 C 
ATOM     10  C   UNL     1      33.887 -12.880 -22.937  0.00  0.00    +0.041 C 
ATOM     11  C   UNL     1      34.411 -14.678 -21.407  0.00  0.00    +0.002 C 
ATOM     12  C   UNL     1      35.555 -17.429 -21.166  0.00  0.00    +0.088 C 
ATOM     13  C   UNL     1      34.078 -13.340 -21.638  0.00  0.00    +0.008 C 
ATOM     14  C   UNL     1      34.990 -19.291 -23.200  0.00  0.00    +0.275 C 
ATOM     15  C   UNL     1      35.876 -18.856 -21.132  0.00  0.00    +0.291 C 
ENDROOT
BRANCH  10  17
ATOM     16  C   UNL     1      33.279 -10.358 -23.366  0.00  0.00    -0.087 C 
ATOM     17  C   UNL     1      33.556 -11.510 -23.171  0.00  0.00    -0.064 C 
BRANCH  16  18
ATOM     18  C   UNL     1      32.947  -8.977 -23.599  0.00  0.00    +0.065 C 
ATOM     19  C   UNL     1      32.362  -8.179 -22.469  0.00  0.00    +0.014 C 
ATOM     20  C   UNL     1      31.498  -8.581 -23.627  0.00  0.00    +0.014 C 
ENDBRANCH  16  18
ENDBRANCH  10  17
BRANCH  15  21
ATOM     21  O   UNL     1      36.497 -19.234 -19.992  0.00  0.00    -0.448 OA
BRANCH  21  22
ATOM     22  C   UNL     1      36.575 -20.641 -19.821  0.00  0.00    +0.240 C 
BRANCH  22  25
ATOM     23  O   UNL     1      34.415 -21.626 -19.519  0.00  0.00    -0.347 OA
ATOM     24  O   UNL     1      35.056 -22.541 -16.943  0.00  0.00    -0.348 OA
ATOM     25  C   UNL     1      35.530 -21.075 -18.806  0.00  0.00    +0.188 C 
ATOM     26  C   UNL     1      36.084 -22.126 -17.847  0.00  0.00    +0.175 C 
ATOM     27  C   UNL     1      33.391 -22.047 -18.615  0.00  0.00    +0.174 C 
ATOM     28  C   UNL     1      33.946 -23.088 -17.658  0.00  0.00    +0.174 C 
ENDBRANCH  22  25
ENDBRANCH  21  22
ENDBRANCH  15  21
TORSDOF 5
ENDMDL
MODEL 8
REMARK VINA RESULT:      -9.3     11.202     15.254
REMARK  Name = 71616860
REMARK  5 active torsions:
REMARK  status: ('A' for Active; 'I' for Inactive)
REMARK    1  A    between atoms: C_10  and  C_17
REMARK    2  A    between atoms: C_15  and  O_21
REMARK    3  A    between atoms: C_16  and  C_18
REMARK    4  A    between atoms: O_21  and  C_22
REMARK    5  A    between atoms: C_22  and  C_25
REMARK                            x       y       z     vdW  Elec       q    Type
REMARK                         _______ _______ _______ _____ _____    ______ ____
ROOT
ATOM      1  O   UNL     1      32.358  -9.488 -18.006  0.00  0.00    -0.193 OA
ATOM      2  N   UNL     1      32.170  -8.840 -20.219  0.00  0.00    -0.205 N 
ATOM      3  N   UNL     1      31.951 -11.126 -19.520  0.00  0.00    -0.284 NA
ATOM      4  C   UNL     1      31.585  -6.487 -20.744  0.00  0.00    +0.049 C 
ATOM      5  C   UNL     1      31.824  -6.793 -22.196  0.00  0.00    -0.019 C 
ATOM      6  C   UNL     1      32.415  -7.433 -19.886  0.00  0.00    +0.114 C 
ATOM      7  C   UNL     1      32.039  -8.128 -22.597  0.00  0.00    +0.011 C 
ATOM      8  C   UNL     1      32.013  -9.201 -21.562  0.00  0.00    +0.068 C 
ATOM      9  C   UNL     1      31.802  -5.760 -23.145  0.00  0.00    +0.004 C 
ATOM     10  C   UNL     1      32.031  -6.035 -24.490  0.00  0.00    +0.041 C 
ATOM     11  C   UNL     1      32.284  -8.381 -23.956  0.00  0.00    +0.002 C 
ATOM     12  C   UNL     1      31.801 -10.485 -21.889  0.00  0.00    +0.088 C 
ATOM     13  C   UNL     1      32.278  -7.343 -24.893  0.00  0.00    +0.008 C 
ATOM     14  C   UNL     1      32.170  -9.804 -19.183  0.00  0.00    +0.275 C 
ATOM     15  C   UNL     1      31.785 -11.418 -20.763  0.00  0.00    +0.291 C 
ENDROOT
BRANCH  10  17
ATOM     16  C   UNL     1      32.002  -4.091 -26.259  0.00  0.00    -0.087 C 
ATOM     17  C   UNL     1      32.016  -4.978 -25.451  0.00  0.00    -0.064 C 
BRANCH  16  18
ATOM     18  C   UNL     1      31.983  -3.026 -27.228  0.00  0.00    +0.065 C 
ATOM     19  C   UNL     1      30.656  -2.464 -27.652  0.00  0.00    +0.014 C 
ATOM     20  C   UNL     1      31.446  -3.314 -28.601  0.00  0.00    +0.014 C 
ENDBRANCH  16  18
ENDBRANCH  10  17
BRANCH  15  21
ATOM     21  O   UNL     1      31.568 -12.699 -21.137  0.00  0.00    -0.448 OA
BRANCH  21  22
ATOM     22  C   UNL     1      32.260 -13.076 -22.318  0.00  0.00    +0.240 C 
BRANCH  22  25
ATOM     23  O   UNL     1      33.358 -14.476 -20.718  0.00  0.00    -0.347 OA
ATOM     24  O   UNL     1      35.255 -15.345 -22.595  0.00  0.00    -0.348 OA
ATOM     25  C   UNL     1      33.569 -13.745 -21.932  0.00  0.00    +0.188 C 
ATOM     26  C   UNL     1      34.050 -14.702 -23.020  0.00  0.00    +0.175 C 
ATOM     27  C   UNL     1      34.561 -15.123 -20.297  0.00  0.00    +0.174 C 
ATOM     28  C   UNL     1      35.040 -16.071 -21.383  0.00  0.00    +0.174 C 
ENDBRANCH  22  25
ENDBRANCH  21  22
ENDBRANCH  15  21
TORSDOF 5
ENDMDL
MODEL 9
REMARK VINA RESULT:      -9.1      1.896      4.699
REMARK  Name = 71616860
REMARK  5 active torsions:
REMARK  status: ('A' for Active; 'I' for Inactive)
REMARK    1  A    between atoms: C_10  and  C_17
REMARK    2  A    between atoms: C_15  and  O_21
REMARK    3  A    between atoms: C_16  and  C_18
REMARK    4  A    between atoms: O_21  and  C_22
REMARK    5  A    between atoms: C_22  and  C_25
REMARK                            x       y       z     vdW  Elec       q    Type
REMARK                         _______ _______ _______ _____ _____    ______ ____
ROOT
ATOM      1  O   UNL     1      32.541 -24.664 -13.102  0.00  0.00    -0.193 OA
ATOM      2  N   UNL     1      33.586 -23.773 -14.966  0.00  0.00    -0.205 N 
ATOM      3  N   UNL     1      34.721 -25.207 -13.410  0.00  0.00    -0.284 NA
ATOM      4  C   UNL     1      32.204 -23.036 -16.889  0.00  0.00    +0.049 C 
ATOM      5  C   UNL     1      33.449 -22.476 -17.519  0.00  0.00    -0.019 C 
ATOM      6  C   UNL     1      32.370 -23.062 -15.376  0.00  0.00    +0.114 C 
ATOM      7  C   UNL     1      34.703 -22.752 -16.937  0.00  0.00    +0.011 C 
ATOM      8  C   UNL     1      34.756 -23.603 -15.714  0.00  0.00    +0.068 C 
ATOM      9  C   UNL     1      33.360 -21.711 -18.691  0.00  0.00    +0.004 C 
ATOM     10  C   UNL     1      34.508 -21.183 -19.274  0.00  0.00    +0.041 C 
ATOM     11  C   UNL     1      35.847 -22.194 -17.532  0.00  0.00    +0.002 C 
ATOM     12  C   UNL     1      35.882 -24.235 -15.348  0.00  0.00    +0.088 C 
ATOM     13  C   UNL     1      35.749 -21.419 -18.691  0.00  0.00    +0.008 C 
ATOM     14  C   UNL     1      33.561 -24.556 -13.787  0.00  0.00    +0.275 C 
ATOM     15  C   UNL     1      35.772 -25.047 -14.137  0.00  0.00    +0.291 C 
ENDROOT
BRANCH  10  17
ATOM     16  C   UNL     1      34.331 -19.739 -21.464  0.00  0.00    -0.087 C 
ATOM     17  C   UNL     1      34.412 -20.398 -20.464  0.00  0.00    -0.064 C 
BRANCH  16  18
ATOM     18  C   UNL     1      34.231 -18.951 -22.665  0.00  0.00    +0.065 C 
ATOM     19  C   UNL     1      34.920 -19.442 -23.906  0.00  0.00    +0.014 C 
ATOM     20  C   UNL     1      35.463 -18.253 -23.170  0.00  0.00    +0.014 C 
ENDBRANCH  16  18
ENDBRANCH  10  17
BRANCH  15  21
ATOM     21  O   UNL     1      36.928 -25.666 -13.806  0.00  0.00    -0.448 OA
BRANCH  21  22
ATOM     22  C   UNL     1      36.917 -26.245 -12.510  0.00  0.00    +0.240 C 
BRANCH  22  25
ATOM     23  O   UNL     1      37.544 -23.958 -12.191  0.00  0.00    -0.347 OA
ATOM     24  O   UNL     1      36.511 -23.909  -9.581  0.00  0.00    -0.348 OA
ATOM     25  C   UNL     1      37.280 -25.179 -11.489  0.00  0.00    +0.188 C 
ATOM     26  C   UNL     1      36.147 -24.951 -10.490  0.00  0.00    +0.175 C 
ATOM     27  C   UNL     1      37.901 -22.914 -11.282  0.00  0.00    +0.174 C 
ATOM     28  C   UNL     1      36.774 -22.694 -10.287  0.00  0.00    +0.174 C 
ENDBRANCH  22  25
ENDBRANCH  21  22
ENDBRANCH  15  21
TORSDOF 5
ENDMDL
