MODEL 1
REMARK VINA RESULT:     -11.5      0.000      0.000
REMARK  Name = 11626560
REMARK  5 active torsions:
REMARK  status: ('A' for Active; 'I' for Inactive)
REMARK    1  A    between atoms: C_2  and  C_10
REMARK    2  A    between atoms: C_5  and  O_23
REMARK    3  A    between atoms: N_7  and  C_13
REMARK    4  A    between atoms: O_23  and  C_24
REMARK    5  A    between atoms: C_24  and  C_29
REMARK                            x       y       z     vdW  Elec       q    Type
REMARK                         _______ _______ _______ _____ _____    ______ ____
ROOT
ATOM      1  N   UNL     1      32.929 -22.018 -19.090  0.00  0.00    -0.226 NA
ATOM      2  C   UNL     1      34.891 -20.720 -19.661  0.00  0.00    +0.025 C 
ATOM      3  C   UNL     1      35.624 -21.394 -18.687  0.00  0.00    +0.041 C 
ATOM      4  C   UNL     1      33.558 -21.068 -19.819  0.00  0.00    +0.101 C 
ATOM      5  C   UNL     1      35.013 -22.377 -17.918  0.00  0.00    +0.170 C 
ATOM      6  C   UNL     1      33.675 -22.650 -18.156  0.00  0.00    +0.160 C 
ATOM      7  N   UNL     1      33.051 -23.653 -17.374  0.00  0.00    -0.340 N 
ATOM      8  H   UNL     1      32.102 -23.871 -17.517  0.00  0.00    +0.144 HD
ATOM      9  H   UNL     1      33.567 -24.132 -16.685  0.00  0.00    +0.144 HD
ENDROOT
BRANCH   2  13
ATOM     10  N   UNL     1      35.722 -17.991 -21.797  0.00  0.00    -0.212 N 
ATOM     11  N   UNL     1      36.988 -18.365 -21.556  0.00  0.00    -0.176 NA
ATOM     12  C   UNL     1      34.787 -18.757 -21.170  0.00  0.00    +0.086 C 
ATOM     13  C   UNL     1      35.492 -19.704 -20.468  0.00  0.00    +0.039 C 
ATOM     14  C   UNL     1      36.842 -19.414 -20.743  0.00  0.00    +0.119 C 
BRANCH  10  16
ATOM     15  N   UNL     1      33.717 -14.897 -23.980  0.00  0.00    +0.384 N 
ATOM     16  C   UNL     1      35.459 -16.843 -22.671  0.00  0.00    +0.092 C 
ATOM     17  C   UNL     1      34.851 -15.651 -21.915  0.00  0.00    -0.002 C 
ATOM     18  C   UNL     1      34.593 -17.208 -23.887  0.00  0.00    -0.002 C 
ATOM     19  C   UNL     1      34.573 -14.487 -22.867  0.00  0.00    -0.080 C 
ATOM     20  C   UNL     1      34.325 -15.979 -24.755  0.00  0.00    -0.080 C 
ATOM     21  H   UNL     1      33.565 -14.096 -24.594  0.00  0.00    -0.085 HD
ATOM     22  H   UNL     1      32.833 -15.234 -23.599  0.00  0.00    -0.085 HD
ENDBRANCH  10  16
ENDBRANCH   2  13
BRANCH   5  23
ATOM     23  O   UNL     1      35.728 -23.036 -16.968  0.00  0.00    -0.472 OA
BRANCH  23  24
ATOM     24  C   UNL     1      36.008 -22.333 -15.757  0.00  0.00    +0.190 C 
ATOM     25  C   UNL     1      37.309 -21.555 -15.912  0.00  0.00    +0.052 C 
BRANCH  24  29
ATOM     26 CL   UNL     1      38.694 -23.681 -15.254  0.00  0.00    -0.080 Cl
ATOM     27 CL   UNL     1      33.428 -22.771 -14.185  0.00  0.00    -0.082 Cl
ATOM     28  F   UNL     1      38.458 -25.518 -12.976  0.00  0.00    -0.203 F 
ATOM     29  C   UNL     1      36.068 -23.318 -14.613  0.00  0.00    +0.041 C 
ATOM     30  C   UNL     1      37.263 -23.968 -14.330  0.00  0.00    +0.085 C 
ATOM     31  C   UNL     1      34.928 -23.561 -13.858  0.00  0.00    +0.058 C 
ATOM     32  C   UNL     1      37.318 -24.876 -13.273  0.00  0.00    +0.150 C 
ATOM     33  C   UNL     1      34.984 -24.470 -12.802  0.00  0.00    +0.014 C 
ATOM     34  C   UNL     1      36.178 -25.128 -12.509  0.00  0.00    +0.031 C 
ENDBRANCH  24  29
ENDBRANCH  23  24
ENDBRANCH   5  23
TORSDOF 5
ENDMDL
MODEL 2
REMARK VINA RESULT:     -11.4      0.814      1.848
REMARK  Name = 11626560
REMARK  5 active torsions:
REMARK  status: ('A' for Active; 'I' for Inactive)
REMARK    1  A    between atoms: C_2  and  C_10
REMARK    2  A    between atoms: C_5  and  O_23
REMARK    3  A    between atoms: N_7  and  C_13
REMARK    4  A    between atoms: O_23  and  C_24
REMARK    5  A    between atoms: C_24  and  C_29
REMARK                            x       y       z     vdW  Elec       q    Type
REMARK                         _______ _______ _______ _____ _____    ______ ____
ROOT
ATOM      1  N   UNL     1      32.955 -21.988 -19.088  0.00  0.00    -0.226 NA
ATOM      2  C   UNL     1      34.915 -20.693 -19.670  0.00  0.00    +0.025 C 
ATOM      3  C   UNL     1      35.656 -21.377 -18.711  0.00  0.00    +0.041 C 
ATOM      4  C   UNL     1      33.579 -21.034 -19.816  0.00  0.00    +0.101 C 
ATOM      5  C   UNL     1      35.051 -22.364 -17.943  0.00  0.00    +0.170 C 
ATOM      6  C   UNL     1      33.709 -22.630 -18.167  0.00  0.00    +0.160 C 
ATOM      7  N   UNL     1      33.091 -23.637 -17.387  0.00  0.00    -0.340 N 
ATOM      8  H   UNL     1      32.139 -23.850 -17.521  0.00  0.00    +0.144 HD
ATOM      9  H   UNL     1      33.613 -24.124 -16.708  0.00  0.00    +0.144 HD
ENDROOT
BRANCH   2  13
ATOM     10  N   UNL     1      35.731 -17.956 -21.803  0.00  0.00    -0.212 N 
ATOM     11  N   UNL     1      36.999 -18.323 -21.563  0.00  0.00    -0.176 NA
ATOM     12  C   UNL     1      34.801 -18.727 -21.177  0.00  0.00    +0.086 C 
ATOM     13  C   UNL     1      35.510 -19.672 -20.476  0.00  0.00    +0.039 C 
ATOM     14  C   UNL     1      36.859 -19.375 -20.752  0.00  0.00    +0.119 C 
BRANCH  10  16
ATOM     15  N   UNL     1      33.709 -14.870 -23.984  0.00  0.00    +0.384 N 
ATOM     16  C   UNL     1      35.462 -16.807 -22.674  0.00  0.00    +0.092 C 
ATOM     17  C   UNL     1      34.843 -15.621 -21.917  0.00  0.00    -0.002 C 
ATOM     18  C   UNL     1      34.601 -17.176 -23.893  0.00  0.00    -0.002 C 
ATOM     19  C   UNL     1      34.558 -14.458 -22.867  0.00  0.00    -0.080 C 
ATOM     20  C   UNL     1      34.327 -15.946 -24.759  0.00  0.00    -0.080 C 
ATOM     21  H   UNL     1      33.552 -14.070 -24.596  0.00  0.00    -0.085 HD
ATOM     22  H   UNL     1      32.827 -15.216 -23.605  0.00  0.00    -0.085 HD
ENDBRANCH  10  16
ENDBRANCH   2  13
BRANCH   5  23
ATOM     23  O   UNL     1      35.774 -23.034 -17.007  0.00  0.00    -0.472 OA
BRANCH  23  24
ATOM     24  C   UNL     1      36.071 -22.342 -15.794  0.00  0.00    +0.190 C 
ATOM     25  C   UNL     1      37.334 -21.509 -15.982  0.00  0.00    +0.052 C 
BRANCH  24  29
ATOM     26 CL   UNL     1      33.582 -22.884 -14.122  0.00  0.00    -0.080 Cl
ATOM     27 CL   UNL     1      38.822 -23.615 -15.431  0.00  0.00    -0.082 Cl
ATOM     28  F   UNL     1      34.207 -24.864 -12.047  0.00  0.00    -0.203 F 
ATOM     29  C   UNL     1      36.214 -23.343 -14.672  0.00  0.00    +0.041 C 
ATOM     30  C   UNL     1      35.117 -23.636 -13.871  0.00  0.00    +0.085 C 
ATOM     31  C   UNL     1      37.440 -23.959 -14.454  0.00  0.00    +0.058 C 
ATOM     32  C   UNL     1      35.249 -24.561 -12.835  0.00  0.00    +0.150 C 
ATOM     33  C   UNL     1      37.572 -24.883 -13.418  0.00  0.00    +0.014 C 
ATOM     34  C   UNL     1      36.477 -25.184 -12.609  0.00  0.00    +0.031 C 
ENDBRANCH  24  29
ENDBRANCH  23  24
ENDBRANCH   5  23
TORSDOF 5
ENDMDL
MODEL 3
REMARK VINA RESULT:     -10.6      7.942     12.203
REMARK  Name = 11626560
REMARK  5 active torsions:
REMARK  status: ('A' for Active; 'I' for Inactive)
REMARK    1  A    between atoms: C_2  and  C_10
REMARK    2  A    between atoms: C_5  and  O_23
REMARK    3  A    between atoms: N_7  and  C_13
REMARK    4  A    between atoms: O_23  and  C_24
REMARK    5  A    between atoms: C_24  and  C_29
REMARK                            x       y       z     vdW  Elec       q    Type
REMARK                         _______ _______ _______ _____ _____    ______ ____
ROOT
ATOM      1  N   UNL     1      31.453 -11.062 -19.948  0.00  0.00    -0.226 NA
ATOM      2  C   UNL     1      31.623  -9.855 -22.039  0.00  0.00    +0.025 C 
ATOM      3  C   UNL     1      32.044 -11.018 -22.679  0.00  0.00    +0.041 C 
ATOM      4  C   UNL     1      31.344  -9.932 -20.683  0.00  0.00    +0.101 C 
ATOM      5  C   UNL     1      32.168 -12.200 -21.958  0.00  0.00    +0.170 C 
ATOM      6  C   UNL     1      31.863 -12.169 -20.606  0.00  0.00    +0.160 C 
ATOM      7  N   UNL     1      31.987 -13.373 -19.869  0.00  0.00    -0.340 N 
ATOM      8  H   UNL     1      31.779 -13.385 -18.907  0.00  0.00    +0.144 HD
ATOM      9  H   UNL     1      32.283 -14.197 -20.319  0.00  0.00    +0.144 HD
ENDROOT
BRANCH   2  13
ATOM     10  N   UNL     1      31.194  -6.507 -23.183  0.00  0.00    -0.212 N 
ATOM     11  N   UNL     1      31.364  -7.045 -24.400  0.00  0.00    -0.176 NA
ATOM     12  C   UNL     1      31.259  -7.407 -22.163  0.00  0.00    +0.086 C 
ATOM     13  C   UNL     1      31.486  -8.625 -22.755  0.00  0.00    +0.039 C 
ATOM     14  C   UNL     1      31.542  -8.341 -24.134  0.00  0.00    +0.119 C 
BRANCH  10  16
ATOM     15  N   UNL     1      31.529  -2.414 -21.960  0.00  0.00    +0.384 N 
ATOM     16  C   UNL     1      30.966  -5.064 -23.053  0.00  0.00    +0.092 C 
ATOM     17  C   UNL     1      32.172  -4.230 -23.511  0.00  0.00    -0.002 C 
ATOM     18  C   UNL     1      30.536  -4.656 -21.635  0.00  0.00    -0.002 C 
ATOM     19  C   UNL     1      31.899  -2.736 -23.338  0.00  0.00    -0.080 C 
ATOM     20  C   UNL     1      30.332  -3.144 -21.541  0.00  0.00    -0.080 C 
ATOM     21  H   UNL     1      31.346  -1.412 -21.890  0.00  0.00    -0.085 HD
ATOM     22  H   UNL     1      32.299  -2.685 -21.349  0.00  0.00    -0.085 HD
ENDBRANCH  10  16
ENDBRANCH   2  13
BRANCH   5  23
ATOM     23  O   UNL     1      32.577 -13.335 -22.582  0.00  0.00    -0.472 OA
BRANCH  23  24
ATOM     24  C   UNL     1      33.966 -13.444 -22.893  0.00  0.00    +0.190 C 
ATOM     25  C   UNL     1      34.262 -12.670 -24.172  0.00  0.00    +0.052 C 
BRANCH  24  29
ATOM     26 CL   UNL     1      35.032 -14.800 -20.381  0.00  0.00    -0.080 Cl
ATOM     27 CL   UNL     1      33.570 -14.736 -25.630  0.00  0.00    -0.082 Cl
ATOM     28  F   UNL     1      35.646 -17.610 -20.967  0.00  0.00    -0.203 F 
ATOM     29  C   UNL     1      34.336 -14.904 -23.015  0.00  0.00    +0.041 C 
ATOM     30  C   UNL     1      34.829 -15.582 -21.907  0.00  0.00    +0.085 C 
ATOM     31  C   UNL     1      34.178 -15.551 -24.234  0.00  0.00    +0.058 C 
ATOM     32  C   UNL     1      35.169 -16.930 -22.020  0.00  0.00    +0.150 C 
ATOM     33  C   UNL     1      34.519 -16.899 -24.347  0.00  0.00    +0.014 C 
ATOM     34  C   UNL     1      35.015 -17.588 -23.241  0.00  0.00    +0.031 C 
ENDBRANCH  24  29
ENDBRANCH  23  24
ENDBRANCH   5  23
TORSDOF 5
ENDMDL
MODEL 4
REMARK VINA RESULT:     -10.6      5.774     10.706
REMARK  Name = 11626560
REMARK  5 active torsions:
REMARK  status: ('A' for Active; 'I' for Inactive)
REMARK    1  A    between atoms: C_2  and  C_10
REMARK    2  A    between atoms: C_5  and  O_23
REMARK    3  A    between atoms: N_7  and  C_13
REMARK    4  A    between atoms: O_23  and  C_24
REMARK    5  A    between atoms: C_24  and  C_29
REMARK                            x       y       z     vdW  Elec       q    Type
REMARK                         _______ _______ _______ _____ _____    ______ ____
ROOT
ATOM      1  N   UNL     1      34.031 -17.373 -24.752  0.00  0.00    -0.226 NA
ATOM      2  C   UNL     1      35.172 -17.633 -22.633  0.00  0.00    +0.025 C 
ATOM      3  C   UNL     1      35.141 -16.254 -22.443  0.00  0.00    +0.041 C 
ATOM      4  C   UNL     1      34.607 -18.136 -23.795  0.00  0.00    +0.101 C 
ATOM      5  C   UNL     1      34.557 -15.436 -23.404  0.00  0.00    +0.170 C 
ATOM      6  C   UNL     1      34.021 -16.039 -24.530  0.00  0.00    +0.160 C 
ATOM      7  N   UNL     1      33.423 -15.207 -25.509  0.00  0.00    -0.340 N 
ATOM      8  H   UNL     1      33.033 -15.604 -26.322  0.00  0.00    +0.144 HD
ATOM      9  H   UNL     1      33.399 -14.232 -25.378  0.00  0.00    +0.144 HD
ENDROOT
BRANCH   2  13
ATOM     10  N   UNL     1      36.019 -20.106 -20.211  0.00  0.00    -0.212 N 
ATOM     11  N   UNL     1      37.221 -19.511 -20.222  0.00  0.00    -0.176 NA
ATOM     12  C   UNL     1      35.111 -19.543 -21.054  0.00  0.00    +0.086 C 
ATOM     13  C   UNL     1      35.766 -18.500 -21.663  0.00  0.00    +0.039 C 
ATOM     14  C   UNL     1      37.062 -18.528 -21.112  0.00  0.00    +0.119 C 
BRANCH  10  16
ATOM     15  N   UNL     1      34.758 -22.558 -16.929  0.00  0.00    +0.384 N 
ATOM     16  C   UNL     1      35.790 -21.261 -19.336  0.00  0.00    +0.092 C 
ATOM     17  C   UNL     1      34.298 -21.581 -19.155  0.00  0.00    -0.002 C 
ATOM     18  C   UNL     1      36.480 -21.118 -17.970  0.00  0.00    -0.002 C 
ATOM     19  C   UNL     1      34.106 -22.775 -18.221  0.00  0.00    -0.080 C 
ATOM     20  C   UNL     1      36.196 -22.332 -17.085  0.00  0.00    -0.080 C 
ATOM     21  H   UNL     1      34.615 -23.379 -16.342  0.00  0.00    -0.085 HD
ATOM     22  H   UNL     1      34.349 -21.728 -16.499  0.00  0.00    -0.085 HD
ENDBRANCH  10  16
ENDBRANCH   2  13
BRANCH   5  23
ATOM     23  O   UNL     1      34.526 -14.090 -23.219  0.00  0.00    -0.472 OA
BRANCH  23  24
ATOM     24  C   UNL     1      34.315 -13.619 -21.888  0.00  0.00    +0.190 C 
ATOM     25  C   UNL     1      34.041 -14.804 -20.968  0.00  0.00    +0.052 C 
BRANCH  24  29
ATOM     26 CL   UNL     1      34.355 -11.493 -24.070  0.00  0.00    -0.080 Cl
ATOM     27 CL   UNL     1      32.211 -13.944 -19.700  0.00  0.00    -0.082 Cl
ATOM     28  F   UNL     1      32.018  -9.741 -23.774  0.00  0.00    -0.203 F 
ATOM     29  C   UNL     1      33.177 -12.625 -21.886  0.00  0.00    +0.041 C 
ATOM     30  C   UNL     1      33.135 -11.629 -22.854  0.00  0.00    +0.085 C 
ATOM     31  C   UNL     1      32.186 -12.719 -20.917  0.00  0.00    +0.058 C 
ATOM     32  C   UNL     1      32.084 -10.712 -22.852  0.00  0.00    +0.150 C 
ATOM     33  C   UNL     1      31.136 -11.801 -20.915  0.00  0.00    +0.014 C 
ATOM     34  C   UNL     1      31.085 -10.798 -21.882  0.00  0.00    +0.031 C 
ENDBRANCH  24  29
ENDBRANCH  23  24
ENDBRANCH   5  23
TORSDOF 5
ENDMDL
MODEL 5
REMARK VINA RESULT:     -10.6      1.267      1.786
REMARK  Name = 11626560
REMARK  5 active torsions:
REMARK  status: ('A' for Active; 'I' for Inactive)
REMARK    1  A    between atoms: C_2  and  C_10
REMARK    2  A    between atoms: C_5  and  O_23
REMARK    3  A    between atoms: N_7  and  C_13
REMARK    4  A    between atoms: O_23  and  C_24
REMARK    5  A    between atoms: C_24  and  C_29
REMARK                            x       y       z     vdW  Elec       q    Type
REMARK                         _______ _______ _______ _____ _____    ______ ____
ROOT
ATOM      1  N   UNL     1      32.458 -22.646 -17.492  0.00  0.00    -0.226 NA
ATOM      2  C   UNL     1      34.362 -21.621 -18.578  0.00  0.00    +0.025 C 
ATOM      3  C   UNL     1      35.222 -22.300 -17.718  0.00  0.00    +0.041 C 
ATOM      4  C   UNL     1      33.000 -21.828 -18.422  0.00  0.00    +0.101 C 
ATOM      5  C   UNL     1      34.703 -23.150 -16.749  0.00  0.00    +0.170 C 
ATOM      6  C   UNL     1      33.325 -23.287 -16.677  0.00  0.00    +0.160 C 
ATOM      7  N   UNL     1      32.793 -24.155 -15.691  0.00  0.00    -0.340 N 
ATOM      8  H   UNL     1      31.820 -24.275 -15.613  0.00  0.00    +0.144 HD
ATOM      9  H   UNL     1      33.399 -24.638 -15.082  0.00  0.00    +0.144 HD
ENDROOT
BRANCH   2  13
ATOM     10  N   UNL     1      34.946 -19.234 -21.160  0.00  0.00    -0.212 N 
ATOM     11  N   UNL     1      36.229 -19.597 -21.018  0.00  0.00    -0.176 NA
ATOM     12  C   UNL     1      34.088 -19.886 -20.327  0.00  0.00    +0.086 C 
ATOM     13  C   UNL     1      34.868 -20.740 -19.585  0.00  0.00    +0.039 C 
ATOM     14  C   UNL     1      36.177 -20.519 -20.054  0.00  0.00    +0.119 C 
BRANCH  10  16
ATOM     15  N   UNL     1      35.124 -16.490 -24.447  0.00  0.00    +0.384 N 
ATOM     16  C   UNL     1      34.585 -18.214 -22.150  0.00  0.00    +0.092 C 
ATOM     17  C   UNL     1      34.605 -18.751 -23.589  0.00  0.00    -0.002 C 
ATOM     18  C   UNL     1      35.446 -16.946 -22.037  0.00  0.00    -0.002 C 
ATOM     19  C   UNL     1      34.245 -17.651 -24.587  0.00  0.00    -0.080 C 
ATOM     20  C   UNL     1      35.051 -15.921 -23.101  0.00  0.00    -0.080 C 
ATOM     21  H   UNL     1      34.845 -15.778 -25.122  0.00  0.00    -0.085 HD
ATOM     22  H   UNL     1      36.084 -16.792 -24.615  0.00  0.00    -0.085 HD
ENDBRANCH  10  16
ENDBRANCH   2  13
BRANCH   5  23
ATOM     23  O   UNL     1      35.541 -23.814 -15.911  0.00  0.00    -0.472 OA
BRANCH  23  24
ATOM     24  C   UNL     1      36.096 -23.074 -14.823  0.00  0.00    +0.190 C 
ATOM     25  C   UNL     1      37.138 -22.097 -15.355  0.00  0.00    +0.052 C 
BRANCH  24  29
ATOM     26 CL   UNL     1      38.966 -23.978 -15.304  0.00  0.00    -0.080 Cl
ATOM     27 CL   UNL     1      34.286 -23.915 -12.513  0.00  0.00    -0.082 Cl
ATOM     28  F   UNL     1      39.783 -25.826 -13.174  0.00  0.00    -0.203 F 
ATOM     29  C   UNL     1      36.682 -24.036 -13.815  0.00  0.00    +0.041 C 
ATOM     30  C   UNL     1      37.986 -24.487 -13.976  0.00  0.00    +0.085 C 
ATOM     31  C   UNL     1      35.910 -24.456 -12.740  0.00  0.00    +0.058 C 
ATOM     32  C   UNL     1      38.527 -25.374 -13.045  0.00  0.00    +0.150 C 
ATOM     33  C   UNL     1      36.450 -25.343 -11.810  0.00  0.00    +0.014 C 
ATOM     34  C   UNL     1      37.758 -25.803 -11.962  0.00  0.00    +0.031 C 
ENDBRANCH  24  29
ENDBRANCH  23  24
ENDBRANCH   5  23
TORSDOF 5
ENDMDL
MODEL 6
REMARK VINA RESULT:     -10.5      4.925     10.313
REMARK  Name = 11626560
REMARK  5 active torsions:
REMARK  status: ('A' for Active; 'I' for Inactive)
REMARK    1  A    between atoms: C_2  and  C_10
REMARK    2  A    between atoms: C_5  and  O_23
REMARK    3  A    between atoms: N_7  and  C_13
REMARK    4  A    between atoms: O_23  and  C_24
REMARK    5  A    between atoms: C_24  and  C_29
REMARK                            x       y       z     vdW  Elec       q    Type
REMARK                         _______ _______ _______ _____ _____    ______ ____
ROOT
ATOM      1  N   UNL     1      37.548 -19.900 -20.190  0.00  0.00    -0.226 NA
ATOM      2  C   UNL     1      35.260 -20.526 -19.715  0.00  0.00    +0.025 C 
ATOM      3  C   UNL     1      34.811 -19.636 -20.687  0.00  0.00    +0.041 C 
ATOM      4  C   UNL     1      36.628 -20.617 -19.508  0.00  0.00    +0.101 C 
ATOM      5  C   UNL     1      35.726 -18.880 -21.409  0.00  0.00    +0.170 C 
ATOM      6  C   UNL     1      37.072 -19.047 -21.125  0.00  0.00    +0.160 C 
ATOM      7  N   UNL     1      38.008 -18.279 -21.862  0.00  0.00    -0.340 N 
ATOM      8  H   UNL     1      38.972 -18.373 -21.685  0.00  0.00    +0.144 HD
ATOM      9  H   UNL     1      37.694 -17.649 -22.551  0.00  0.00    +0.144 HD
ENDROOT
BRANCH   2  13
ATOM     10  N   UNL     1      33.544 -22.682 -17.454  0.00  0.00    -0.212 N 
ATOM     11  N   UNL     1      32.456 -22.328 -18.154  0.00  0.00    -0.176 NA
ATOM     12  C   UNL     1      34.698 -22.106 -17.889  0.00  0.00    +0.086 C 
ATOM     13  C   UNL     1      34.341 -21.317 -18.955  0.00  0.00    +0.039 C 
ATOM     14  C   UNL     1      32.949 -21.493 -19.073  0.00  0.00    +0.119 C 
BRANCH  10  16
ATOM     15  N   UNL     1      33.206 -24.276 -13.490  0.00  0.00    +0.384 N 
ATOM     16  C   UNL     1      33.410 -23.613 -16.329  0.00  0.00    +0.092 C 
ATOM     17  C   UNL     1      32.116 -23.395 -15.529  0.00  0.00    -0.002 C 
ATOM     18  C   UNL     1      34.630 -23.595 -15.394  0.00  0.00    -0.002 C 
ATOM     19  C   UNL     1      32.030 -24.370 -14.355  0.00  0.00    -0.080 C 
ATOM     20  C   UNL     1      34.438 -24.562 -14.225  0.00  0.00    -0.080 C 
ATOM     21  H   UNL     1      33.112 -24.947 -12.728  0.00  0.00    -0.085 HD
ATOM     22  H   UNL     1      33.263 -23.323 -13.129  0.00  0.00    -0.085 HD
ENDBRANCH  10  16
ENDBRANCH   2  13
BRANCH   5  23
ATOM     23  O   UNL     1      35.289 -18.012 -22.359  0.00  0.00    -0.472 OA
BRANCH  23  24
ATOM     24  C   UNL     1      35.372 -16.619 -22.057  0.00  0.00    +0.190 C 
ATOM     25  C   UNL     1      34.837 -16.372 -20.651  0.00  0.00    +0.052 C 
BRANCH  24  29
ATOM     26 CL   UNL     1      34.848 -13.679 -21.451  0.00  0.00    -0.080 Cl
ATOM     27 CL   UNL     1      34.511 -18.144 -24.557  0.00  0.00    -0.082 Cl
ATOM     28  F   UNL     1      33.354 -12.471 -23.670  0.00  0.00    -0.203 F 
ATOM     29  C   UNL     1      34.609 -15.837 -23.101  0.00  0.00    +0.041 C 
ATOM     30  C   UNL     1      34.336 -14.492 -22.886  0.00  0.00    +0.085 C 
ATOM     31  C   UNL     1      34.189 -16.474 -24.262  0.00  0.00    +0.058 C 
ATOM     32  C   UNL     1      33.632 -13.771 -23.850  0.00  0.00    +0.150 C 
ATOM     33  C   UNL     1      33.484 -15.752 -25.225  0.00  0.00    +0.014 C 
ATOM     34  C   UNL     1      33.205 -14.402 -25.019  0.00  0.00    +0.031 C 
ENDBRANCH  24  29
ENDBRANCH  23  24
ENDBRANCH   5  23
TORSDOF 5
ENDMDL
MODEL 7
REMARK VINA RESULT:     -10.4      9.201     14.084
REMARK  Name = 11626560
REMARK  5 active torsions:
REMARK  status: ('A' for Active; 'I' for Inactive)
REMARK    1  A    between atoms: C_2  and  C_10
REMARK    2  A    between atoms: C_5  and  O_23
REMARK    3  A    between atoms: N_7  and  C_13
REMARK    4  A    between atoms: O_23  and  C_24
REMARK    5  A    between atoms: C_24  and  C_29
REMARK                            x       y       z     vdW  Elec       q    Type
REMARK                         _______ _______ _______ _____ _____    ______ ____
ROOT
ATOM      1  N   UNL     1      31.851 -11.747 -19.508  0.00  0.00    -0.226 NA
ATOM      2  C   UNL     1      32.649 -12.298 -21.725  0.00  0.00    +0.025 C 
ATOM      3  C   UNL     1      32.480 -10.973 -22.119  0.00  0.00    +0.041 C 
ATOM      4  C   UNL     1      32.321 -12.628 -20.419  0.00  0.00    +0.101 C 
ATOM      5  C   UNL     1      31.998 -10.037 -21.212  0.00  0.00    +0.170 C 
ATOM      6  C   UNL     1      31.701 -10.471 -19.929  0.00  0.00    +0.160 C 
ATOM      7  N   UNL     1      31.212  -9.518 -19.001  0.00  0.00    -0.340 N 
ATOM      8  H   UNL     1      30.991  -9.792 -18.082  0.00  0.00    +0.144 HD
ATOM      9  H   UNL     1      31.093  -8.579 -19.277  0.00  0.00    +0.144 HD
ENDROOT
BRANCH   2  13
ATOM     10  N   UNL     1      34.091 -15.087 -23.412  0.00  0.00    -0.212 N 
ATOM     11  N   UNL     1      33.684 -14.454 -24.522  0.00  0.00    -0.176 NA
ATOM     12  C   UNL     1      33.792 -14.433 -22.256  0.00  0.00    +0.086 C 
ATOM     13  C   UNL     1      33.142 -13.284 -22.636  0.00  0.00    +0.039 C 
ATOM     14  C   UNL     1      33.104 -13.350 -24.043  0.00  0.00    +0.119 C 
BRANCH  10  16
ATOM     15  N   UNL     1      35.098 -19.235 -23.026  0.00  0.00    +0.384 N 
ATOM     16  C   UNL     1      34.789 -16.372 -23.525  0.00  0.00    +0.092 C 
ATOM     17  C   UNL     1      33.968 -17.428 -24.282  0.00  0.00    -0.002 C 
ATOM     18  C   UNL     1      35.247 -16.921 -22.164  0.00  0.00    -0.002 C 
ATOM     19  C   UNL     1      34.723 -18.755 -24.356  0.00  0.00    -0.080 C 
ATOM     20  C   UNL     1      35.948 -18.270 -22.328  0.00  0.00    -0.080 C 
ATOM     21  H   UNL     1      35.606 -20.114 -23.121  0.00  0.00    -0.085 HD
ATOM     22  H   UNL     1      34.247 -19.365 -22.480  0.00  0.00    -0.085 HD
ENDBRANCH  10  16
ENDBRANCH   2  13
BRANCH   5  23
ATOM     23  O   UNL     1      31.834  -8.744 -21.595  0.00  0.00    -0.472 OA
BRANCH  23  24
ATOM     24  C   UNL     1      33.006  -7.931 -21.664  0.00  0.00    +0.190 C 
ATOM     25  C   UNL     1      33.086  -7.052 -20.420  0.00  0.00    +0.052 C 
BRANCH  24  29
ATOM     26 CL   UNL     1      30.489  -6.287 -22.163  0.00  0.00    -0.080 Cl
ATOM     27 CL   UNL     1      35.461  -8.096 -23.469  0.00  0.00    -0.082 Cl
ATOM     28  F   UNL     1      30.755  -4.833 -24.700  0.00  0.00    -0.203 F 
ATOM     29  C   UNL     1      32.971  -7.114 -22.934  0.00  0.00    +0.041 C 
ATOM     30  C   UNL     1      31.852  -6.342 -23.223  0.00  0.00    +0.085 C 
ATOM     31  C   UNL     1      34.058  -7.145 -23.799  0.00  0.00    +0.058 C 
ATOM     32  C   UNL     1      31.821  -5.588 -24.396  0.00  0.00    +0.150 C 
ATOM     33  C   UNL     1      34.025  -6.392 -24.972  0.00  0.00    +0.014 C 
ATOM     34  C   UNL     1      32.907  -5.614 -25.271  0.00  0.00    +0.031 C 
ENDBRANCH  24  29
ENDBRANCH  23  24
ENDBRANCH   5  23
TORSDOF 5
ENDMDL
MODEL 8
REMARK VINA RESULT:     -10.4      1.395      2.462
REMARK  Name = 11626560
REMARK  5 active torsions:
REMARK  status: ('A' for Active; 'I' for Inactive)
REMARK    1  A    between atoms: C_2  and  C_10
REMARK    2  A    between atoms: C_5  and  O_23
REMARK    3  A    between atoms: N_7  and  C_13
REMARK    4  A    between atoms: O_23  and  C_24
REMARK    5  A    between atoms: C_24  and  C_29
REMARK                            x       y       z     vdW  Elec       q    Type
REMARK                         _______ _______ _______ _____ _____    ______ ____
ROOT
ATOM      1  N   UNL     1      32.512 -22.685 -17.538  0.00  0.00    -0.226 NA
ATOM      2  C   UNL     1      34.408 -21.612 -18.592  0.00  0.00    +0.025 C 
ATOM      3  C   UNL     1      35.270 -22.264 -17.715  0.00  0.00    +0.041 C 
ATOM      4  C   UNL     1      33.049 -21.856 -18.461  0.00  0.00    +0.101 C 
ATOM      5  C   UNL     1      34.756 -23.124 -16.752  0.00  0.00    +0.170 C 
ATOM      6  C   UNL     1      33.382 -23.300 -16.705  0.00  0.00    +0.160 C 
ATOM      7  N   UNL     1      32.856 -24.178 -15.726  0.00  0.00    -0.340 N 
ATOM      8  H   UNL     1      31.885 -24.325 -15.665  0.00  0.00    +0.144 HD
ATOM      9  H   UNL     1      33.463 -24.642 -15.104  0.00  0.00    +0.144 HD
ENDROOT
BRANCH   2  13
ATOM     10  N   UNL     1      34.973 -19.214 -21.168  0.00  0.00    -0.212 N 
ATOM     11  N   UNL     1      36.262 -19.549 -21.010  0.00  0.00    -0.176 NA
ATOM     12  C   UNL     1      34.120 -19.883 -20.345  0.00  0.00    +0.086 C 
ATOM     13  C   UNL     1      34.907 -20.720 -19.593  0.00  0.00    +0.039 C 
ATOM     14  C   UNL     1      36.217 -20.472 -20.046  0.00  0.00    +0.119 C 
BRANCH  10  16
ATOM     15  N   UNL     1      35.132 -16.474 -24.460  0.00  0.00    +0.384 N 
ATOM     16  C   UNL     1      34.604 -18.201 -22.163  0.00  0.00    +0.092 C 
ATOM     17  C   UNL     1      34.642 -18.741 -23.601  0.00  0.00    -0.002 C 
ATOM     18  C   UNL     1      35.445 -16.920 -22.047  0.00  0.00    -0.002 C 
ATOM     19  C   UNL     1      34.272 -17.649 -24.604  0.00  0.00    -0.080 C 
ATOM     20  C   UNL     1      35.041 -15.904 -23.115  0.00  0.00    -0.080 C 
ATOM     21  H   UNL     1      34.847 -15.768 -25.139  0.00  0.00    -0.085 HD
ATOM     22  H   UNL     1      36.098 -16.762 -24.620  0.00  0.00    -0.085 HD
ENDBRANCH  10  16
ENDBRANCH   2  13
BRANCH   5  23
ATOM     23  O   UNL     1      35.597 -23.762 -15.895  0.00  0.00    -0.472 OA
BRANCH  23  24
ATOM     24  C   UNL     1      36.147 -22.992 -14.826  0.00  0.00    +0.190 C 
ATOM     25  C   UNL     1      37.209 -22.047 -15.377  0.00  0.00    +0.052 C 
BRANCH  24  29
ATOM     26 CL   UNL     1      34.322 -23.660 -12.480  0.00  0.00    -0.080 Cl
ATOM     27 CL   UNL     1      38.988 -24.014 -15.272  0.00  0.00    -0.082 Cl
ATOM     28  F   UNL     1      35.711 -25.481 -10.644  0.00  0.00    -0.203 F 
ATOM     29  C   UNL     1      36.706 -23.924 -13.777  0.00  0.00    +0.041 C 
ATOM     30  C   UNL     1      35.925 -24.269 -12.681  0.00  0.00    +0.085 C 
ATOM     31  C   UNL     1      37.993 -24.425 -13.921  0.00  0.00    +0.058 C 
ATOM     32  C   UNL     1      36.442 -25.130 -11.712  0.00  0.00    +0.150 C 
ATOM     33  C   UNL     1      38.509 -25.285 -12.953  0.00  0.00    +0.014 C 
ATOM     34  C   UNL     1      37.734 -25.638 -11.848  0.00  0.00    +0.031 C 
ENDBRANCH  24  29
ENDBRANCH  23  24
ENDBRANCH   5  23
TORSDOF 5
ENDMDL
MODEL 9
REMARK VINA RESULT:     -10.3      8.067     12.282
REMARK  Name = 11626560
REMARK  5 active torsions:
REMARK  status: ('A' for Active; 'I' for Inactive)
REMARK    1  A    between atoms: C_2  and  C_10
REMARK    2  A    between atoms: C_5  and  O_23
REMARK    3  A    between atoms: N_7  and  C_13
REMARK    4  A    between atoms: O_23  and  C_24
REMARK    5  A    between atoms: C_24  and  C_29
REMARK                            x       y       z     vdW  Elec       q    Type
REMARK                         _______ _______ _______ _____ _____    ______ ____
ROOT
ATOM      1  N   UNL     1      31.454 -11.058 -19.924  0.00  0.00    -0.226 NA
ATOM      2  C   UNL     1      31.663  -9.834 -22.001  0.00  0.00    +0.025 C 
ATOM      3  C   UNL     1      32.068 -10.998 -22.650  0.00  0.00    +0.041 C 
ATOM      4  C   UNL     1      31.371  -9.919 -20.648  0.00  0.00    +0.101 C 
ATOM      5  C   UNL     1      32.166 -12.188 -21.940  0.00  0.00    +0.170 C 
ATOM      6  C   UNL     1      31.851 -12.166 -20.590  0.00  0.00    +0.160 C 
ATOM      7  N   UNL     1      31.947 -13.379 -19.864  0.00  0.00    -0.340 N 
ATOM      8  H   UNL     1      31.731 -13.398 -18.904  0.00  0.00    +0.144 HD
ATOM      9  H   UNL     1      32.233 -14.204 -20.320  0.00  0.00    +0.144 HD
ENDROOT
BRANCH   2  13
ATOM     10  N   UNL     1      31.229  -6.479 -23.123  0.00  0.00    -0.212 N 
ATOM     11  N   UNL     1      31.537  -6.985 -24.327  0.00  0.00    -0.176 NA
ATOM     12  C   UNL     1      31.225  -7.397 -22.118  0.00  0.00    +0.086 C 
ATOM     13  C   UNL     1      31.553  -8.594 -22.706  0.00  0.00    +0.039 C 
ATOM     14  C   UNL     1      31.734  -8.280 -24.067  0.00  0.00    +0.119 C 
BRANCH  10  16
ATOM     15  N   UNL     1      31.382  -2.377 -21.891  0.00  0.00    +0.384 N 
ATOM     16  C   UNL     1      30.938  -5.048 -22.991  0.00  0.00    +0.092 C 
ATOM     17  C   UNL     1      32.108  -4.160 -23.444  0.00  0.00    -0.002 C 
ATOM     18  C   UNL     1      30.487  -4.661 -21.574  0.00  0.00    -0.002 C 
ATOM     19  C   UNL     1      31.770  -2.680 -23.269  0.00  0.00    -0.080 C 
ATOM     20  C   UNL     1      30.217  -3.159 -21.477  0.00  0.00    -0.080 C 
ATOM     21  H   UNL     1      31.157  -1.385 -21.820  0.00  0.00    -0.085 HD
ATOM     22  H   UNL     1      32.162  -2.616 -21.278  0.00  0.00    -0.085 HD
ENDBRANCH  10  16
ENDBRANCH   2  13
BRANCH   5  23
ATOM     23  O   UNL     1      32.560 -13.324 -22.572  0.00  0.00    -0.472 OA
BRANCH  23  24
ATOM     24  C   UNL     1      33.944 -13.438 -22.907  0.00  0.00    +0.190 C 
ATOM     25  C   UNL     1      34.185 -12.822 -24.281  0.00  0.00    +0.052 C 
BRANCH  24  29
ATOM     26 CL   UNL     1      33.586 -15.044 -25.471  0.00  0.00    -0.080 Cl
ATOM     27 CL   UNL     1      35.038 -14.468 -20.250  0.00  0.00    -0.082 Cl
ATOM     28  F   UNL     1      34.467 -17.809 -25.027  0.00  0.00    -0.203 F 
ATOM     29  C   UNL     1      34.350 -14.892 -22.858  0.00  0.00    +0.041 C 
ATOM     30  C   UNL     1      34.212 -15.681 -23.993  0.00  0.00    +0.085 C 
ATOM     31  C   UNL     1      34.856 -15.423 -21.678  0.00  0.00    +0.058 C 
ATOM     32  C   UNL     1      34.588 -17.024 -23.947  0.00  0.00    +0.150 C 
ATOM     33  C   UNL     1      35.231 -16.765 -21.633  0.00  0.00    +0.014 C 
ATOM     34  C   UNL     1      35.096 -17.566 -22.766  0.00  0.00    +0.031 C 
ENDBRANCH  24  29
ENDBRANCH  23  24
ENDBRANCH   5  23
TORSDOF 5
ENDMDL
