MODEL 1
REMARK VINA RESULT:     -11.6      0.000      0.000
REMARK  Name = 6852140
REMARK  4 active torsions:
REMARK  status: ('A' for Active; 'I' for Inactive)
REMARK    1  A    between atoms: C_2  and  N_18
REMARK    2  A    between atoms: C_5  and  C_13
REMARK    3  A    between atoms: C_19  and  C_21
REMARK    4  A    between atoms: C_24  and  O_28
REMARK                            x       y       z     vdW  Elec       q    Type
REMARK                         _______ _______ _______ _____ _____    ______ ____
ROOT
ATOM      1  C   UNL     1      31.723 -23.736 -15.102  0.00  0.00    +0.014 C 
ATOM      2  C   UNL     1      33.024 -23.362 -15.478  0.00  0.00    +0.050 C 
ATOM      3  C   UNL     1      31.543 -24.574 -13.974  0.00  0.00    +0.001 C 
ATOM      4  C   UNL     1      30.598 -23.300 -15.820  0.00  0.00    +0.004 C 
ATOM      5  C   UNL     1      29.314 -23.682 -15.432  0.00  0.00    +0.031 C 
ATOM      6  C   UNL     1      30.242 -24.948 -13.598  0.00  0.00    +0.000 C 
ATOM      7  C   UNL     1      34.130 -23.806 -14.753  0.00  0.00    +0.015 C 
ATOM      8  C   UNL     1      32.668 -25.010 -13.256  0.00  0.00    +0.000 C 
ATOM      9  C   UNL     1      29.136 -24.504 -14.323  0.00  0.00    +0.003 C 
ATOM     10  C   UNL     1      33.952 -24.628 -13.645  0.00  0.00    +0.001 C 
ENDROOT
BRANCH   5  13
ATOM     11  N   UNL     1      27.246 -22.322 -15.636  0.00  0.00    -0.343 N 
ATOM     12  N   UNL     1      27.955 -23.662 -17.414  0.00  0.00    -0.285 NA
ATOM     13  C   UNL     1      28.158 -23.222 -16.186  0.00  0.00    +0.117 C 
ATOM     14  H   UNL     1      26.470 -22.024 -16.163  0.00  0.00    +0.144 HD
ATOM     15  H   UNL     1      27.378 -21.985 -14.720  0.00  0.00    +0.144 HD
ATOM     16  H   UNL     1      27.174 -23.351 -17.926  0.00  0.00    +0.188 HD
ENDBRANCH   5  13
BRANCH   2  18
ATOM     17  O   UNL     1      33.785 -24.129 -18.203  0.00  0.00    -0.270 OA
ATOM     18  N   UNL     1      33.263 -22.537 -16.584  0.00  0.00    -0.280 N 
ATOM     19  C   UNL     1      33.624 -22.959 -17.863  0.00  0.00    +0.249 C 
ATOM     20  H   UNL     1      33.168 -21.567 -16.446  0.00  0.00    +0.155 HD
BRANCH  19  21
ATOM     21  C   UNL     1      33.859 -21.858 -18.815  0.00  0.00    +0.053 C 
ATOM     22  C   UNL     1      35.131 -21.339 -18.994  0.00  0.00    +0.016 C 
ATOM     23  C   UNL     1      32.773 -21.363 -19.522  0.00  0.00    +0.004 C 
ATOM     24  C   UNL     1      35.323 -20.297 -19.901  0.00  0.00    +0.130 C 
ATOM     25  C   UNL     1      36.297 -21.878 -18.229  0.00  0.00    +0.034 C 
ATOM     26  C   UNL     1      32.965 -20.321 -20.429  0.00  0.00    +0.003 C 
ATOM     27  C   UNL     1      34.241 -19.788 -20.619  0.00  0.00    +0.036 C 
BRANCH  24  28
ATOM     28  O   UNL     1      36.562 -19.763 -20.101  0.00  0.00    -0.506 OA
ATOM     29  H   UNL     1      36.870 -19.611 -20.972  0.00  0.00    +0.292 HD
ENDBRANCH  24  28
ENDBRANCH  19  21
ENDBRANCH   2  18
TORSDOF 4
ENDMDL
MODEL 2
REMARK VINA RESULT:     -10.9      1.879      4.343
REMARK  Name = 6852140
REMARK  4 active torsions:
REMARK  status: ('A' for Active; 'I' for Inactive)
REMARK    1  A    between atoms: C_2  and  N_18
REMARK    2  A    between atoms: C_5  and  C_13
REMARK    3  A    between atoms: C_19  and  C_21
REMARK    4  A    between atoms: C_24  and  O_28
REMARK                            x       y       z     vdW  Elec       q    Type
REMARK                         _______ _______ _______ _____ _____    ______ ____
ROOT
ATOM      1  C   UNL     1      33.400 -23.522 -15.025  0.00  0.00    +0.014 C 
ATOM      2  C   UNL     1      32.526 -23.037 -16.013  0.00  0.00    +0.050 C 
ATOM      3  C   UNL     1      32.886 -24.333 -13.985  0.00  0.00    +0.001 C 
ATOM      4  C   UNL     1      34.771 -23.218 -15.046  0.00  0.00    +0.004 C 
ATOM      5  C   UNL     1      35.623 -23.708 -14.056  0.00  0.00    +0.031 C 
ATOM      6  C   UNL     1      33.759 -24.818 -12.997  0.00  0.00    +0.000 C 
ATOM      7  C   UNL     1      31.166 -23.349 -15.975  0.00  0.00    +0.015 C 
ATOM      8  C   UNL     1      31.515 -24.637 -13.964  0.00  0.00    +0.000 C 
ATOM      9  C   UNL     1      35.119 -24.507 -13.034  0.00  0.00    +0.003 C 
ATOM     10  C   UNL     1      30.662 -24.147 -14.953  0.00  0.00    +0.001 C 
ENDROOT
BRANCH   5  13
ATOM     11  N   UNL     1      37.742 -23.333 -15.295  0.00  0.00    -0.343 N 
ATOM     12  N   UNL     1      37.689 -23.142 -12.967  0.00  0.00    -0.285 NA
ATOM     13  C   UNL     1      37.041 -23.386 -14.092  0.00  0.00    +0.117 C 
ATOM     14  H   UNL     1      38.702 -23.113 -15.296  0.00  0.00    +0.144 HD
ATOM     15  H   UNL     1      37.278 -23.514 -16.145  0.00  0.00    +0.144 HD
ATOM     16  H   UNL     1      38.649 -22.924 -12.989  0.00  0.00    +0.188 HD
ENDBRANCH   5  13
BRANCH   2  18
ATOM     17  O   UNL     1      33.843 -23.843 -18.505  0.00  0.00    -0.270 OA
ATOM     18  N   UNL     1      32.977 -22.230 -17.065  0.00  0.00    -0.280 N 
ATOM     19  C   UNL     1      33.599 -22.671 -18.232  0.00  0.00    +0.249 C 
ATOM     20  H   UNL     1      32.841 -21.259 -16.971  0.00  0.00    +0.155 HD
BRANCH  19  21
ATOM     21  C   UNL     1      34.009 -21.584 -19.141  0.00  0.00    +0.053 C 
ATOM     22  C   UNL     1      35.321 -21.138 -19.161  0.00  0.00    +0.016 C 
ATOM     23  C   UNL     1      33.047 -21.026 -19.969  0.00  0.00    +0.004 C 
ATOM     24  C   UNL     1      35.680 -20.109 -20.031  0.00  0.00    +0.130 C 
ATOM     25  C   UNL     1      36.354 -21.744 -18.266  0.00  0.00    +0.034 C 
ATOM     26  C   UNL     1      33.406 -19.997 -20.838  0.00  0.00    +0.003 C 
ATOM     27  C   UNL     1      34.723 -19.538 -20.870  0.00  0.00    +0.036 C 
BRANCH  24  28
ATOM     28  O   UNL     1      36.962 -19.647 -20.076  0.00  0.00    -0.506 OA
ATOM     29  H   UNL     1      37.541 -19.939 -20.752  0.00  0.00    +0.292 HD
ENDBRANCH  24  28
ENDBRANCH  19  21
ENDBRANCH   2  18
TORSDOF 4
ENDMDL
MODEL 3
REMARK VINA RESULT:     -10.6      0.929      1.292
REMARK  Name = 6852140
REMARK  4 active torsions:
REMARK  status: ('A' for Active; 'I' for Inactive)
REMARK    1  A    between atoms: C_2  and  N_18
REMARK    2  A    between atoms: C_5  and  C_13
REMARK    3  A    between atoms: C_19  and  C_21
REMARK    4  A    between atoms: C_24  and  O_28
REMARK                            x       y       z     vdW  Elec       q    Type
REMARK                         _______ _______ _______ _____ _____    ______ ____
ROOT
ATOM      1  C   UNL     1      33.106 -23.738 -14.927  0.00  0.00    +0.014 C 
ATOM      2  C   UNL     1      34.288 -23.218 -15.480  0.00  0.00    +0.050 C 
ATOM      3  C   UNL     1      33.184 -24.559 -13.777  0.00  0.00    +0.001 C 
ATOM      4  C   UNL     1      31.850 -23.464 -15.492  0.00  0.00    +0.004 C 
ATOM      5  C   UNL     1      30.687 -23.990 -14.930  0.00  0.00    +0.031 C 
ATOM      6  C   UNL     1      32.002 -25.079 -13.224  0.00  0.00    +0.000 C 
ATOM      7  C   UNL     1      35.528 -23.502 -14.906  0.00  0.00    +0.015 C 
ATOM      8  C   UNL     1      34.440 -24.833 -13.212  0.00  0.00    +0.000 C 
ATOM      9  C   UNL     1      30.762 -24.795 -13.798  0.00  0.00    +0.003 C 
ATOM     10  C   UNL     1      35.603 -24.308 -13.775  0.00  0.00    +0.001 C 
ENDROOT
BRANCH   5  13
ATOM     11  N   UNL     1      29.259 -22.744 -16.535  0.00  0.00    -0.343 N 
ATOM     12  N   UNL     1      28.315 -24.333 -15.106  0.00  0.00    -0.285 NA
ATOM     13  C   UNL     1      29.393 -23.696 -15.526  0.00  0.00    +0.117 C 
ATOM     14  H   UNL     1      28.374 -22.561 -16.924  0.00  0.00    +0.144 HD
ATOM     15  H   UNL     1      30.050 -22.256 -16.860  0.00  0.00    +0.144 HD
ATOM     16  H   UNL     1      27.438 -24.136 -15.508  0.00  0.00    +0.188 HD
ENDBRANCH   5  13
BRANCH   2  18
ATOM     17  O   UNL     1      33.886 -23.988 -18.281  0.00  0.00    -0.270 OA
ATOM     18  N   UNL     1      34.274 -22.402 -16.619  0.00  0.00    -0.280 N 
ATOM     19  C   UNL     1      34.076 -22.825 -17.932  0.00  0.00    +0.249 C 
ATOM     20  H   UNL     1      34.416 -21.438 -16.478  0.00  0.00    +0.155 HD
BRANCH  19  21
ATOM     21  C   UNL     1      34.163 -21.743 -18.931  0.00  0.00    +0.053 C 
ATOM     22  C   UNL     1      35.387 -21.184 -19.261  0.00  0.00    +0.016 C 
ATOM     23  C   UNL     1      32.989 -21.307 -19.525  0.00  0.00    +0.004 C 
ATOM     24  C   UNL     1      35.439 -20.163 -20.209  0.00  0.00    +0.130 C 
ATOM     25  C   UNL     1      36.650 -21.660 -18.617  0.00  0.00    +0.034 C 
ATOM     26  C   UNL     1      33.040 -20.285 -20.473  0.00  0.00    +0.003 C 
ATOM     27  C   UNL     1      34.266 -19.713 -20.815  0.00  0.00    +0.036 C 
BRANCH  24  28
ATOM     28  O   UNL     1      36.627 -19.591 -20.557  0.00  0.00    -0.506 OA
ATOM     29  H   UNL     1      37.029 -18.966 -19.987  0.00  0.00    +0.292 HD
ENDBRANCH  24  28
ENDBRANCH  19  21
ENDBRANCH   2  18
TORSDOF 4
ENDMDL
MODEL 4
REMARK VINA RESULT:     -10.3      2.632      6.689
REMARK  Name = 6852140
REMARK  4 active torsions:
REMARK  status: ('A' for Active; 'I' for Inactive)
REMARK    1  A    between atoms: C_2  and  N_18
REMARK    2  A    between atoms: C_5  and  C_13
REMARK    3  A    between atoms: C_19  and  C_21
REMARK    4  A    between atoms: C_24  and  O_28
REMARK                            x       y       z     vdW  Elec       q    Type
REMARK                         _______ _______ _______ _____ _____    ______ ____
ROOT
ATOM      1  C   UNL     1      34.977 -22.373 -17.187  0.00  0.00    +0.014 C 
ATOM      2  C   UNL     1      34.455 -23.143 -16.133  0.00  0.00    +0.050 C 
ATOM      3  C   UNL     1      36.365 -22.096 -17.220  0.00  0.00    +0.001 C 
ATOM      4  C   UNL     1      34.152 -21.872 -18.207  0.00  0.00    +0.004 C 
ATOM      5  C   UNL     1      34.687 -21.109 -19.245  0.00  0.00    +0.031 C 
ATOM      6  C   UNL     1      36.886 -21.327 -18.273  0.00  0.00    +0.000 C 
ATOM      7  C   UNL     1      35.290 -23.632 -15.128  0.00  0.00    +0.015 C 
ATOM      8  C   UNL     1      37.190 -22.598 -16.200  0.00  0.00    +0.000 C 
ATOM      9  C   UNL     1      36.051 -20.838 -19.279  0.00  0.00    +0.003 C 
ATOM     10  C   UNL     1      36.654 -23.360 -15.162  0.00  0.00    +0.001 C 
ENDROOT
BRANCH   5  13
ATOM     11  N   UNL     1      34.341 -19.947 -21.412  0.00  0.00    -0.343 N 
ATOM     12  N   UNL     1      32.511 -20.741 -20.195  0.00  0.00    -0.285 NA
ATOM     13  C   UNL     1      33.820 -20.597 -20.294  0.00  0.00    +0.117 C 
ATOM     14  H   UNL     1      33.735 -19.608 -22.110  0.00  0.00    +0.144 HD
ATOM     15  H   UNL     1      35.314 -19.827 -21.503  0.00  0.00    +0.144 HD
ATOM     16  H   UNL     1      31.922 -20.396 -20.904  0.00  0.00    +0.188 HD
ENDBRANCH   5  13
BRANCH   2  18
ATOM     17  O   UNL     1      32.480 -22.169 -14.198  0.00  0.00    -0.270 OA
ATOM     18  N   UNL     1      33.091 -23.448 -16.047  0.00  0.00    -0.280 N 
ATOM     19  C   UNL     1      32.195 -22.952 -15.101  0.00  0.00    +0.249 C 
ATOM     20  H   UNL     1      32.730 -24.071 -16.719  0.00  0.00    +0.155 HD
BRANCH  19  21
ATOM     21  C   UNL     1      30.828 -23.491 -15.229  0.00  0.00    +0.053 C 
ATOM     22  C   UNL     1      30.418 -24.565 -14.456  0.00  0.00    +0.016 C 
ATOM     23  C   UNL     1      29.972 -22.891 -16.140  0.00  0.00    +0.004 C 
ATOM     24  C   UNL     1      29.119 -25.054 -14.598  0.00  0.00    +0.130 C 
ATOM     25  C   UNL     1      31.346 -25.207 -13.475  0.00  0.00    +0.034 C 
ATOM     26  C   UNL     1      28.674 -23.379 -16.282  0.00  0.00    +0.003 C 
ATOM     27  C   UNL     1      28.247 -24.461 -15.511  0.00  0.00    +0.036 C 
BRANCH  24  28
ATOM     28  O   UNL     1      28.683 -26.110 -13.854  0.00  0.00    -0.506 OA
ATOM     29  H   UNL     1      29.303 -26.701 -13.474  0.00  0.00    +0.292 HD
ENDBRANCH  24  28
ENDBRANCH  19  21
ENDBRANCH   2  18
TORSDOF 4
ENDMDL
MODEL 5
REMARK VINA RESULT:     -10.0      1.765      4.121
REMARK  Name = 6852140
REMARK  4 active torsions:
REMARK  status: ('A' for Active; 'I' for Inactive)
REMARK    1  A    between atoms: C_2  and  N_18
REMARK    2  A    between atoms: C_5  and  C_13
REMARK    3  A    between atoms: C_19  and  C_21
REMARK    4  A    between atoms: C_24  and  O_28
REMARK                            x       y       z     vdW  Elec       q    Type
REMARK                         _______ _______ _______ _____ _____    ______ ____
ROOT
ATOM      1  C   UNL     1      32.106 -23.536 -15.081  0.00  0.00    +0.014 C 
ATOM      2  C   UNL     1      31.766 -22.846 -16.256  0.00  0.00    +0.050 C 
ATOM      3  C   UNL     1      31.083 -24.153 -14.321  0.00  0.00    +0.001 C 
ATOM      4  C   UNL     1      33.437 -23.626 -14.642  0.00  0.00    +0.004 C 
ATOM      5  C   UNL     1      33.756 -24.315 -13.473  0.00  0.00    +0.031 C 
ATOM      6  C   UNL     1      31.423 -24.844 -13.145  0.00  0.00    +0.000 C 
ATOM      7  C   UNL     1      30.437 -22.766 -16.676  0.00  0.00    +0.015 C 
ATOM      8  C   UNL     1      29.752 -24.063 -14.759  0.00  0.00    +0.000 C 
ATOM      9  C   UNL     1      32.752 -24.924 -12.726  0.00  0.00    +0.003 C 
ATOM     10  C   UNL     1      29.433 -23.373 -15.929  0.00  0.00    +0.001 C 
ENDROOT
BRANCH   5  13
ATOM     11  N   UNL     1      35.938 -25.495 -13.359  0.00  0.00    -0.343 N 
ATOM     12  N   UNL     1      35.658 -23.430 -12.302  0.00  0.00    -0.285 NA
ATOM     13  C   UNL     1      35.139 -24.401 -13.032  0.00  0.00    +0.117 C 
ATOM     14  H   UNL     1      36.872 -25.532 -13.050  0.00  0.00    +0.144 HD
ATOM     15  H   UNL     1      35.569 -26.230 -13.900  0.00  0.00    +0.144 HD
ATOM     16  H   UNL     1      36.595 -23.486 -12.003  0.00  0.00    +0.188 HD
ENDBRANCH   5  13
BRANCH   2  18
ATOM     17  O   UNL     1      33.540 -24.028 -18.269  0.00  0.00    -0.270 OA
ATOM     18  N   UNL     1      32.734 -22.215 -17.048  0.00  0.00    -0.280 N 
ATOM     19  C   UNL     1      33.553 -22.831 -17.993  0.00  0.00    +0.249 C 
ATOM     20  H   UNL     1      32.847 -21.244 -16.925  0.00  0.00    +0.155 HD
BRANCH  19  21
ATOM     21  C   UNL     1      34.514 -21.918 -18.640  0.00  0.00    +0.053 C 
ATOM     22  C   UNL     1      34.093 -21.019 -19.607  0.00  0.00    +0.016 C 
ATOM     23  C   UNL     1      35.844 -21.988 -18.252  0.00  0.00    +0.004 C 
ATOM     24  C   UNL     1      35.025 -20.168 -20.201  0.00  0.00    +0.130 C 
ATOM     25  C   UNL     1      32.658 -20.948 -20.020  0.00  0.00    +0.034 C 
ATOM     26  C   UNL     1      36.775 -21.137 -18.846  0.00  0.00    +0.003 C 
ATOM     27  C   UNL     1      36.366 -20.227 -19.821  0.00  0.00    +0.036 C 
BRANCH  24  28
ATOM     28  O   UNL     1      34.644 -19.272 -21.156  0.00  0.00    -0.506 OA
ATOM     29  H   UNL     1      34.181 -18.496 -20.910  0.00  0.00    +0.292 HD
ENDBRANCH  24  28
ENDBRANCH  19  21
ENDBRANCH   2  18
TORSDOF 4
ENDMDL
MODEL 6
REMARK VINA RESULT:     -10.0      2.672      7.207
REMARK  Name = 6852140
REMARK  4 active torsions:
REMARK  status: ('A' for Active; 'I' for Inactive)
REMARK    1  A    between atoms: C_2  and  N_18
REMARK    2  A    between atoms: C_5  and  C_13
REMARK    3  A    between atoms: C_19  and  C_21
REMARK    4  A    between atoms: C_24  and  O_28
REMARK                            x       y       z     vdW  Elec       q    Type
REMARK                         _______ _______ _______ _____ _____    ______ ____
ROOT
ATOM      1  C   UNL     1      35.105 -22.615 -16.689  0.00  0.00    +0.014 C 
ATOM      2  C   UNL     1      33.825 -22.787 -17.243  0.00  0.00    +0.050 C 
ATOM      3  C   UNL     1      36.114 -21.989 -17.461  0.00  0.00    +0.001 C 
ATOM      4  C   UNL     1      35.407 -23.053 -15.389  0.00  0.00    +0.004 C 
ATOM      5  C   UNL     1      36.684 -22.875 -14.857  0.00  0.00    +0.031 C 
ATOM      6  C   UNL     1      37.394 -21.817 -16.907  0.00  0.00    +0.000 C 
ATOM      7  C   UNL     1      33.544 -22.347 -18.536  0.00  0.00    +0.015 C 
ATOM      8  C   UNL     1      35.812 -21.551 -18.760  0.00  0.00    +0.000 C 
ATOM      9  C   UNL     1      37.675 -22.257 -15.613  0.00  0.00    +0.003 C 
ATOM     10  C   UNL     1      34.536 -21.730 -19.293  0.00  0.00    +0.001 C 
ENDROOT
BRANCH   5  13
ATOM     11  N   UNL     1      36.059 -23.185 -12.473  0.00  0.00    -0.343 N 
ATOM     12  N   UNL     1      38.146 -23.897 -13.247  0.00  0.00    -0.285 NA
ATOM     13  C   UNL     1      36.980 -23.333 -13.509  0.00  0.00    +0.117 C 
ATOM     14  H   UNL     1      36.281 -23.501 -11.568  0.00  0.00    +0.144 HD
ATOM     15  H   UNL     1      35.186 -22.764 -12.647  0.00  0.00    +0.144 HD
ATOM     16  H   UNL     1      38.348 -24.207 -12.335  0.00  0.00    +0.188 HD
ENDBRANCH   5  13
BRANCH   2  18
ATOM     17  O   UNL     1      31.038 -21.924 -16.955  0.00  0.00    -0.270 OA
ATOM     18  N   UNL     1      32.789 -23.401 -16.528  0.00  0.00    -0.280 N 
ATOM     19  C   UNL     1      31.476 -22.943 -16.426  0.00  0.00    +0.249 C 
ATOM     20  H   UNL     1      33.008 -24.235 -16.053  0.00  0.00    +0.155 HD
BRANCH  19  21
ATOM     21  C   UNL     1      30.616 -23.774 -15.563  0.00  0.00    +0.053 C 
ATOM     22  C   UNL     1      30.957 -24.004 -14.239  0.00  0.00    +0.016 C 
ATOM     23  C   UNL     1      29.462 -24.312 -16.113  0.00  0.00    +0.004 C 
ATOM     24  C   UNL     1      30.125 -24.794 -13.446  0.00  0.00    +0.130 C 
ATOM     25  C   UNL     1      32.202 -23.420 -13.652  0.00  0.00    +0.034 C 
ATOM     26  C   UNL     1      28.630 -25.101 -15.320  0.00  0.00    +0.003 C 
ATOM     27  C   UNL     1      28.961 -25.343 -13.986  0.00  0.00    +0.036 C 
BRANCH  24  28
ATOM     28  O   UNL     1      30.431 -25.041 -12.141  0.00  0.00    -0.506 OA
ATOM     29  H   UNL     1      30.466 -25.923 -11.828  0.00  0.00    +0.292 HD
ENDBRANCH  24  28
ENDBRANCH  19  21
ENDBRANCH   2  18
TORSDOF 4
ENDMDL
MODEL 7
REMARK VINA RESULT:      -9.7      2.854      6.892
REMARK  Name = 6852140
REMARK  4 active torsions:
REMARK  status: ('A' for Active; 'I' for Inactive)
REMARK    1  A    between atoms: C_2  and  N_18
REMARK    2  A    between atoms: C_5  and  C_13
REMARK    3  A    between atoms: C_19  and  C_21
REMARK    4  A    between atoms: C_24  and  O_28
REMARK                            x       y       z     vdW  Elec       q    Type
REMARK                         _______ _______ _______ _____ _____    ______ ____
ROOT
ATOM      1  C   UNL     1      35.313 -23.184 -15.733  0.00  0.00    +0.014 C 
ATOM      2  C   UNL     1      34.297 -22.891 -16.658  0.00  0.00    +0.050 C 
ATOM      3  C   UNL     1      36.637 -22.765 -16.004  0.00  0.00    +0.001 C 
ATOM      4  C   UNL     1      35.044 -23.885 -14.546  0.00  0.00    +0.004 C 
ATOM      5  C   UNL     1      36.065 -24.168 -13.640  0.00  0.00    +0.031 C 
ATOM      6  C   UNL     1      37.653 -23.058 -15.079  0.00  0.00    +0.000 C 
ATOM      7  C   UNL     1      34.583 -22.195 -17.833  0.00  0.00    +0.015 C 
ATOM      8  C   UNL     1      36.907 -22.063 -17.191  0.00  0.00    +0.000 C 
ATOM      9  C   UNL     1      37.367 -23.754 -13.904  0.00  0.00    +0.003 C 
ATOM     10  C   UNL     1      35.885 -21.782 -18.098  0.00  0.00    +0.001 C 
ENDROOT
BRANCH   5  13
ATOM     11  N   UNL     1      36.673 -25.813 -11.882  0.00  0.00    -0.343 N 
ATOM     12  N   UNL     1      34.626 -24.690 -11.788  0.00  0.00    -0.285 NA
ATOM     13  C   UNL     1      35.771 -24.894 -12.414  0.00  0.00    +0.117 C 
ATOM     14  H   UNL     1      36.453 -26.294 -11.051  0.00  0.00    +0.144 HD
ATOM     15  H   UNL     1      37.531 -25.981 -12.335  0.00  0.00    +0.144 HD
ATOM     16  H   UNL     1      34.425 -25.181 -10.958  0.00  0.00    +0.188 HD
ENDBRANCH   5  13
BRANCH   2  18
ATOM     17  O   UNL     1      32.469 -22.070 -14.518  0.00  0.00    -0.270 OA
ATOM     18  N   UNL     1      32.969 -23.282 -16.445  0.00  0.00    -0.280 N 
ATOM     19  C   UNL     1      32.144 -22.857 -15.405  0.00  0.00    +0.249 C 
ATOM     20  H   UNL     1      32.582 -23.917 -17.090  0.00  0.00    +0.155 HD
BRANCH  19  21
ATOM     21  C   UNL     1      30.806 -23.477 -15.408  0.00  0.00    +0.053 C 
ATOM     22  C   UNL     1      30.538 -24.583 -14.616  0.00  0.00    +0.016 C 
ATOM     23  C   UNL     1      29.830 -22.922 -16.223  0.00  0.00    +0.004 C 
ATOM     24  C   UNL     1      29.264 -25.149 -14.640  0.00  0.00    +0.130 C 
ATOM     25  C   UNL     1      31.595 -25.176 -13.740  0.00  0.00    +0.034 C 
ATOM     26  C   UNL     1      28.556 -23.488 -16.246  0.00  0.00    +0.003 C 
ATOM     27  C   UNL     1      28.272 -24.602 -15.455  0.00  0.00    +0.036 C 
BRANCH  24  28
ATOM     28  O   UNL     1      28.968 -26.237 -13.874  0.00  0.00    -0.506 OA
ATOM     29  H   UNL     1      28.315 -26.845 -14.159  0.00  0.00    +0.292 HD
ENDBRANCH  24  28
ENDBRANCH  19  21
ENDBRANCH   2  18
TORSDOF 4
ENDMDL
MODEL 8
REMARK VINA RESULT:      -9.7      1.168      1.893
REMARK  Name = 6852140
REMARK  4 active torsions:
REMARK  status: ('A' for Active; 'I' for Inactive)
REMARK    1  A    between atoms: C_2  and  N_18
REMARK    2  A    between atoms: C_5  and  C_13
REMARK    3  A    between atoms: C_19  and  C_21
REMARK    4  A    between atoms: C_24  and  O_28
REMARK                            x       y       z     vdW  Elec       q    Type
REMARK                         _______ _______ _______ _____ _____    ______ ____
ROOT
ATOM      1  C   UNL     1      32.729 -23.646 -14.621  0.00  0.00    +0.014 C 
ATOM      2  C   UNL     1      34.045 -23.258 -14.920  0.00  0.00    +0.050 C 
ATOM      3  C   UNL     1      32.477 -24.381 -13.438  0.00  0.00    +0.001 C 
ATOM      4  C   UNL     1      31.658 -23.325 -15.471  0.00  0.00    +0.004 C 
ATOM      5  C   UNL     1      30.358 -23.720 -15.158  0.00  0.00    +0.031 C 
ATOM      6  C   UNL     1      31.160 -24.770 -13.138  0.00  0.00    +0.000 C 
ATOM      7  C   UNL     1      35.097 -23.587 -14.065  0.00  0.00    +0.015 C 
ATOM      8  C   UNL     1      33.547 -24.703 -12.587  0.00  0.00    +0.000 C 
ATOM      9  C   UNL     1      30.109 -24.440 -13.994  0.00  0.00    +0.003 C 
ATOM     10  C   UNL     1      34.848 -24.308 -12.901  0.00  0.00    +0.001 C 
ENDROOT
BRANCH   5  13
ATOM     11  N   UNL     1      28.335 -24.337 -16.460  0.00  0.00    -0.343 N 
ATOM     12  N   UNL     1      29.128 -22.139 -16.485  0.00  0.00    -0.285 NA
ATOM     13  C   UNL     1      29.259 -23.378 -16.048  0.00  0.00    +0.117 C 
ATOM     14  H   UNL     1      27.599 -24.084 -17.063  0.00  0.00    +0.144 HD
ATOM     15  H   UNL     1      28.417 -25.267 -16.148  0.00  0.00    +0.144 HD
ATOM     16  H   UNL     1      28.384 -21.905 -17.088  0.00  0.00    +0.188 HD
ENDBRANCH   5  13
BRANCH   2  18
ATOM     17  O   UNL     1      33.972 -24.145 -17.714  0.00  0.00    -0.270 OA
ATOM     18  N   UNL     1      34.356 -22.531 -16.077  0.00  0.00    -0.280 N 
ATOM     19  C   UNL     1      34.302 -23.007 -17.387  0.00  0.00    +0.249 C 
ATOM     20  H   UNL     1      34.638 -21.596 -15.954  0.00  0.00    +0.155 HD
BRANCH  19  21
ATOM     21  C   UNL     1      34.734 -22.027 -18.400  0.00  0.00    +0.053 C 
ATOM     22  C   UNL     1      33.800 -21.311 -19.132  0.00  0.00    +0.016 C 
ATOM     23  C   UNL     1      36.095 -21.844 -18.595  0.00  0.00    +0.004 C 
ATOM     24  C   UNL     1      34.237 -20.390 -20.084  0.00  0.00    +0.130 C 
ATOM     25  C   UNL     1      32.334 -21.512 -18.916  0.00  0.00    +0.034 C 
ATOM     26  C   UNL     1      36.532 -20.923 -19.546  0.00  0.00    +0.003 C 
ATOM     27  C   UNL     1      35.603 -20.196 -20.291  0.00  0.00    +0.036 C 
BRANCH  24  28
ATOM     28  O   UNL     1      33.345 -19.669 -20.821  0.00  0.00    -0.506 OA
ATOM     29  H   UNL     1      32.630 -19.238 -20.398  0.00  0.00    +0.292 HD
ENDBRANCH  24  28
ENDBRANCH  19  21
ENDBRANCH   2  18
TORSDOF 4
ENDMDL
MODEL 9
REMARK VINA RESULT:      -9.6      2.621      5.298
REMARK  Name = 6852140
REMARK  4 active torsions:
REMARK  status: ('A' for Active; 'I' for Inactive)
REMARK    1  A    between atoms: C_2  and  N_18
REMARK    2  A    between atoms: C_5  and  C_13
REMARK    3  A    between atoms: C_19  and  C_21
REMARK    4  A    between atoms: C_24  and  O_28
REMARK                            x       y       z     vdW  Elec       q    Type
REMARK                         _______ _______ _______ _____ _____    ______ ____
ROOT
ATOM      1  C   UNL     1      34.886 -23.787 -14.777  0.00  0.00    +0.014 C 
ATOM      2  C   UNL     1      34.022 -23.045 -15.601  0.00  0.00    +0.050 C 
ATOM      3  C   UNL     1      34.343 -24.546 -13.712  0.00  0.00    +0.001 C 
ATOM      4  C   UNL     1      36.275 -23.789 -14.984  0.00  0.00    +0.004 C 
ATOM      5  C   UNL     1      37.116 -24.530 -14.155  0.00  0.00    +0.031 C 
ATOM      6  C   UNL     1      35.206 -25.287 -12.888  0.00  0.00    +0.000 C 
ATOM      7  C   UNL     1      32.645 -23.054 -15.379  0.00  0.00    +0.015 C 
ATOM      8  C   UNL     1      32.954 -24.544 -13.505  0.00  0.00    +0.000 C 
ATOM      9  C   UNL     1      36.584 -25.278 -13.110  0.00  0.00    +0.003 C 
ATOM     10  C   UNL     1      32.112 -23.802 -14.333  0.00  0.00    +0.001 C 
ENDROOT
BRANCH   5  13
ATOM     11  N   UNL     1      39.412 -25.313 -13.620  0.00  0.00    -0.343 N 
ATOM     12  N   UNL     1      39.066 -23.753 -15.325  0.00  0.00    -0.285 NA
ATOM     13  C   UNL     1      38.553 -24.523 -14.383  0.00  0.00    +0.117 C 
ATOM     14  H   UNL     1      40.381 -25.292 -13.791  0.00  0.00    +0.144 HD
ATOM     15  H   UNL     1      39.049 -25.891 -12.911  0.00  0.00    +0.144 HD
ATOM     16  H   UNL     1      40.038 -23.748 -15.481  0.00  0.00    +0.188 HD
ENDBRANCH   5  13
BRANCH   2  18
ATOM     17  O   UNL     1      33.840 -23.585 -18.477  0.00  0.00    -0.270 OA
ATOM     18  N   UNL     1      34.501 -22.275 -16.668  0.00  0.00    -0.280 N 
ATOM     19  C   UNL     1      34.385 -22.582 -18.023  0.00  0.00    +0.249 C 
ATOM     20  H   UNL     1      34.964 -21.436 -16.440  0.00  0.00    +0.155 HD
BRANCH  19  21
ATOM     21  C   UNL     1      35.031 -21.605 -18.918  0.00  0.00    +0.053 C 
ATOM     22  C   UNL     1      34.274 -20.837 -19.789  0.00  0.00    +0.016 C 
ATOM     23  C   UNL     1      36.411 -21.478 -18.860  0.00  0.00    +0.004 C 
ATOM     24  C   UNL     1      34.912 -19.921 -20.624  0.00  0.00    +0.130 C 
ATOM     25  C   UNL     1      32.787 -20.979 -19.846  0.00  0.00    +0.034 C 
ATOM     26  C   UNL     1      37.049 -20.561 -19.695  0.00  0.00    +0.003 C 
ATOM     27  C   UNL     1      36.300 -19.782 -20.578  0.00  0.00    +0.036 C 
BRANCH  24  28
ATOM     28  O   UNL     1      34.197 -19.150 -21.493  0.00  0.00    -0.506 OA
ATOM     29  H   UNL     1      33.390 -19.469 -21.844  0.00  0.00    +0.292 HD
ENDBRANCH  24  28
ENDBRANCH  19  21
ENDBRANCH   2  18
TORSDOF 4
ENDMDL
