MODEL 1
REMARK VINA RESULT:     -12.9      0.000      0.000
REMARK  Name = 9800765
REMARK  5 active torsions:
REMARK  status: ('A' for Active; 'I' for Inactive)
REMARK    1  A    between atoms: C_3  and  C_17
REMARK    2  A    between atoms: C_5  and  N_8
REMARK    3  A    between atoms: N_8  and  C_14
REMARK    4  A    between atoms: C_17  and  C_20
REMARK    5  A    between atoms: C_23  and  C_26
REMARK                            x       y       z     vdW  Elec       q    Type
REMARK                         _______ _______ _______ _____ _____    ______ ____
ROOT
ATOM      1  O   UNL     1      36.687 -22.437 -15.448  0.00  0.00    -0.337 OA
ATOM      2  N   UNL     1      35.957 -22.426 -16.630  0.00  0.00    -0.079 NA
ATOM      3  C   UNL     1      34.785 -22.986 -16.317  0.00  0.00    +0.106 C 
ATOM      4  C   UNL     1      34.719 -23.365 -14.965  0.00  0.00    +0.076 C 
ATOM      5  C   UNL     1      35.936 -22.996 -14.473  0.00  0.00    +0.252 C 
ENDROOT
BRANCH   3   6
ATOM      6  C   UNL     1      33.746 -23.139 -17.348  0.00  0.00    +0.066 C 
ATOM      7  C   UNL     1      32.303 -23.147 -16.784  0.00  0.00    +0.011 C 
BRANCH   6   9
ATOM      8  F   UNL     1      36.800 -20.702 -20.238  0.00  0.00    -0.204 F 
ATOM      9  C   UNL     1      34.009 -22.083 -18.425  0.00  0.00    -0.015 C 
ATOM     10  C   UNL     1      35.303 -21.877 -18.841  0.00  0.00    +0.026 C 
ATOM     11  C   UNL     1      32.940 -21.382 -18.933  0.00  0.00    -0.004 C 
ATOM     12  C   UNL     1      34.481 -20.186 -20.358  0.00  0.00    +0.027 C 
ATOM     13  C   UNL     1      35.543 -20.915 -19.822  0.00  0.00    +0.140 C 
ATOM     14  C   UNL     1      33.180 -20.420 -19.914  0.00  0.00    +0.002 C 
BRANCH  12  15
ATOM     15  C   UNL     1      34.725 -19.188 -21.377  0.00  0.00    +0.002 C 
ATOM     16  C   UNL     1      35.224 -17.935 -21.019  0.00  0.00    +0.000 C 
ATOM     17  C   UNL     1      34.462 -19.478 -22.715  0.00  0.00    +0.000 C 
ATOM     18  C   UNL     1      35.461 -16.974 -22.001  0.00  0.00    +0.000 C 
ATOM     19  C   UNL     1      34.698 -18.516 -23.697  0.00  0.00    +0.000 C 
ATOM     20  C   UNL     1      35.197 -17.262 -23.340  0.00  0.00    +0.000 C 
ENDBRANCH  12  15
ENDBRANCH   6   9
ENDBRANCH   3   6
BRANCH   5  21
ATOM     21  N   UNL     1      36.431 -23.124 -13.210  0.00  0.00    -0.147 NA
BRANCH  21  29
ATOM     22  O   UNL     1      39.171 -26.956 -14.224  0.00  0.00    -0.350 OA
ATOM     23  N   UNL     1      37.371 -25.217 -12.966  0.00  0.00    -0.277 N 
ATOM     24  N   UNL     1      35.483 -24.831 -11.783  0.00  0.00    -0.373 N 
ATOM     25  C   UNL     1      37.121 -26.656 -12.963  0.00  0.00    +0.125 C 
ATOM     26  C   UNL     1      38.773 -24.835 -13.117  0.00  0.00    +0.125 C 
ATOM     27  C   UNL     1      37.781 -27.285 -14.185  0.00  0.00    +0.164 C 
ATOM     28  C   UNL     1      39.360 -25.543 -14.332  0.00  0.00    +0.164 C 
ATOM     29  C   UNL     1      36.407 -24.317 -12.670  0.00  0.00    +0.182 C 
ATOM     30  H   UNL     1      35.580 -25.753 -11.450  0.00  0.00    +0.158 HD
ATOM     31  H   UNL     1      34.726 -24.277 -11.485  0.00  0.00    +0.158 HD
ENDBRANCH  21  29
ENDBRANCH   5  21
TORSDOF 5
ENDMDL
MODEL 2
REMARK VINA RESULT:     -12.0      3.832      6.988
REMARK  Name = 9800765
REMARK  5 active torsions:
REMARK  status: ('A' for Active; 'I' for Inactive)
REMARK    1  A    between atoms: C_3  and  C_17
REMARK    2  A    between atoms: C_5  and  N_8
REMARK    3  A    between atoms: N_8  and  C_14
REMARK    4  A    between atoms: C_17  and  C_20
REMARK    5  A    between atoms: C_23  and  C_26
REMARK                            x       y       z     vdW  Elec       q    Type
REMARK                         _______ _______ _______ _____ _____    ______ ____
ROOT
ATOM      1  O   UNL     1      36.015 -19.348 -20.068  0.00  0.00    -0.337 OA
ATOM      2  N   UNL     1      36.311 -18.642 -21.228  0.00  0.00    -0.079 NA
ATOM      3  C   UNL     1      35.354 -18.984 -22.094  0.00  0.00    +0.106 C 
ATOM      4  C   UNL     1      34.435 -19.893 -21.543  0.00  0.00    +0.076 C 
ATOM      5  C   UNL     1      34.900 -20.083 -20.275  0.00  0.00    +0.252 C 
ENDROOT
BRANCH   3   6
ATOM      6  C   UNL     1      35.353 -18.412 -23.451  0.00  0.00    +0.066 C 
ATOM      7  C   UNL     1      34.617 -19.285 -24.496  0.00  0.00    +0.011 C 
BRANCH   6   9
ATOM      8  F   UNL     1      33.084 -14.563 -25.363  0.00  0.00    -0.204 F 
ATOM      9  C   UNL     1      34.842 -16.972 -23.341  0.00  0.00    -0.015 C 
ATOM     10  C   UNL     1      34.189 -16.424 -24.419  0.00  0.00    +0.026 C 
ATOM     11  C   UNL     1      35.056 -16.286 -22.169  0.00  0.00    -0.004 C 
ATOM     12  C   UNL     1      33.924 -14.389 -23.145  0.00  0.00    +0.027 C 
ATOM     13  C   UNL     1      33.723 -15.113 -24.320  0.00  0.00    +0.140 C 
ATOM     14  C   UNL     1      34.591 -14.975 -22.070  0.00  0.00    +0.002 C 
BRANCH  12  15
ATOM     15  C   UNL     1      33.441 -13.029 -23.037  0.00  0.00    +0.002 C 
ATOM     16  C   UNL     1      34.091 -12.002 -23.723  0.00  0.00    +0.000 C 
ATOM     17  C   UNL     1      32.327 -12.745 -22.248  0.00  0.00    +0.000 C 
ATOM     18  C   UNL     1      33.626 -10.692 -23.620  0.00  0.00    +0.000 C 
ATOM     19  C   UNL     1      31.862 -11.433 -22.146  0.00  0.00    +0.000 C 
ATOM     20  C   UNL     1      32.511 -10.406 -22.830  0.00  0.00    +0.000 C 
ENDBRANCH  12  15
ENDBRANCH   6   9
ENDBRANCH   3   6
BRANCH   5  21
ATOM     21  N   UNL     1      34.399 -20.870 -19.282  0.00  0.00    -0.147 NA
BRANCH  21  29
ATOM     22  O   UNL     1      33.613 -23.538 -15.347  0.00  0.00    -0.350 OA
ATOM     23  N   UNL     1      34.811 -22.411 -17.614  0.00  0.00    -0.277 N 
ATOM     24  N   UNL     1      36.623 -21.637 -18.723  0.00  0.00    -0.373 N 
ATOM     25  C   UNL     1      35.620 -22.725 -16.439  0.00  0.00    +0.125 C 
ATOM     26  C   UNL     1      33.586 -23.195 -17.748  0.00  0.00    +0.125 C 
ATOM     27  C   UNL     1      34.742 -22.675 -15.195  0.00  0.00    +0.164 C 
ATOM     28  C   UNL     1      32.797 -23.124 -16.446  0.00  0.00    +0.164 C 
ATOM     29  C   UNL     1      35.250 -21.589 -18.593  0.00  0.00    +0.182 C 
ATOM     30  H   UNL     1      37.153 -22.224 -18.136  0.00  0.00    +0.158 HD
ATOM     31  H   UNL     1      37.074 -21.084 -19.402  0.00  0.00    +0.158 HD
ENDBRANCH  21  29
ENDBRANCH   5  21
TORSDOF 5
ENDMDL
MODEL 3
REMARK VINA RESULT:     -12.0      1.507      2.289
REMARK  Name = 9800765
REMARK  5 active torsions:
REMARK  status: ('A' for Active; 'I' for Inactive)
REMARK    1  A    between atoms: C_3  and  C_17
REMARK    2  A    between atoms: C_5  and  N_8
REMARK    3  A    between atoms: N_8  and  C_14
REMARK    4  A    between atoms: C_17  and  C_20
REMARK    5  A    between atoms: C_23  and  C_26
REMARK                            x       y       z     vdW  Elec       q    Type
REMARK                         _______ _______ _______ _____ _____    ______ ____
ROOT
ATOM      1  O   UNL     1      37.318 -21.416 -16.356  0.00  0.00    -0.337 OA
ATOM      2  N   UNL     1      36.469 -21.322 -17.452  0.00  0.00    -0.079 NA
ATOM      3  C   UNL     1      35.578 -22.304 -17.284  0.00  0.00    +0.106 C 
ATOM      4  C   UNL     1      35.813 -23.042 -16.112  0.00  0.00    +0.076 C 
ATOM      5  C   UNL     1      36.913 -22.442 -15.574  0.00  0.00    +0.252 C 
ENDROOT
BRANCH   3   6
ATOM      6  C   UNL     1      34.509 -22.502 -18.276  0.00  0.00    +0.066 C 
ATOM      7  C   UNL     1      33.108 -22.712 -17.650  0.00  0.00    +0.011 C 
BRANCH   6   9
ATOM      8  F   UNL     1      37.126 -19.406 -20.958  0.00  0.00    -0.204 F 
ATOM      9  C   UNL     1      34.597 -21.349 -19.281  0.00  0.00    -0.015 C 
ATOM     10  C   UNL     1      35.840 -20.903 -19.661  0.00  0.00    +0.026 C 
ATOM     11  C   UNL     1      33.428 -20.807 -19.764  0.00  0.00    -0.004 C 
ATOM     12  C   UNL     1      34.754 -19.281 -21.085  0.00  0.00    +0.027 C 
ATOM     13  C   UNL     1      35.920 -19.854 -20.577  0.00  0.00    +0.140 C 
ATOM     14  C   UNL     1      33.509 -19.758 -20.679  0.00  0.00    +0.002 C 
BRANCH  12  15
ATOM     15  C   UNL     1      34.832 -18.194 -22.037  0.00  0.00    +0.002 C 
ATOM     16  C   UNL     1      34.599 -18.435 -23.391  0.00  0.00    +0.000 C 
ATOM     17  C   UNL     1      35.139 -16.905 -21.601  0.00  0.00    +0.000 C 
ATOM     18  C   UNL     1      34.672 -17.388 -24.308  0.00  0.00    +0.000 C 
ATOM     19  C   UNL     1      35.213 -15.858 -22.519  0.00  0.00    +0.000 C 
ATOM     20  C   UNL     1      34.980 -16.098 -23.873  0.00  0.00    +0.000 C 
ENDBRANCH  12  15
ENDBRANCH   6   9
ENDBRANCH   3   6
BRANCH   5  21
ATOM     21  N   UNL     1      37.586 -22.743 -14.428  0.00  0.00    -0.147 NA
BRANCH  21  29
ATOM     22  O   UNL     1      36.355 -25.859 -10.966  0.00  0.00    -0.350 OA
ATOM     23  N   UNL     1      37.387 -24.761 -13.327  0.00  0.00    -0.277 N 
ATOM     24  N   UNL     1      38.959 -24.664 -14.949  0.00  0.00    -0.373 N 
ATOM     25  C   UNL     1      38.103 -25.836 -12.646  0.00  0.00    +0.125 C 
ATOM     26  C   UNL     1      35.951 -24.714 -13.065  0.00  0.00    +0.125 C 
ATOM     27  C   UNL     1      37.770 -25.803 -11.160  0.00  0.00    +0.164 C 
ATOM     28  C   UNL     1      35.712 -24.729 -11.560  0.00  0.00    +0.164 C 
ATOM     29  C   UNL     1      37.974 -23.983 -14.264  0.00  0.00    +0.182 C 
ATOM     30  H   UNL     1      39.155 -25.603 -14.725  0.00  0.00    +0.158 HD
ATOM     31  H   UNL     1      39.467 -24.212 -15.661  0.00  0.00    +0.158 HD
ENDBRANCH  21  29
ENDBRANCH   5  21
TORSDOF 5
ENDMDL
MODEL 4
REMARK VINA RESULT:     -12.0      3.667      6.861
REMARK  Name = 9800765
REMARK  5 active torsions:
REMARK  status: ('A' for Active; 'I' for Inactive)
REMARK    1  A    between atoms: C_3  and  C_17
REMARK    2  A    between atoms: C_5  and  N_8
REMARK    3  A    between atoms: N_8  and  C_14
REMARK    4  A    between atoms: C_17  and  C_20
REMARK    5  A    between atoms: C_23  and  C_26
REMARK                            x       y       z     vdW  Elec       q    Type
REMARK                         _______ _______ _______ _____ _____    ______ ____
ROOT
ATOM      1  O   UNL     1      36.054 -19.386 -20.048  0.00  0.00    -0.337 OA
ATOM      2  N   UNL     1      36.349 -18.674 -21.204  0.00  0.00    -0.079 NA
ATOM      3  C   UNL     1      35.376 -18.991 -22.062  0.00  0.00    +0.106 C 
ATOM      4  C   UNL     1      34.448 -19.890 -21.509  0.00  0.00    +0.076 C 
ATOM      5  C   UNL     1      34.924 -20.100 -20.249  0.00  0.00    +0.252 C 
ENDROOT
BRANCH   3   6
ATOM      6  C   UNL     1      35.369 -18.406 -23.413  0.00  0.00    +0.066 C 
ATOM      7  C   UNL     1      34.628 -19.268 -24.464  0.00  0.00    +0.011 C 
BRANCH   6   9
ATOM      8  F   UNL     1      34.811 -14.313 -20.850  0.00  0.00    -0.204 F 
ATOM      9  C   UNL     1      34.858 -16.967 -23.287  0.00  0.00    -0.015 C 
ATOM     10  C   UNL     1      35.074 -16.294 -22.108  0.00  0.00    +0.026 C 
ATOM     11  C   UNL     1      34.202 -16.406 -24.358  0.00  0.00    -0.004 C 
ATOM     12  C   UNL     1      33.939 -14.386 -23.061  0.00  0.00    +0.027 C 
ATOM     13  C   UNL     1      34.608 -14.984 -21.994  0.00  0.00    +0.140 C 
ATOM     14  C   UNL     1      33.736 -15.097 -24.243  0.00  0.00    +0.002 C 
BRANCH  12  15
ATOM     15  C   UNL     1      33.456 -13.027 -22.947  0.00  0.00    +0.002 C 
ATOM     16  C   UNL     1      34.084 -12.003 -23.658  0.00  0.00    +0.000 C 
ATOM     17  C   UNL     1      32.363 -12.741 -22.130  0.00  0.00    +0.000 C 
ATOM     18  C   UNL     1      33.617 -10.693 -23.550  0.00  0.00    +0.000 C 
ATOM     19  C   UNL     1      31.897 -11.430 -22.022  0.00  0.00    +0.000 C 
ATOM     20  C   UNL     1      32.525 -10.405 -22.731  0.00  0.00    +0.000 C 
ENDBRANCH  12  15
ENDBRANCH   6   9
ENDBRANCH   3   6
BRANCH   5  21
ATOM     21  N   UNL     1      34.421 -20.889 -19.258  0.00  0.00    -0.147 NA
BRANCH  21  29
ATOM     22  O   UNL     1      33.646 -23.467 -15.261  0.00  0.00    -0.350 OA
ATOM     23  N   UNL     1      34.834 -22.397 -17.561  0.00  0.00    -0.277 N 
ATOM     24  N   UNL     1      36.644 -21.661 -18.700  0.00  0.00    -0.373 N 
ATOM     25  C   UNL     1      35.650 -22.693 -16.386  0.00  0.00    +0.125 C 
ATOM     26  C   UNL     1      33.603 -23.175 -17.669  0.00  0.00    +0.125 C 
ATOM     27  C   UNL     1      34.783 -22.610 -15.136  0.00  0.00    +0.164 C 
ATOM     28  C   UNL     1      32.825 -23.070 -16.363  0.00  0.00    +0.164 C 
ATOM     29  C   UNL     1      35.272 -21.599 -18.561  0.00  0.00    +0.182 C 
ATOM     30  H   UNL     1      37.174 -22.240 -18.105  0.00  0.00    +0.158 HD
ATOM     31  H   UNL     1      37.093 -21.126 -19.394  0.00  0.00    +0.158 HD
ENDBRANCH  21  29
ENDBRANCH   5  21
TORSDOF 5
ENDMDL
MODEL 5
REMARK VINA RESULT:     -11.7     10.222     13.965
REMARK  Name = 9800765
REMARK  5 active torsions:
REMARK  status: ('A' for Active; 'I' for Inactive)
REMARK    1  A    between atoms: C_3  and  C_17
REMARK    2  A    between atoms: C_5  and  N_8
REMARK    3  A    between atoms: N_8  and  C_14
REMARK    4  A    between atoms: C_17  and  C_20
REMARK    5  A    between atoms: C_23  and  C_26
REMARK                            x       y       z     vdW  Elec       q    Type
REMARK                         _______ _______ _______ _____ _____    ______ ____
ROOT
ATOM      1  O   UNL     1      32.354 -12.667 -19.640  0.00  0.00    -0.337 OA
ATOM      2  N   UNL     1      32.045 -11.426 -19.097  0.00  0.00    -0.079 NA
ATOM      3  C   UNL     1      31.674 -10.676 -20.139  0.00  0.00    +0.106 C 
ATOM      4  C   UNL     1      31.728 -11.383 -21.352  0.00  0.00    +0.076 C 
ATOM      5  C   UNL     1      32.159 -12.621 -20.977  0.00  0.00    +0.252 C 
ENDROOT
BRANCH   3   6
ATOM      6  C   UNL     1      31.271  -9.276 -19.928  0.00  0.00    +0.066 C 
ATOM      7  C   UNL     1      31.524  -8.763 -18.490  0.00  0.00    +0.011 C 
BRANCH   6   9
ATOM      8  F   UNL     1      31.388  -7.652 -24.508  0.00  0.00    -0.204 F 
ATOM      9  C   UNL     1      31.924  -8.440 -21.033  0.00  0.00    -0.015 C 
ATOM     10  C   UNL     1      31.346  -8.432 -22.280  0.00  0.00    +0.026 C 
ATOM     11  C   UNL     1      33.064  -7.731 -20.734  0.00  0.00    -0.004 C 
ATOM     12  C   UNL     1      33.097  -6.939 -23.015  0.00  0.00    +0.027 C 
ATOM     13  C   UNL     1      31.940  -7.670 -23.286  0.00  0.00    +0.140 C 
ATOM     14  C   UNL     1      33.659  -6.970 -21.739  0.00  0.00    +0.002 C 
BRANCH  12  15
ATOM     15  C   UNL     1      33.717  -6.147 -24.055  0.00  0.00    +0.002 C 
ATOM     16  C   UNL     1      33.013  -5.093 -24.640  0.00  0.00    +0.000 C 
ATOM     17  C   UNL     1      35.016  -6.435 -24.472  0.00  0.00    +0.000 C 
ATOM     18  C   UNL     1      33.611  -4.328 -25.641  0.00  0.00    +0.000 C 
ATOM     19  C   UNL     1      35.613  -5.669 -25.474  0.00  0.00    +0.000 C 
ATOM     20  C   UNL     1      34.910  -4.615 -26.059  0.00  0.00    +0.000 C 
ENDBRANCH  12  15
ENDBRANCH   6   9
ENDBRANCH   3   6
BRANCH   5  21
ATOM     21  N   UNL     1      32.393 -13.722 -21.746  0.00  0.00    -0.147 NA
BRANCH  21  29
ATOM     22  O   UNL     1      34.461 -16.339 -25.224  0.00  0.00    -0.350 OA
ATOM     23  N   UNL     1      34.075 -14.727 -22.966  0.00  0.00    -0.277 N 
ATOM     24  N   UNL     1      34.612 -14.097 -20.862  0.00  0.00    -0.373 N 
ATOM     25  C   UNL     1      35.116 -15.751 -22.964  0.00  0.00    +0.125 C 
ATOM     26  C   UNL     1      33.694 -14.237 -24.288  0.00  0.00    +0.125 C 
ATOM     27  C   UNL     1      34.725 -16.869 -23.923  0.00  0.00    +0.164 C 
ATOM     28  C   UNL     1      33.366 -15.421 -25.189  0.00  0.00    +0.164 C 
ATOM     29  C   UNL     1      33.628 -14.149 -21.828  0.00  0.00    +0.182 C 
ATOM     30  H   UNL     1      35.509 -14.458 -21.052  0.00  0.00    +0.158 HD
ATOM     31  H   UNL     1      34.419 -13.699 -19.982  0.00  0.00    +0.158 HD
ENDBRANCH  21  29
ENDBRANCH   5  21
TORSDOF 5
ENDMDL
MODEL 6
REMARK VINA RESULT:     -11.3      5.639     11.056
REMARK  Name = 9800765
REMARK  5 active torsions:
REMARK  status: ('A' for Active; 'I' for Inactive)
REMARK    1  A    between atoms: C_3  and  C_17
REMARK    2  A    between atoms: C_5  and  N_8
REMARK    3  A    between atoms: N_8  and  C_14
REMARK    4  A    between atoms: C_17  and  C_20
REMARK    5  A    between atoms: C_23  and  C_26
REMARK                            x       y       z     vdW  Elec       q    Type
REMARK                         _______ _______ _______ _____ _____    ______ ____
ROOT
ATOM      1  O   UNL     1      34.877 -15.649 -20.322  0.00  0.00    -0.337 OA
ATOM      2  N   UNL     1      35.368 -16.948 -20.307  0.00  0.00    -0.079 NA
ATOM      3  C   UNL     1      35.492 -17.286 -21.593  0.00  0.00    +0.106 C 
ATOM      4  C   UNL     1      35.099 -16.250 -22.457  0.00  0.00    +0.076 C 
ATOM      5  C   UNL     1      34.725 -15.253 -21.606  0.00  0.00    +0.252 C 
ENDROOT
BRANCH   3   6
ATOM      6  C   UNL     1      35.997 -18.620 -21.957  0.00  0.00    +0.066 C 
ATOM      7  C   UNL     1      37.496 -18.637 -22.344  0.00  0.00    +0.011 C 
BRANCH   6   9
ATOM      8  F   UNL     1      32.642 -20.997 -19.363  0.00  0.00    -0.204 F 
ATOM      9  C   UNL     1      35.615 -19.579 -20.824  0.00  0.00    -0.015 C 
ATOM     10  C   UNL     1      34.284 -19.849 -20.613  0.00  0.00    +0.026 C 
ATOM     11  C   UNL     1      36.619 -20.130 -20.063  0.00  0.00    -0.004 C 
ATOM     12  C   UNL     1      34.931 -21.298 -18.792  0.00  0.00    +0.027 C 
ATOM     13  C   UNL     1      33.937 -20.722 -19.582  0.00  0.00    +0.140 C 
ATOM     14  C   UNL     1      36.272 -21.002 -19.032  0.00  0.00    +0.002 C 
BRANCH  12  15
ATOM     15  C   UNL     1      34.575 -22.205 -17.722  0.00  0.00    +0.002 C 
ATOM     16  C   UNL     1      33.336 -22.846 -17.735  0.00  0.00    +0.000 C 
ATOM     17  C   UNL     1      35.471 -22.440 -16.679  0.00  0.00    +0.000 C 
ATOM     18  C   UNL     1      32.993 -23.722 -16.705  0.00  0.00    +0.000 C 
ATOM     19  C   UNL     1      35.127 -23.316 -15.649  0.00  0.00    +0.000 C 
ATOM     20  C   UNL     1      33.888 -23.956 -15.661  0.00  0.00    +0.000 C 
ENDBRANCH  12  15
ENDBRANCH   6   9
ENDBRANCH   3   6
BRANCH   5  21
ATOM     21  N   UNL     1      34.253 -14.006 -21.891  0.00  0.00    -0.147 NA
BRANCH  21  29
ATOM     22  O   UNL     1      31.807  -9.889 -22.421  0.00  0.00    -0.350 OA
ATOM     23  N   UNL     1      32.486 -12.527 -21.772  0.00  0.00    -0.277 N 
ATOM     24  N   UNL     1      32.370 -14.328 -20.409  0.00  0.00    -0.373 N 
ATOM     25  C   UNL     1      31.621 -11.755 -20.884  0.00  0.00    +0.125 C 
ATOM     26  C   UNL     1      32.481 -12.096 -23.167  0.00  0.00    +0.125 C 
ATOM     27  C   UNL     1      31.925 -10.271 -21.049  0.00  0.00    +0.164 C 
ATOM     28  C   UNL     1      32.747 -10.598 -23.232  0.00  0.00    +0.164 C 
ATOM     29  C   UNL     1      33.102 -13.662 -21.371  0.00  0.00    +0.182 C 
ATOM     30  H   UNL     1      31.511 -13.958 -20.099  0.00  0.00    +0.158 HD
ATOM     31  H   UNL     1      32.707 -15.172 -20.030  0.00  0.00    +0.158 HD
ENDBRANCH  21  29
ENDBRANCH   5  21
TORSDOF 5
ENDMDL
MODEL 7
REMARK VINA RESULT:     -11.1      3.961      9.048
REMARK  Name = 9800765
REMARK  5 active torsions:
REMARK  status: ('A' for Active; 'I' for Inactive)
REMARK    1  A    between atoms: C_3  and  C_17
REMARK    2  A    between atoms: C_5  and  N_8
REMARK    3  A    between atoms: N_8  and  C_14
REMARK    4  A    between atoms: C_17  and  C_20
REMARK    5  A    between atoms: C_23  and  C_26
REMARK                            x       y       z     vdW  Elec       q    Type
REMARK                         _______ _______ _______ _____ _____    ______ ____
ROOT
ATOM      1  O   UNL     1      37.099 -19.409 -19.043  0.00  0.00    -0.337 OA
ATOM      2  N   UNL     1      37.239 -20.113 -17.853  0.00  0.00    -0.079 NA
ATOM      3  C   UNL     1      36.677 -21.303 -18.088  0.00  0.00    +0.106 C 
ATOM      4  C   UNL     1      36.170 -21.404 -19.395  0.00  0.00    +0.076 C 
ATOM      5  C   UNL     1      36.464 -20.191 -19.944  0.00  0.00    +0.252 C 
ENDROOT
BRANCH   3   6
ATOM      6  C   UNL     1      36.645 -22.322 -17.027  0.00  0.00    +0.066 C 
ATOM      7  C   UNL     1      37.530 -21.977 -15.804  0.00  0.00    +0.011 C 
BRANCH   6   9
ATOM      8  F   UNL     1      33.122 -23.265 -13.814  0.00  0.00    -0.204 F 
ATOM      9  C   UNL     1      35.174 -22.598 -16.700  0.00  0.00    -0.015 C 
ATOM     10  C   UNL     1      34.822 -22.807 -15.388  0.00  0.00    +0.026 C 
ATOM     11  C   UNL     1      34.265 -22.626 -17.731  0.00  0.00    -0.004 C 
ATOM     12  C   UNL     1      32.535 -23.093 -16.112  0.00  0.00    +0.027 C 
ATOM     13  C   UNL     1      33.483 -23.058 -15.089  0.00  0.00    +0.140 C 
ATOM     14  C   UNL     1      32.927 -22.877 -17.433  0.00  0.00    +0.002 C 
BRANCH  12  15
ATOM     15  C   UNL     1      31.145 -23.352 -15.807  0.00  0.00    +0.002 C 
ATOM     16  C   UNL     1      30.783 -24.528 -15.148  0.00  0.00    +0.000 C 
ATOM     17  C   UNL     1      30.167 -22.426 -16.170  0.00  0.00    +0.000 C 
ATOM     18  C   UNL     1      29.443 -24.777 -14.853  0.00  0.00    +0.000 C 
ATOM     19  C   UNL     1      28.826 -22.677 -15.875  0.00  0.00    +0.000 C 
ATOM     20  C   UNL     1      28.464 -23.852 -15.217  0.00  0.00    +0.000 C 
ENDBRANCH  12  15
ENDBRANCH   6   9
ENDBRANCH   3   6
BRANCH   5  21
ATOM     21  N   UNL     1      36.204 -19.726 -21.199  0.00  0.00    -0.147 NA
BRANCH  21  29
ATOM     22  O   UNL     1      33.945 -17.769 -24.978  0.00  0.00    -0.350 OA
ATOM     23  N   UNL     1      34.909 -18.234 -22.389  0.00  0.00    -0.277 N 
ATOM     24  N   UNL     1      35.712 -17.495 -20.409  0.00  0.00    -0.373 N 
ATOM     25  C   UNL     1      34.806 -16.868 -22.898  0.00  0.00    +0.125 C 
ATOM     26  C   UNL     1      34.006 -19.195 -23.017  0.00  0.00    +0.125 C 
ATOM     27  C   UNL     1      34.919 -16.886 -24.417  0.00  0.00    +0.164 C 
ATOM     28  C   UNL     1      34.154 -19.111 -24.531  0.00  0.00    +0.164 C 
ATOM     29  C   UNL     1      35.650 -18.544 -21.302  0.00  0.00    +0.182 C 
ATOM     30  H   UNL     1      35.247 -16.650 -20.608  0.00  0.00    +0.158 HD
ATOM     31  H   UNL     1      36.222 -17.589 -19.572  0.00  0.00    +0.158 HD
ENDBRANCH  21  29
ENDBRANCH   5  21
TORSDOF 5
ENDMDL
MODEL 8
REMARK VINA RESULT:     -10.9      4.325      9.478
REMARK  Name = 9800765
REMARK  5 active torsions:
REMARK  status: ('A' for Active; 'I' for Inactive)
REMARK    1  A    between atoms: C_3  and  C_17
REMARK    2  A    between atoms: C_5  and  N_8
REMARK    3  A    between atoms: N_8  and  C_14
REMARK    4  A    between atoms: C_17  and  C_20
REMARK    5  A    between atoms: C_23  and  C_26
REMARK                            x       y       z     vdW  Elec       q    Type
REMARK                         _______ _______ _______ _____ _____    ______ ____
ROOT
ATOM      1  O   UNL     1      36.294 -19.401 -20.232  0.00  0.00    -0.337 OA
ATOM      2  N   UNL     1      36.916 -20.137 -19.231  0.00  0.00    -0.079 NA
ATOM      3  C   UNL     1      36.001 -21.028 -18.838  0.00  0.00    +0.106 C 
ATOM      4  C   UNL     1      34.795 -20.902 -19.549  0.00  0.00    +0.076 C 
ATOM      5  C   UNL     1      35.039 -19.870 -20.406  0.00  0.00    +0.252 C 
ENDROOT
BRANCH   3   6
ATOM      6  C   UNL     1      36.324 -21.990 -17.772  0.00  0.00    +0.066 C 
ATOM      7  C   UNL     1      37.366 -21.468 -16.754  0.00  0.00    +0.011 C 
BRANCH   6   9
ATOM      8  F   UNL     1      33.679 -23.330 -13.921  0.00  0.00    -0.204 F 
ATOM      9  C   UNL     1      34.999 -22.453 -17.156  0.00  0.00    -0.015 C 
ATOM     10  C   UNL     1      34.950 -22.682 -15.802  0.00  0.00    +0.026 C 
ATOM     11  C   UNL     1      33.913 -22.621 -17.983  0.00  0.00    -0.004 C 
ATOM     12  C   UNL     1      32.624 -23.283 -16.051  0.00  0.00    +0.027 C 
ATOM     13  C   UNL     1      33.744 -23.102 -15.241  0.00  0.00    +0.140 C 
ATOM     14  C   UNL     1      32.708 -23.042 -17.422  0.00  0.00    +0.002 C 
BRANCH  12  15
ATOM     15  C   UNL     1      31.370 -23.718 -15.473  0.00  0.00    +0.002 C 
ATOM     16  C   UNL     1      31.337 -24.844 -14.650  0.00  0.00    +0.000 C 
ATOM     17  C   UNL     1      30.197 -23.013 -15.739  0.00  0.00    +0.000 C 
ATOM     18  C   UNL     1      30.129 -25.263 -14.092  0.00  0.00    +0.000 C 
ATOM     19  C   UNL     1      28.990 -23.433 -15.180  0.00  0.00    +0.000 C 
ATOM     20  C   UNL     1      28.955 -24.559 -14.357  0.00  0.00    +0.000 C 
ENDBRANCH  12  15
ENDBRANCH   6   9
ENDBRANCH   3   6
BRANCH   5  21
ATOM     21  N   UNL     1      34.217 -19.311 -21.338  0.00  0.00    -0.147 NA
BRANCH  21  29
ATOM     22  O   UNL     1      34.741 -14.957 -23.334  0.00  0.00    -0.350 OA
ATOM     23  N   UNL     1      34.960 -17.700 -22.814  0.00  0.00    -0.277 N 
ATOM     24  N   UNL     1      35.134 -19.844 -23.510  0.00  0.00    -0.373 N 
ATOM     25  C   UNL     1      34.915 -17.219 -24.192  0.00  0.00    +0.125 C 
ATOM     26  C   UNL     1      35.445 -16.730 -21.836  0.00  0.00    +0.125 C 
ATOM     27  C   UNL     1      34.158 -15.897 -24.240  0.00  0.00    +0.164 C 
ATOM     28  C   UNL     1      34.665 -15.430 -21.987  0.00  0.00    +0.164 C 
ATOM     29  C   UNL     1      34.742 -18.996 -22.495  0.00  0.00    +0.182 C 
ATOM     30  H   UNL     1      35.517 -19.476 -24.340  0.00  0.00    +0.158 HD
ATOM     31  H   UNL     1      35.029 -20.818 -23.407  0.00  0.00    +0.158 HD
ENDBRANCH  21  29
ENDBRANCH   5  21
TORSDOF 5
ENDMDL
MODEL 9
REMARK VINA RESULT:     -10.8     10.428     14.557
REMARK  Name = 9800765
REMARK  5 active torsions:
REMARK  status: ('A' for Active; 'I' for Inactive)
REMARK    1  A    between atoms: C_3  and  C_17
REMARK    2  A    between atoms: C_5  and  N_8
REMARK    3  A    between atoms: N_8  and  C_14
REMARK    4  A    between atoms: C_17  and  C_20
REMARK    5  A    between atoms: C_23  and  C_26
REMARK                            x       y       z     vdW  Elec       q    Type
REMARK                         _______ _______ _______ _____ _____    ______ ____
ROOT
ATOM      1  O   UNL     1      32.480 -11.808 -22.851  0.00  0.00    -0.337 OA
ATOM      2  N   UNL     1      32.251 -10.454 -22.640  0.00  0.00    -0.079 NA
ATOM      3  C   UNL     1      31.914 -10.357 -21.351  0.00  0.00    +0.106 C 
ATOM      4  C   UNL     1      31.914 -11.606 -20.705  0.00  0.00    +0.076 C 
ATOM      5  C   UNL     1      32.276 -12.473 -21.692  0.00  0.00    +0.252 C 
ENDROOT
BRANCH   3   6
ATOM      6  C   UNL     1      31.598  -9.042 -20.771  0.00  0.00    +0.066 C 
ATOM      7  C   UNL     1      32.149  -8.842 -19.338  0.00  0.00    +0.011 C 
BRANCH   6   9
ATOM      8  F   UNL     1      30.648  -6.140 -24.553  0.00  0.00    -0.204 F 
ATOM      9  C   UNL     1      32.036  -7.978 -21.782  0.00  0.00    -0.015 C 
ATOM     10  C   UNL     1      31.126  -7.544 -22.715  0.00  0.00    +0.026 C 
ATOM     11  C   UNL     1      33.324  -7.500 -21.717  0.00  0.00    -0.004 C 
ATOM     12  C   UNL     1      32.824  -6.069 -23.597  0.00  0.00    +0.027 C 
ATOM     13  C   UNL     1      31.525  -6.575 -23.636  0.00  0.00    +0.140 C 
ATOM     14  C   UNL     1      33.723  -6.532 -22.637  0.00  0.00    +0.002 C 
BRANCH  12  15
ATOM     15  C   UNL     1      33.242  -5.063 -24.549  0.00  0.00    +0.002 C 
ATOM     16  C   UNL     1      34.333  -5.306 -25.384  0.00  0.00    +0.000 C 
ATOM     17  C   UNL     1      32.556  -3.852 -24.632  0.00  0.00    +0.000 C 
ATOM     18  C   UNL     1      34.736  -4.337 -26.303  0.00  0.00    +0.000 C 
ATOM     19  C   UNL     1      32.959  -2.883 -25.551  0.00  0.00    +0.000 C 
ATOM     20  C   UNL     1      34.050  -3.125 -26.386  0.00  0.00    +0.000 C 
ENDBRANCH  12  15
ENDBRANCH   6   9
ENDBRANCH   3   6
BRANCH   5  21
ATOM     21  N   UNL     1      32.438 -13.825 -21.636  0.00  0.00    -0.147 NA
BRANCH  21  29
ATOM     22  O   UNL     1      34.575 -16.488 -25.036  0.00  0.00    -0.350 OA
ATOM     23  N   UNL     1      34.140 -14.874 -22.788  0.00  0.00    -0.277 N 
ATOM     24  N   UNL     1      34.605 -14.270 -20.659  0.00  0.00    -0.373 N 
ATOM     25  C   UNL     1      35.149 -15.929 -22.747  0.00  0.00    +0.125 C 
ATOM     26  C   UNL     1      33.831 -14.368 -24.122  0.00  0.00    +0.125 C 
ATOM     27  C   UNL     1      34.767 -17.031 -23.728  0.00  0.00    +0.164 C 
ATOM     28  C   UNL     1      33.507 -15.538 -25.043  0.00  0.00    +0.164 C 
ATOM     29  C   UNL     1      33.662 -14.289 -21.667  0.00  0.00    +0.182 C 
ATOM     30  H   UNL     1      35.497 -14.657 -20.812  0.00  0.00    +0.158 HD
ATOM     31  H   UNL     1      34.385 -13.870 -19.786  0.00  0.00    +0.158 HD
ENDBRANCH  21  29
ENDBRANCH   5  21
TORSDOF 5
ENDMDL
