MODEL 1
REMARK VINA RESULT:     -11.3      0.000      0.000
REMARK  Name = 4249
REMARK  7 active torsions:
REMARK  status: ('A' for Active; 'I' for Inactive)
REMARK    1  A    between atoms: N_1  and  C_17
REMARK    2  A    between atoms: C_2  and  C_8
REMARK    3  A    between atoms: C_2  and  O_15
REMARK    4  A    between atoms: C_17  and  C_18
REMARK    5  A    between atoms: C_18  and  C_19
REMARK    6  A    between atoms: C_19  and  C_21
REMARK    7  A    between atoms: C_21  and  C_23
REMARK                            x       y       z     vdW  Elec       q    Type
REMARK                         _______ _______ _______ _____ _____    ______ ____
ROOT
ATOM      1  N   UNL     1      35.358 -20.181 -19.865  0.00  0.00    +0.387 N 
ATOM      2  C   UNL     1      34.035 -22.346 -18.320  0.00  0.00    +0.103 C 
ATOM      3  C   UNL     1      33.271 -21.218 -19.049  0.00  0.00    +0.008 C 
ATOM      4  C   UNL     1      35.479 -21.865 -18.047  0.00  0.00    +0.008 C 
ATOM      5  C   UNL     1      34.031 -20.663 -20.260  0.00  0.00    -0.075 C 
ATOM      6  C   UNL     1      36.161 -21.261 -19.282  0.00  0.00    -0.075 C 
ATOM      7  H   UNL     1      35.232 -19.461 -19.153  0.00  0.00    -0.080 HD
ENDROOT
BRANCH   2   8
ATOM      8  C   UNL     1      33.381 -22.838 -17.028  0.00  0.00    +0.002 C 
ATOM      9  C   UNL     1      34.164 -23.417 -16.030  0.00  0.00    -0.002 C 
ATOM     10  C   UNL     1      32.005 -22.707 -16.850  0.00  0.00    -0.002 C 
ATOM     11  C   UNL     1      33.567 -23.866 -14.851  0.00  0.00    -0.005 C 
ATOM     12  C   UNL     1      31.410 -23.156 -15.672  0.00  0.00    -0.005 C 
ATOM     13  C   UNL     1      32.190 -23.735 -14.673  0.00  0.00    -0.022 C 
ATOM     14  C   UNL     1      31.553 -24.216 -13.412  0.00  0.00    +0.031 C 
ENDBRANCH   2   8
BRANCH   2  15
ATOM     15  O   UNL     1      34.069 -23.487 -19.191  0.00  0.00    -0.383 OA
ATOM     16  H   UNL     1      33.202 -23.600 -19.610  0.00  0.00    +0.211 HD
ENDBRANCH   2  15
BRANCH   1  17
ATOM     17  C   UNL     1      36.050 -19.589 -21.010  0.00  0.00    -0.077 C 
BRANCH  17  18
ATOM     18  C   UNL     1      35.036 -19.037 -22.014  0.00  0.00    -0.015 C 
BRANCH  18  19
ATOM     19  C   UNL     1      35.589 -17.848 -22.804  0.00  0.00    +0.067 C 
BRANCH  19  21
ATOM     20  O   UNL     1      34.169 -18.101 -24.739  0.00  0.00    -0.291 OA
ATOM     21  C   UNL     1      34.646 -17.352 -23.889  0.00  0.00    +0.173 C 
BRANCH  21  23
ATOM     22  F   UNL     1      33.250 -11.946 -23.952  0.00  0.00    -0.204 F 
ATOM     23  C   UNL     1      34.272 -15.908 -23.906  0.00  0.00    +0.035 C 
ATOM     24  C   UNL     1      34.662 -15.113 -22.851  0.00  0.00    +0.005 C 
ATOM     25  C   UNL     1      33.552 -15.424 -24.975  0.00  0.00    +0.005 C 
ATOM     26  C   UNL     1      34.313 -13.762 -22.868  0.00  0.00    +0.030 C 
ATOM     27  C   UNL     1      33.203 -14.073 -24.991  0.00  0.00    +0.030 C 
ATOM     28  C   UNL     1      33.585 -13.242 -23.937  0.00  0.00    +0.140 C 
ENDBRANCH  21  23
ENDBRANCH  19  21
ENDBRANCH  18  19
ENDBRANCH  17  18
ENDBRANCH   1  17
TORSDOF 7
ENDMDL
MODEL 2
REMARK VINA RESULT:     -11.1      3.885     10.615
REMARK  Name = 4249
REMARK  7 active torsions:
REMARK  status: ('A' for Active; 'I' for Inactive)
REMARK    1  A    between atoms: N_1  and  C_17
REMARK    2  A    between atoms: C_2  and  C_8
REMARK    3  A    between atoms: C_2  and  O_15
REMARK    4  A    between atoms: C_17  and  C_18
REMARK    5  A    between atoms: C_18  and  C_19
REMARK    6  A    between atoms: C_19  and  C_21
REMARK    7  A    between atoms: C_21  and  C_23
REMARK                            x       y       z     vdW  Elec       q    Type
REMARK                         _______ _______ _______ _____ _____    ______ ____
ROOT
ATOM      1  N   UNL     1      34.692 -15.211 -23.557  0.00  0.00    +0.387 N 
ATOM      2  C   UNL     1      33.077 -12.788 -22.969  0.00  0.00    +0.103 C 
ATOM      3  C   UNL     1      33.297 -13.352 -24.391  0.00  0.00    +0.008 C 
ATOM      4  C   UNL     1      34.221 -13.291 -22.058  0.00  0.00    +0.008 C 
ATOM      5  C   UNL     1      33.547 -14.864 -24.405  0.00  0.00    -0.075 C 
ATOM      6  C   UNL     1      34.463 -14.802 -22.168  0.00  0.00    -0.075 C 
ATOM      7  H   UNL     1      35.506 -14.704 -23.905  0.00  0.00    -0.080 HD
ENDROOT
BRANCH   2   8
ATOM      8  C   UNL     1      32.958 -11.266 -22.889  0.00  0.00    +0.002 C 
ATOM      9  C   UNL     1      33.901 -10.461 -23.527  0.00  0.00    -0.002 C 
ATOM     10  C   UNL     1      31.908 -10.686 -22.180  0.00  0.00    -0.002 C 
ATOM     11  C   UNL     1      33.791  -9.072 -23.455  0.00  0.00    -0.005 C 
ATOM     12  C   UNL     1      31.800  -9.297 -22.108  0.00  0.00    -0.005 C 
ATOM     13  C   UNL     1      32.741  -8.490 -22.746  0.00  0.00    -0.022 C 
ATOM     14  C   UNL     1      32.625  -7.005 -22.668  0.00  0.00    +0.031 C 
ENDBRANCH   2   8
BRANCH   2  15
ATOM     15  O   UNL     1      31.823 -13.295 -22.485  0.00  0.00    -0.383 OA
ATOM     16  H   UNL     1      31.895 -13.486 -21.538  0.00  0.00    +0.211 HD
ENDBRANCH   2  15
BRANCH   1  17
ATOM     17  C   UNL     1      34.969 -16.645 -23.631  0.00  0.00    -0.077 C 
BRANCH  17  18
ATOM     18  C   UNL     1      35.437 -17.166 -22.271  0.00  0.00    -0.015 C 
BRANCH  18  19
ATOM     19  C   UNL     1      35.878 -18.631 -22.330  0.00  0.00    +0.067 C 
BRANCH  19  21
ATOM     20  O   UNL     1      37.440 -18.837 -20.502  0.00  0.00    -0.291 OA
ATOM     21  C   UNL     1      36.364 -19.170 -20.993  0.00  0.00    +0.173 C 
BRANCH  21  23
ATOM     22  F   UNL     1      33.094 -22.725 -18.194  0.00  0.00    -0.204 F 
ATOM     23  C   UNL     1      35.491 -20.120 -20.246  0.00  0.00    +0.035 C 
ATOM     24  C   UNL     1      36.082 -21.060 -19.432  0.00  0.00    +0.005 C 
ATOM     25  C   UNL     1      34.126 -20.021 -20.398  0.00  0.00    +0.005 C 
ATOM     26  C   UNL     1      35.264 -21.948 -18.732  0.00  0.00    +0.030 C 
ATOM     27  C   UNL     1      33.308 -20.910 -19.698  0.00  0.00    +0.030 C 
ATOM     28  C   UNL     1      33.878 -21.873 -18.865  0.00  0.00    +0.140 C 
ENDBRANCH  21  23
ENDBRANCH  19  21
ENDBRANCH  18  19
ENDBRANCH  17  18
ENDBRANCH   1  17
TORSDOF 7
ENDMDL
MODEL 3
REMARK VINA RESULT:     -11.0      3.387      5.926
REMARK  Name = 4249
REMARK  7 active torsions:
REMARK  status: ('A' for Active; 'I' for Inactive)
REMARK    1  A    between atoms: N_1  and  C_17
REMARK    2  A    between atoms: C_2  and  C_8
REMARK    3  A    between atoms: C_2  and  O_15
REMARK    4  A    between atoms: C_17  and  C_18
REMARK    5  A    between atoms: C_18  and  C_19
REMARK    6  A    between atoms: C_19  and  C_21
REMARK    7  A    between atoms: C_21  and  C_23
REMARK                            x       y       z     vdW  Elec       q    Type
REMARK                         _______ _______ _______ _____ _____    ______ ____
ROOT
ATOM      1  N   UNL     1      34.268 -15.737 -23.234  0.00  0.00    +0.387 N 
ATOM      2  C   UNL     1      35.410 -18.078 -21.805  0.00  0.00    +0.103 C 
ATOM      3  C   UNL     1      34.661 -18.174 -23.153  0.00  0.00    +0.008 C 
ATOM      4  C   UNL     1      34.980 -16.774 -21.095  0.00  0.00    +0.008 C 
ATOM      5  C   UNL     1      34.763 -16.894 -23.990  0.00  0.00    -0.075 C 
ATOM      6  C   UNL     1      35.042 -15.540 -22.005  0.00  0.00    -0.075 C 
ATOM      7  H   UNL     1      33.300 -15.925 -22.971  0.00  0.00    -0.080 HD
ENDROOT
BRANCH   2   8
ATOM      8  C   UNL     1      35.225 -19.279 -20.877  0.00  0.00    +0.002 C 
ATOM      9  C   UNL     1      36.336 -19.868 -20.273  0.00  0.00    -0.002 C 
ATOM     10  C   UNL     1      33.949 -19.783 -20.634  0.00  0.00    -0.002 C 
ATOM     11  C   UNL     1      36.167 -20.964 -19.426  0.00  0.00    -0.005 C 
ATOM     12  C   UNL     1      33.781 -20.877 -19.787  0.00  0.00    -0.005 C 
ATOM     13  C   UNL     1      34.890 -21.468 -19.183  0.00  0.00    -0.022 C 
ATOM     14  C   UNL     1      34.711 -22.639 -18.277  0.00  0.00    +0.031 C 
ENDBRANCH   2   8
BRANCH   2  15
ATOM     15  O   UNL     1      36.817 -18.026 -22.088  0.00  0.00    -0.383 OA
ATOM     16  H   UNL     1      37.284 -17.628 -21.337  0.00  0.00    +0.211 HD
ENDBRANCH   2  15
BRANCH   1  17
ATOM     17  C   UNL     1      34.302 -14.532 -24.062  0.00  0.00    -0.077 C 
BRANCH  17  18
ATOM     18  C   UNL     1      34.006 -13.296 -23.210  0.00  0.00    -0.015 C 
BRANCH  18  19
ATOM     19  C   UNL     1      32.514 -13.150 -22.897  0.00  0.00    +0.067 C 
BRANCH  19  21
ATOM     20  O   UNL     1      32.130 -14.102 -20.713  0.00  0.00    -0.291 OA
ATOM     21  C   UNL     1      32.213 -13.091 -21.407  0.00  0.00    +0.173 C 
BRANCH  21  23
ATOM     22  F   UNL     1      31.537  -8.093 -19.012  0.00  0.00    -0.204 F 
ATOM     23  C   UNL     1      32.034 -11.756 -20.767  0.00  0.00    +0.035 C 
ATOM     24  C   UNL     1      31.876 -10.652 -21.575  0.00  0.00    +0.005 C 
ATOM     25  C   UNL     1      32.030 -11.677 -19.393  0.00  0.00    +0.005 C 
ATOM     26  C   UNL     1      31.707  -9.403 -20.976  0.00  0.00    +0.030 C 
ATOM     27  C   UNL     1      31.861 -10.428 -18.793  0.00  0.00    +0.030 C 
ATOM     28  C   UNL     1      31.699  -9.292 -19.586  0.00  0.00    +0.140 C 
ENDBRANCH  21  23
ENDBRANCH  19  21
ENDBRANCH  18  19
ENDBRANCH  17  18
ENDBRANCH   1  17
TORSDOF 7
ENDMDL
MODEL 4
REMARK VINA RESULT:     -10.9      4.853     10.744
REMARK  Name = 4249
REMARK  7 active torsions:
REMARK  status: ('A' for Active; 'I' for Inactive)
REMARK    1  A    between atoms: N_1  and  C_17
REMARK    2  A    between atoms: C_2  and  C_8
REMARK    3  A    between atoms: C_2  and  O_15
REMARK    4  A    between atoms: C_17  and  C_18
REMARK    5  A    between atoms: C_18  and  C_19
REMARK    6  A    between atoms: C_19  and  C_21
REMARK    7  A    between atoms: C_21  and  C_23
REMARK                            x       y       z     vdW  Elec       q    Type
REMARK                         _______ _______ _______ _____ _____    ______ ____
ROOT
ATOM      1  N   UNL     1      33.028 -23.320 -14.898  0.00  0.00    +0.387 N 
ATOM      2  C   UNL     1      33.803 -22.759 -17.710  0.00  0.00    +0.103 C 
ATOM      3  C   UNL     1      34.808 -22.827 -16.538  0.00  0.00    +0.008 C 
ATOM      4  C   UNL     1      32.398 -22.459 -17.138  0.00  0.00    +0.008 C 
ATOM      5  C   UNL     1      34.341 -23.741 -15.399  0.00  0.00    -0.075 C 
ATOM      6  C   UNL     1      32.018 -23.365 -15.960  0.00  0.00    -0.075 C 
ATOM      7  H   UNL     1      33.108 -22.353 -14.580  0.00  0.00    -0.080 HD
ENDROOT
BRANCH   2   8
ATOM      8  C   UNL     1      34.160 -21.757 -18.809  0.00  0.00    +0.002 C 
ATOM      9  C   UNL     1      33.147 -21.072 -19.480  0.00  0.00    -0.002 C 
ATOM     10  C   UNL     1      35.495 -21.529 -19.137  0.00  0.00    -0.002 C 
ATOM     11  C   UNL     1      33.473 -20.157 -20.481  0.00  0.00    -0.005 C 
ATOM     12  C   UNL     1      35.820 -20.615 -20.138  0.00  0.00    -0.005 C 
ATOM     13  C   UNL     1      34.809 -19.928 -20.810  0.00  0.00    -0.022 C 
ATOM     14  C   UNL     1      35.156 -18.951 -21.882  0.00  0.00    +0.031 C 
ENDBRANCH   2   8
BRANCH   2  15
ATOM     15  O   UNL     1      33.793 -24.044 -18.353  0.00  0.00    -0.383 OA
ATOM     16  H   UNL     1      33.547 -23.937 -19.285  0.00  0.00    +0.211 HD
ENDBRANCH   2  15
BRANCH   1  17
ATOM     17  C   UNL     1      32.620 -24.151 -13.766  0.00  0.00    -0.077 C 
BRANCH  17  18
ATOM     18  C   UNL     1      33.825 -24.909 -13.204  0.00  0.00    -0.015 C 
BRANCH  18  19
ATOM     19  C   UNL     1      34.546 -24.123 -12.106  0.00  0.00    +0.067 C 
BRANCH  19  21
ATOM     20  O   UNL     1      35.914 -25.255 -10.472  0.00  0.00    -0.291 OA
ATOM     21  C   UNL     1      35.813 -24.802 -11.610  0.00  0.00    +0.173 C 
BRANCH  21  23
ATOM     22  F   UNL     1      40.121 -25.314 -15.125  0.00  0.00    -0.204 F 
ATOM     23  C   UNL     1      36.965 -24.938 -12.548  0.00  0.00    +0.035 C 
ATOM     24  C   UNL     1      37.743 -26.072 -12.478  0.00  0.00    +0.005 C 
ATOM     25  C   UNL     1      37.205 -23.926 -13.450  0.00  0.00    +0.005 C 
ATOM     26  C   UNL     1      38.820 -26.199 -13.357  0.00  0.00    +0.030 C 
ATOM     27  C   UNL     1      38.282 -24.054 -14.329  0.00  0.00    +0.030 C 
ATOM     28  C   UNL     1      39.089 -25.192 -14.282  0.00  0.00    +0.140 C 
ENDBRANCH  21  23
ENDBRANCH  19  21
ENDBRANCH  18  19
ENDBRANCH  17  18
ENDBRANCH   1  17
TORSDOF 7
ENDMDL
MODEL 5
REMARK VINA RESULT:     -10.9      4.062     10.562
REMARK  Name = 4249
REMARK  7 active torsions:
REMARK  status: ('A' for Active; 'I' for Inactive)
REMARK    1  A    between atoms: N_1  and  C_17
REMARK    2  A    between atoms: C_2  and  C_8
REMARK    3  A    between atoms: C_2  and  O_15
REMARK    4  A    between atoms: C_17  and  C_18
REMARK    5  A    between atoms: C_18  and  C_19
REMARK    6  A    between atoms: C_19  and  C_21
REMARK    7  A    between atoms: C_21  and  C_23
REMARK                            x       y       z     vdW  Elec       q    Type
REMARK                         _______ _______ _______ _____ _____    ______ ____
ROOT
ATOM      1  N   UNL     1      34.532 -14.834 -21.153  0.00  0.00    +0.387 N 
ATOM      2  C   UNL     1      32.747 -12.671 -22.133  0.00  0.00    +0.103 C 
ATOM      3  C   UNL     1      34.026 -13.131 -22.868  0.00  0.00    +0.008 C 
ATOM      4  C   UNL     1      32.866 -13.067 -20.643  0.00  0.00    +0.008 C 
ATOM      5  C   UNL     1      34.384 -14.596 -22.593  0.00  0.00    -0.075 C 
ATOM      6  C   UNL     1      33.290 -14.527 -20.436  0.00  0.00    -0.075 C 
ATOM      7  H   UNL     1      35.260 -14.210 -20.804  0.00  0.00    -0.080 HD
ENDROOT
BRANCH   2   8
ATOM      8  C   UNL     1      32.424 -11.183 -22.267  0.00  0.00    +0.002 C 
ATOM      9  C   UNL     1      31.802 -10.509 -21.217  0.00  0.00    -0.002 C 
ATOM     10  C   UNL     1      32.752 -10.502 -23.438  0.00  0.00    -0.002 C 
ATOM     11  C   UNL     1      31.509  -9.150 -21.339  0.00  0.00    -0.005 C 
ATOM     12  C   UNL     1      32.458  -9.144 -23.560  0.00  0.00    -0.005 C 
ATOM     13  C   UNL     1      31.837  -8.468 -22.510  0.00  0.00    -0.022 C 
ATOM     14  C   UNL     1      31.522  -7.016 -22.641  0.00  0.00    +0.031 C 
ENDBRANCH   2   8
BRANCH   2  15
ATOM     15  O   UNL     1      31.632 -13.359 -22.721  0.00  0.00    -0.383 OA
ATOM     16  H   UNL     1      31.827 -13.557 -23.650  0.00  0.00    +0.211 HD
ENDBRANCH   2  15
BRANCH   1  17
ATOM     17  C   UNL     1      34.942 -16.215 -20.902  0.00  0.00    -0.077 C 
BRANCH  17  18
ATOM     18  C   UNL     1      35.496 -16.845 -22.181  0.00  0.00    -0.015 C 
BRANCH  18  19
ATOM     19  C   UNL     1      35.385 -18.372 -22.172  0.00  0.00    +0.067 C 
BRANCH  19  21
ATOM     20  O   UNL     1      37.146 -18.696 -20.554  0.00  0.00    -0.291 OA
ATOM     21  C   UNL     1      36.030 -19.018 -20.955  0.00  0.00    +0.173 C 
BRANCH  21  23
ATOM     22  F   UNL     1      33.173 -22.933 -18.182  0.00  0.00    -0.204 F 
ATOM     23  C   UNL     1      35.267 -20.063 -20.213  0.00  0.00    +0.035 C 
ATOM     24  C   UNL     1      33.893 -20.067 -20.304  0.00  0.00    +0.005 C 
ATOM     25  C   UNL     1      35.965 -20.986 -19.467  0.00  0.00    +0.005 C 
ATOM     26  C   UNL     1      33.179 -21.045 -19.611  0.00  0.00    +0.030 C 
ATOM     27  C   UNL     1      35.251 -21.965 -18.774  0.00  0.00    +0.030 C 
ATOM     28  C   UNL     1      33.858 -21.994 -18.847  0.00  0.00    +0.140 C 
ENDBRANCH  21  23
ENDBRANCH  19  21
ENDBRANCH  18  19
ENDBRANCH  17  18
ENDBRANCH   1  17
TORSDOF 7
ENDMDL
MODEL 6
REMARK VINA RESULT:     -10.7      4.229      9.636
REMARK  Name = 4249
REMARK  7 active torsions:
REMARK  status: ('A' for Active; 'I' for Inactive)
REMARK    1  A    between atoms: N_1  and  C_17
REMARK    2  A    between atoms: C_2  and  C_8
REMARK    3  A    between atoms: C_2  and  O_15
REMARK    4  A    between atoms: C_17  and  C_18
REMARK    5  A    between atoms: C_18  and  C_19
REMARK    6  A    between atoms: C_19  and  C_21
REMARK    7  A    between atoms: C_21  and  C_23
REMARK                            x       y       z     vdW  Elec       q    Type
REMARK                         _______ _______ _______ _____ _____    ______ ____
ROOT
ATOM      1  N   UNL     1      33.197 -23.341 -15.042  0.00  0.00    +0.387 N 
ATOM      2  C   UNL     1      33.962 -22.697 -17.839  0.00  0.00    +0.103 C 
ATOM      3  C   UNL     1      34.967 -22.771 -16.667  0.00  0.00    +0.008 C 
ATOM      4  C   UNL     1      32.551 -22.440 -17.261  0.00  0.00    +0.008 C 
ATOM      5  C   UNL     1      34.519 -23.722 -15.551  0.00  0.00    -0.075 C 
ATOM      6  C   UNL     1      32.189 -23.382 -16.105  0.00  0.00    -0.075 C 
ATOM      7  H   UNL     1      33.257 -22.381 -14.700  0.00  0.00    -0.080 HD
ENDROOT
BRANCH   2   8
ATOM      8  C   UNL     1      34.298 -21.661 -18.913  0.00  0.00    +0.002 C 
ATOM      9  C   UNL     1      33.271 -21.009 -19.594  0.00  0.00    -0.002 C 
ATOM     10  C   UNL     1      35.628 -21.371 -19.208  0.00  0.00    -0.002 C 
ATOM     11  C   UNL     1      33.578 -20.063 -20.573  0.00  0.00    -0.005 C 
ATOM     12  C   UNL     1      35.934 -20.426 -20.187  0.00  0.00    -0.005 C 
ATOM     13  C   UNL     1      34.909 -19.772 -20.869  0.00  0.00    -0.022 C 
ATOM     14  C   UNL     1      35.236 -18.761 -21.917  0.00  0.00    +0.031 C 
ENDBRANCH   2   8
BRANCH   2  15
ATOM     15  O   UNL     1      33.979 -23.965 -18.512  0.00  0.00    -0.383 OA
ATOM     16  H   UNL     1      33.531 -24.628 -17.965  0.00  0.00    +0.211 HD
ENDBRANCH   2  15
BRANCH   1  17
ATOM     17  C   UNL     1      32.807 -24.208 -13.930  0.00  0.00    -0.077 C 
BRANCH  17  18
ATOM     18  C   UNL     1      31.733 -23.527 -13.080  0.00  0.00    -0.015 C 
BRANCH  18  19
ATOM     19  C   UNL     1      30.529 -24.440 -12.825  0.00  0.00    +0.067 C 
BRANCH  19  21
ATOM     20  O   UNL     1      30.133 -26.193 -14.435  0.00  0.00    -0.291 OA
ATOM     21  C   UNL     1      29.937 -25.028 -14.096  0.00  0.00    +0.173 C 
BRANCH  21  23
ATOM     22  F   UNL     1      26.699 -21.785 -17.286  0.00  0.00    -0.204 F 
ATOM     23  C   UNL     1      29.071 -24.162 -14.948  0.00  0.00    +0.035 C 
ATOM     24  C   UNL     1      28.702 -22.925 -14.471  0.00  0.00    +0.005 C 
ATOM     25  C   UNL     1      28.675 -24.632 -16.180  0.00  0.00    +0.005 C 
ATOM     26  C   UNL     1      27.893 -22.114 -15.269  0.00  0.00    +0.030 C 
ATOM     27  C   UNL     1      27.866 -23.822 -16.978  0.00  0.00    +0.030 C 
ATOM     28  C   UNL     1      27.476 -22.562 -16.521  0.00  0.00    +0.140 C 
ENDBRANCH  21  23
ENDBRANCH  19  21
ENDBRANCH  18  19
ENDBRANCH  17  18
ENDBRANCH   1  17
TORSDOF 7
ENDMDL
MODEL 7
REMARK VINA RESULT:     -10.6      2.964      5.274
REMARK  Name = 4249
REMARK  7 active torsions:
REMARK  status: ('A' for Active; 'I' for Inactive)
REMARK    1  A    between atoms: N_1  and  C_17
REMARK    2  A    between atoms: C_2  and  C_8
REMARK    3  A    between atoms: C_2  and  O_15
REMARK    4  A    between atoms: C_17  and  C_18
REMARK    5  A    between atoms: C_18  and  C_19
REMARK    6  A    between atoms: C_19  and  C_21
REMARK    7  A    between atoms: C_21  and  C_23
REMARK                            x       y       z     vdW  Elec       q    Type
REMARK                         _______ _______ _______ _____ _____    ______ ____
ROOT
ATOM      1  N   UNL     1      34.596 -16.405 -23.298  0.00  0.00    +0.387 N 
ATOM      2  C   UNL     1      35.309 -18.759 -21.632  0.00  0.00    +0.103 C 
ATOM      3  C   UNL     1      34.628 -18.858 -23.016  0.00  0.00    +0.008 C 
ATOM      4  C   UNL     1      35.033 -17.354 -21.048  0.00  0.00    +0.008 C 
ATOM      5  C   UNL     1      34.959 -17.676 -23.934  0.00  0.00    -0.075 C 
ATOM      6  C   UNL     1      35.322 -16.219 -22.038  0.00  0.00    -0.075 C 
ATOM      7  H   UNL     1      33.598 -16.434 -23.086  0.00  0.00    -0.080 HD
ENDROOT
BRANCH   2   8
ATOM      8  C   UNL     1      34.903 -19.844 -20.634  0.00  0.00    +0.002 C 
ATOM      9  C   UNL     1      33.553 -20.093 -20.389  0.00  0.00    -0.002 C 
ATOM     10  C   UNL     1      35.882 -20.582 -19.972  0.00  0.00    -0.002 C 
ATOM     11  C   UNL     1      33.183 -21.084 -19.478  0.00  0.00    -0.005 C 
ATOM     12  C   UNL     1      35.511 -21.572 -19.062  0.00  0.00    -0.005 C 
ATOM     13  C   UNL     1      34.162 -21.823 -18.816  0.00  0.00    -0.022 C 
ATOM     14  C   UNL     1      33.766 -22.881 -17.842  0.00  0.00    +0.031 C 
ENDBRANCH   2   8
BRANCH   2  15
ATOM     15  O   UNL     1      36.722 -18.927 -21.826  0.00  0.00    -0.383 OA
ATOM     16  H   UNL     1      37.174 -18.087 -21.651  0.00  0.00    +0.211 HD
ENDBRANCH   2  15
BRANCH   1  17
ATOM     17  C   UNL     1      34.848 -15.287 -24.206  0.00  0.00    -0.077 C 
BRANCH  17  18
ATOM     18  C   UNL     1      33.526 -14.682 -24.681  0.00  0.00    -0.015 C 
BRANCH  18  19
ATOM     19  C   UNL     1      32.731 -14.051 -23.535  0.00  0.00    +0.067 C 
BRANCH  19  21
ATOM     20  O   UNL     1      33.878 -11.977 -23.986  0.00  0.00    -0.291 OA
ATOM     21  C   UNL     1      33.108 -12.603 -23.261  0.00  0.00    +0.173 C 
BRANCH  21  23
ATOM     22  F   UNL     1      30.851 -10.037 -18.846  0.00  0.00    -0.204 F 
ATOM     23  C   UNL     1      32.504 -11.918 -22.082  0.00  0.00    +0.035 C 
ATOM     24  C   UNL     1      32.492 -12.575 -20.872  0.00  0.00    +0.005 C 
ATOM     25  C   UNL     1      31.984 -10.654 -22.247  0.00  0.00    +0.005 C 
ATOM     26  C   UNL     1      31.927 -11.933 -19.769  0.00  0.00    +0.030 C 
ATOM     27  C   UNL     1      31.420 -10.012 -21.144  0.00  0.00    +0.030 C 
ATOM     28  C   UNL     1      31.393 -10.653 -19.904  0.00  0.00    +0.140 C 
ENDBRANCH  21  23
ENDBRANCH  19  21
ENDBRANCH  18  19
ENDBRANCH  17  18
ENDBRANCH   1  17
TORSDOF 7
ENDMDL
MODEL 8
REMARK VINA RESULT:     -10.4      3.499      9.900
REMARK  Name = 4249
REMARK  7 active torsions:
REMARK  status: ('A' for Active; 'I' for Inactive)
REMARK    1  A    between atoms: N_1  and  C_17
REMARK    2  A    between atoms: C_2  and  C_8
REMARK    3  A    between atoms: C_2  and  O_15
REMARK    4  A    between atoms: C_17  and  C_18
REMARK    5  A    between atoms: C_18  and  C_19
REMARK    6  A    between atoms: C_19  and  C_21
REMARK    7  A    between atoms: C_21  and  C_23
REMARK                            x       y       z     vdW  Elec       q    Type
REMARK                         _______ _______ _______ _____ _____    ______ ____
ROOT
ATOM      1  N   UNL     1      35.967 -20.220 -19.491  0.00  0.00    +0.387 N 
ATOM      2  C   UNL     1      35.448 -18.475 -21.838  0.00  0.00    +0.103 C 
ATOM      3  C   UNL     1      36.761 -18.453 -21.023  0.00  0.00    +0.008 C 
ATOM      4  C   UNL     1      34.327 -19.064 -20.951  0.00  0.00    +0.008 C 
ATOM      5  C   UNL     1      37.075 -19.796 -20.354  0.00  0.00    -0.075 C 
ATOM      6  C   UNL     1      34.728 -20.374 -20.259  0.00  0.00    -0.075 C 
ATOM      7  H   UNL     1      35.817 -19.491 -18.792  0.00  0.00    -0.080 HD
ENDROOT
BRANCH   2   8
ATOM      8  C   UNL     1      35.021 -17.123 -22.412  0.00  0.00    +0.002 C 
ATOM      9  C   UNL     1      34.946 -16.007 -21.580  0.00  0.00    -0.002 C 
ATOM     10  C   UNL     1      34.710 -17.009 -23.766  0.00  0.00    -0.002 C 
ATOM     11  C   UNL     1      34.558 -14.774 -22.105  0.00  0.00    -0.005 C 
ATOM     12  C   UNL     1      34.322 -15.776 -24.289  0.00  0.00    -0.005 C 
ATOM     13  C   UNL     1      34.247 -14.658 -23.458  0.00  0.00    -0.022 C 
ATOM     14  C   UNL     1      33.831 -13.339 -24.018  0.00  0.00    +0.031 C 
ENDBRANCH   2   8
BRANCH   2  15
ATOM     15  O   UNL     1      35.653 -19.326 -22.977  0.00  0.00    -0.383 OA
ATOM     16  H   UNL     1      36.494 -19.799 -22.880  0.00  0.00    +0.211 HD
ENDBRANCH   2  15
BRANCH   1  17
ATOM     17  C   UNL     1      36.302 -21.465 -18.802  0.00  0.00    -0.077 C 
BRANCH  17  18
ATOM     18  C   UNL     1      35.109 -22.422 -18.825  0.00  0.00    -0.015 C 
BRANCH  18  19
ATOM     19  C   UNL     1      34.581 -22.727 -17.421  0.00  0.00    +0.067 C 
BRANCH  19  21
ATOM     20  O   UNL     1      32.370 -22.193 -18.229  0.00  0.00    -0.291 OA
ATOM     21  C   UNL     1      33.070 -22.590 -17.301  0.00  0.00    +0.173 C 
BRANCH  21  23
ATOM     22  F   UNL     1      30.631 -24.031 -12.489  0.00  0.00    -0.204 F 
ATOM     23  C   UNL     1      32.419 -22.974 -16.015  0.00  0.00    +0.035 C 
ATOM     24  C   UNL     1      31.043 -22.981 -15.948  0.00  0.00    +0.005 C 
ATOM     25  C   UNL     1      33.217 -23.309 -14.944  0.00  0.00    +0.005 C 
ATOM     26  C   UNL     1      30.434 -23.342 -14.745  0.00  0.00    +0.030 C 
ATOM     27  C   UNL     1      32.608 -23.669 -13.741  0.00  0.00    +0.030 C 
ATOM     28  C   UNL     1      31.216 -23.686 -13.643  0.00  0.00    +0.140 C 
ENDBRANCH  21  23
ENDBRANCH  19  21
ENDBRANCH  18  19
ENDBRANCH  17  18
ENDBRANCH   1  17
TORSDOF 7
ENDMDL
MODEL 9
REMARK VINA RESULT:     -10.1      3.217      9.737
REMARK  Name = 4249
REMARK  7 active torsions:
REMARK  status: ('A' for Active; 'I' for Inactive)
REMARK    1  A    between atoms: N_1  and  C_17
REMARK    2  A    between atoms: C_2  and  C_8
REMARK    3  A    between atoms: C_2  and  O_15
REMARK    4  A    between atoms: C_17  and  C_18
REMARK    5  A    between atoms: C_18  and  C_19
REMARK    6  A    between atoms: C_19  and  C_21
REMARK    7  A    between atoms: C_21  and  C_23
REMARK                            x       y       z     vdW  Elec       q    Type
REMARK                         _______ _______ _______ _____ _____    ______ ____
ROOT
ATOM      1  N   UNL     1      36.080 -20.411 -19.381  0.00  0.00    +0.387 N 
ATOM      2  C   UNL     1      35.504 -18.572 -21.642  0.00  0.00    +0.103 C 
ATOM      3  C   UNL     1      36.854 -18.617 -20.892  0.00  0.00    +0.008 C 
ATOM      4  C   UNL     1      34.409 -19.157 -20.721  0.00  0.00    +0.008 C 
ATOM      5  C   UNL     1      37.158 -19.991 -20.283  0.00  0.00    -0.075 C 
ATOM      6  C   UNL     1      34.801 -20.501 -20.093  0.00  0.00    -0.075 C 
ATOM      7  H   UNL     1      35.986 -19.702 -18.653  0.00  0.00    -0.080 HD
ENDROOT
BRANCH   2   8
ATOM      8  C   UNL     1      35.094 -17.189 -22.150  0.00  0.00    +0.002 C 
ATOM      9  C   UNL     1      34.954 -16.132 -21.252  0.00  0.00    -0.002 C 
ATOM     10  C   UNL     1      34.862 -16.987 -23.509  0.00  0.00    -0.002 C 
ATOM     11  C   UNL     1      34.580 -14.870 -21.716  0.00  0.00    -0.005 C 
ATOM     12  C   UNL     1      34.489 -15.726 -23.972  0.00  0.00    -0.005 C 
ATOM     13  C   UNL     1      34.348 -14.667 -23.076  0.00  0.00    -0.022 C 
ATOM     14  C   UNL     1      33.948 -13.318 -23.571  0.00  0.00    +0.031 C 
ENDBRANCH   2   8
BRANCH   2  15
ATOM     15  O   UNL     1      35.628 -19.389 -22.816  0.00  0.00    -0.383 OA
ATOM     16  H   UNL     1      36.566 -19.517 -23.024  0.00  0.00    +0.211 HD
ENDBRANCH   2  15
BRANCH   1  17
ATOM     17  C   UNL     1      36.408 -21.688 -18.750  0.00  0.00    -0.077 C 
BRANCH  17  18
ATOM     18  C   UNL     1      35.185 -22.249 -18.022  0.00  0.00    -0.015 C 
BRANCH  18  19
ATOM     19  C   UNL     1      35.402 -22.342 -16.509  0.00  0.00    +0.067 C 
BRANCH  19  21
ATOM     20  O   UNL     1      35.169 -24.580 -15.637  0.00  0.00    -0.291 OA
ATOM     21  C   UNL     1      34.645 -23.491 -15.859  0.00  0.00    +0.173 C 
BRANCH  21  23
ATOM     22  F   UNL     1      29.326 -22.678 -14.369  0.00  0.00    -0.204 F 
ATOM     23  C   UNL     1      33.224 -23.275 -15.461  0.00  0.00    +0.035 C 
ATOM     24  C   UNL     1      32.907 -23.268 -14.121  0.00  0.00    +0.005 C 
ATOM     25  C   UNL     1      32.283 -23.088 -16.448  0.00  0.00    +0.005 C 
ATOM     26  C   UNL     1      31.578 -23.065 -13.749  0.00  0.00    +0.030 C 
ATOM     27  C   UNL     1      30.953 -22.885 -16.076  0.00  0.00    +0.030 C 
ATOM     28  C   UNL     1      30.602 -22.873 -14.726  0.00  0.00    +0.140 C 
ENDBRANCH  21  23
ENDBRANCH  19  21
ENDBRANCH  18  19
ENDBRANCH  17  18
ENDBRANCH   1  17
TORSDOF 7
ENDMDL
