MODEL 1
REMARK VINA RESULT:     -11.2      0.000      0.000
REMARK  Name = 42608447
REMARK  9 active torsions:
REMARK  status: ('A' for Active; 'I' for Inactive)
REMARK    1  A    between atoms: C_3  and  C_8
REMARK    2  A    between atoms: C_7  and  C_23
REMARK    3  A    between atoms: C_8  and  N_10
REMARK    4  A    between atoms: C_11  and  C_13
REMARK    5  A    between atoms: C_16  and  S_19
REMARK    6  A    between atoms: C_23  and  C_24
REMARK    7  A    between atoms: C_24  and  N_25
REMARK    8  A    between atoms: C_24  and  C_29
REMARK    9  A    between atoms: C_29  and  C_31
REMARK                            x       y       z     vdW  Elec       q    Type
REMARK                         _______ _______ _______ _____ _____    ______ ____
ROOT
ATOM      1  O   UNL     1      35.146 -15.762 -20.812  0.00  0.00    -0.275 OA
ATOM      2  N   UNL     1      34.348 -15.258 -22.925  0.00  0.00    -0.280 N 
ATOM      3  C   UNL     1      33.998 -13.864 -22.643  0.00  0.00    +0.095 C 
ATOM      4  C   UNL     1      33.809 -13.248 -24.031  0.00  0.00    +0.023 C 
ATOM      5  C   UNL     1      33.298 -14.415 -24.868  0.00  0.00    +0.023 C 
ATOM      6  C   UNL     1      34.083 -15.598 -24.320  0.00  0.00    +0.093 C 
ATOM      7  C   UNL     1      34.938 -16.085 -21.983  0.00  0.00    +0.224 C 
ENDROOT
BRANCH   3   8
ATOM      8  C   UNL     1      32.734 -13.767 -21.792  0.00  0.00    +0.109 C 
BRANCH   8  10
ATOM      9  O   UNL     1      30.973 -11.614 -22.505  0.00  0.00    -0.270 OA
ATOM     10  N   UNL     1      32.642 -12.490 -21.152  0.00  0.00    -0.299 N 
ATOM     11  C   UNL     1      31.754 -11.499 -21.565  0.00  0.00    +0.246 C 
ATOM     12  H   UNL     1      33.231 -12.305 -20.385  0.00  0.00    +0.150 HD
BRANCH  11  13
ATOM     13  C   UNL     1      31.799 -10.219 -20.812  0.00  0.00    +0.055 C 
ATOM     14  C   UNL     1      32.124  -9.032 -21.471  0.00  0.00    +0.023 C 
ATOM     15  C   UNL     1      31.516 -10.202 -19.446  0.00  0.00    +0.005 C 
ATOM     16  C   UNL     1      32.166  -7.831 -20.764  0.00  0.00    +0.106 C 
ATOM     17  C   UNL     1      31.559  -9.001 -18.739  0.00  0.00    +0.001 C 
ATOM     18  C   UNL     1      31.883  -7.815 -19.398  0.00  0.00    +0.018 C 
BRANCH  16  19
ATOM     19  S   UNL     1      32.572  -6.346 -21.588  0.00  0.00    +0.010 S 
ATOM     20  O   UNL     1      32.438  -5.236 -20.654  0.00  0.00    -0.169 OA
ATOM     21  O   UNL     1      33.831  -6.553 -22.289  0.00  0.00    -0.169 OA
ATOM     22  C   UNL     1      31.293  -6.153 -22.808  0.00  0.00    +0.182 C 
ENDBRANCH  16  19
ENDBRANCH  11  13
ENDBRANCH   8  10
ENDBRANCH   3   8
BRANCH   7  23
ATOM     23  C   UNL     1      35.326 -17.457 -22.475  0.00  0.00    +0.064 C 
BRANCH  23  24
ATOM     24  C   UNL     1      35.581 -18.423 -21.316  0.00  0.00    -0.052 C 
BRANCH  24  25
ATOM     25  N   UNL     1      37.037 -18.555 -21.173  0.00  0.00    +0.382 N 
ATOM     26  H   UNL     1      37.378 -19.269 -21.816  0.00  0.00    -0.089 HD
ATOM     27  H   UNL     1      37.261 -18.824 -20.215  0.00  0.00    -0.089 HD
ATOM     28  H   UNL     1      37.482 -17.662 -21.389  0.00  0.00    -0.089 HD
ENDBRANCH  24  25
BRANCH  24  29
ATOM     29  C   UNL     1      34.983 -19.828 -21.546  0.00  0.00    +0.005 C 
BRANCH  29  31
ATOM     30 CL   UNL     1      36.956 -22.100 -17.288  0.00  0.00    -0.082 Cl
ATOM     31  C   UNL     1      34.756 -20.629 -20.287  0.00  0.00    -0.023 C 
ATOM     32  C   UNL     1      35.835 -20.956 -19.465  0.00  0.00    +0.007 C 
ATOM     33  C   UNL     1      33.469 -21.043 -19.946  0.00  0.00    -0.004 C 
ATOM     34  C   UNL     1      35.626 -21.697 -18.302  0.00  0.00    +0.057 C 
ATOM     35  C   UNL     1      33.260 -21.784 -18.783  0.00  0.00    +0.001 C 
ATOM     36  C   UNL     1      34.339 -22.111 -17.961  0.00  0.00    +0.011 C 
ENDBRANCH  29  31
ENDBRANCH  24  29
ENDBRANCH  23  24
ENDBRANCH   7  23
TORSDOF 9
ENDMDL
MODEL 2
REMARK VINA RESULT:     -11.2      8.659     12.379
REMARK  Name = 42608447
REMARK  9 active torsions:
REMARK  status: ('A' for Active; 'I' for Inactive)
REMARK    1  A    between atoms: C_3  and  C_8
REMARK    2  A    between atoms: C_7  and  C_23
REMARK    3  A    between atoms: C_8  and  N_10
REMARK    4  A    between atoms: C_11  and  C_13
REMARK    5  A    between atoms: C_16  and  S_19
REMARK    6  A    between atoms: C_23  and  C_24
REMARK    7  A    between atoms: C_24  and  N_25
REMARK    8  A    between atoms: C_24  and  C_29
REMARK    9  A    between atoms: C_29  and  C_31
REMARK                            x       y       z     vdW  Elec       q    Type
REMARK                         _______ _______ _______ _____ _____    ______ ____
ROOT
ATOM      1  O   UNL     1      33.640 -23.836 -17.122  0.00  0.00    -0.275 OA
ATOM      2  N   UNL     1      35.602 -22.649 -16.814  0.00  0.00    -0.280 N 
ATOM      3  C   UNL     1      35.909 -23.177 -15.482  0.00  0.00    +0.095 C 
ATOM      4  C   UNL     1      37.377 -22.798 -15.270  0.00  0.00    +0.023 C 
ATOM      5  C   UNL     1      37.524 -21.500 -16.054  0.00  0.00    +0.023 C 
ATOM      6  C   UNL     1      36.645 -21.736 -17.274  0.00  0.00    +0.093 C 
ATOM      7  C   UNL     1      34.501 -23.062 -17.546  0.00  0.00    +0.224 C 
ENDROOT
BRANCH   3   8
ATOM      8  C   UNL     1      34.998 -22.569 -14.419  0.00  0.00    +0.109 C 
BRANCH   8  10
ATOM      9  O   UNL     1      33.444 -23.850 -12.372  0.00  0.00    -0.270 OA
ATOM     10  N   UNL     1      33.660 -23.065 -14.544  0.00  0.00    -0.299 N 
ATOM     11  C   UNL     1      32.978 -23.675 -13.494  0.00  0.00    +0.246 C 
ATOM     12  H   UNL     1      33.203 -22.969 -15.410  0.00  0.00    +0.150 HD
BRANCH  11  13
ATOM     13  C   UNL     1      31.605 -24.158 -13.793  0.00  0.00    +0.055 C 
ATOM     14  C   UNL     1      30.826 -23.503 -14.747  0.00  0.00    +0.023 C 
ATOM     15  C   UNL     1      31.094 -25.269 -13.120  0.00  0.00    +0.005 C 
ATOM     16  C   UNL     1      29.538 -23.956 -15.027  0.00  0.00    +0.106 C 
ATOM     17  C   UNL     1      29.805 -25.722 -13.401  0.00  0.00    +0.001 C 
ATOM     18  C   UNL     1      29.027 -25.066 -14.354  0.00  0.00    +0.018 C 
BRANCH  16  19
ATOM     19  S   UNL     1      28.563 -23.135 -16.221  0.00  0.00    +0.010 S 
ATOM     20  O   UNL     1      29.344 -22.051 -16.803  0.00  0.00    -0.169 OA
ATOM     21  O   UNL     1      27.970 -24.145 -17.087  0.00  0.00    -0.169 OA
ATOM     22  C   UNL     1      27.253 -22.382 -15.282  0.00  0.00    +0.182 C 
ENDBRANCH  16  19
ENDBRANCH  11  13
ENDBRANCH   8  10
ENDBRANCH   3   8
BRANCH   7  23
ATOM     23  C   UNL     1      34.396 -22.495 -18.939  0.00  0.00    +0.064 C 
BRANCH  23  24
ATOM     24  C   UNL     1      33.513 -21.247 -18.977  0.00  0.00    -0.052 C 
BRANCH  24  25
ATOM     25  N   UNL     1      32.208 -21.620 -18.414  0.00  0.00    +0.382 N 
ATOM     26  H   UNL     1      31.466 -21.312 -19.042  0.00  0.00    -0.089 HD
ATOM     27  H   UNL     1      32.091 -21.176 -17.503  0.00  0.00    -0.089 HD
ATOM     28  H   UNL     1      32.162 -22.634 -18.305  0.00  0.00    -0.089 HD
ENDBRANCH  24  25
BRANCH  24  29
ATOM     29  C   UNL     1      33.290 -20.696 -20.403  0.00  0.00    +0.005 C 
BRANCH  29  31
ATOM     30 CL   UNL     1      35.035 -17.287 -23.941  0.00  0.00    -0.082 Cl
ATOM     31  C   UNL     1      34.424 -19.857 -20.937  0.00  0.00    -0.023 C 
ATOM     32  C   UNL     1      34.228 -19.053 -22.061  0.00  0.00    +0.007 C 
ATOM     33  C   UNL     1      35.669 -19.885 -20.309  0.00  0.00    -0.004 C 
ATOM     34  C   UNL     1      35.277 -18.278 -22.556  0.00  0.00    +0.057 C 
ATOM     35  C   UNL     1      36.718 -19.110 -20.804  0.00  0.00    +0.001 C 
ATOM     36  C   UNL     1      36.521 -18.307 -21.928  0.00  0.00    +0.011 C 
ENDBRANCH  29  31
ENDBRANCH  24  29
ENDBRANCH  23  24
ENDBRANCH   7  23
TORSDOF 9
ENDMDL
MODEL 3
REMARK VINA RESULT:     -11.1      4.530     10.957
REMARK  Name = 42608447
REMARK  9 active torsions:
REMARK  status: ('A' for Active; 'I' for Inactive)
REMARK    1  A    between atoms: C_3  and  C_8
REMARK    2  A    between atoms: C_7  and  C_23
REMARK    3  A    between atoms: C_8  and  N_10
REMARK    4  A    between atoms: C_11  and  C_13
REMARK    5  A    between atoms: C_16  and  S_19
REMARK    6  A    between atoms: C_23  and  C_24
REMARK    7  A    between atoms: C_24  and  N_25
REMARK    8  A    between atoms: C_24  and  C_29
REMARK    9  A    between atoms: C_29  and  C_31
REMARK                            x       y       z     vdW  Elec       q    Type
REMARK                         _______ _______ _______ _____ _____    ______ ____
ROOT
ATOM      1  O   UNL     1      34.560 -13.312 -24.117  0.00  0.00    -0.275 OA
ATOM      2  N   UNL     1      33.702 -13.767 -22.017  0.00  0.00    -0.280 N 
ATOM      3  C   UNL     1      34.756 -14.696 -21.603  0.00  0.00    +0.095 C 
ATOM      4  C   UNL     1      34.567 -14.810 -20.088  0.00  0.00    +0.023 C 
ATOM      5  C   UNL     1      33.067 -14.617 -19.904  0.00  0.00    +0.023 C 
ATOM      6  C   UNL     1      32.726 -13.565 -20.949  0.00  0.00    +0.093 C 
ATOM      7  C   UNL     1      33.718 -13.115 -23.239  0.00  0.00    +0.224 C 
ENDROOT
BRANCH   3   8
ATOM      8  C   UNL     1      34.616 -16.045 -22.304  0.00  0.00    +0.109 C 
BRANCH   8  10
ATOM      9  O   UNL     1      34.591 -18.849 -22.924  0.00  0.00    -0.270 OA
ATOM     10  N   UNL     1      35.044 -17.114 -21.452  0.00  0.00    -0.299 N 
ATOM     11  C   UNL     1      34.997 -18.452 -21.836  0.00  0.00    +0.246 C 
ATOM     12  H   UNL     1      35.386 -16.892 -20.557  0.00  0.00    +0.150 HD
BRANCH  11  13
ATOM     13  C   UNL     1      35.454 -19.443 -20.827  0.00  0.00    +0.055 C 
ATOM     14  C   UNL     1      34.554 -20.374 -20.306  0.00  0.00    +0.023 C 
ATOM     15  C   UNL     1      36.781 -19.443 -20.400  0.00  0.00    +0.005 C 
ATOM     16  C   UNL     1      34.983 -21.303 -19.359  0.00  0.00    +0.106 C 
ATOM     17  C   UNL     1      37.210 -20.372 -19.452  0.00  0.00    +0.001 C 
ATOM     18  C   UNL     1      36.311 -21.303 -18.932  0.00  0.00    +0.018 C 
BRANCH  16  19
ATOM     19  S   UNL     1      33.857 -22.469 -18.708  0.00  0.00    +0.010 S 
ATOM     20  O   UNL     1      32.534 -21.862 -18.644  0.00  0.00    -0.169 OA
ATOM     21  O   UNL     1      34.044 -23.722 -19.426  0.00  0.00    -0.169 OA
ATOM     22  C   UNL     1      34.394 -22.715 -17.031  0.00  0.00    +0.182 C 
ENDBRANCH  16  19
ENDBRANCH  11  13
ENDBRANCH   8  10
ENDBRANCH   3   8
BRANCH   7  23
ATOM     23  C   UNL     1      32.611 -12.115 -23.457  0.00  0.00    +0.064 C 
BRANCH  23  24
ATOM     24  C   UNL     1      33.140 -10.804 -24.041  0.00  0.00    -0.052 C 
BRANCH  24  25
ATOM     25  N   UNL     1      34.474 -10.579 -23.468  0.00  0.00    +0.382 N 
ATOM     26  H   UNL     1      34.403  -9.922 -22.691  0.00  0.00    -0.089 HD
ATOM     27  H   UNL     1      35.092 -10.196 -24.183  0.00  0.00    -0.089 HD
ATOM     28  H   UNL     1      34.853 -11.465 -23.131  0.00  0.00    -0.089 HD
ENDBRANCH  24  25
BRANCH  24  29
ATOM     29  C   UNL     1      32.254  -9.582 -23.710  0.00  0.00    +0.005 C 
BRANCH  29  31
ATOM     30 CL   UNL     1      31.269 -10.360 -18.649  0.00  0.00    -0.082 Cl
ATOM     31  C   UNL     1      32.359  -9.098 -22.285  0.00  0.00    -0.023 C 
ATOM     32  C   UNL     1      31.828  -9.864 -21.247  0.00  0.00    +0.007 C 
ATOM     33  C   UNL     1      32.985  -7.883 -22.006  0.00  0.00    -0.004 C 
ATOM     34  C   UNL     1      31.923  -9.415 -19.929  0.00  0.00    +0.057 C 
ATOM     35  C   UNL     1      33.080  -7.435 -20.688  0.00  0.00    +0.001 C 
ATOM     36  C   UNL     1      32.549  -8.201 -19.650  0.00  0.00    +0.011 C 
ENDBRANCH  29  31
ENDBRANCH  24  29
ENDBRANCH  23  24
ENDBRANCH   7  23
TORSDOF 9
ENDMDL
MODEL 4
REMARK VINA RESULT:     -10.8      5.306     11.610
REMARK  Name = 42608447
REMARK  9 active torsions:
REMARK  status: ('A' for Active; 'I' for Inactive)
REMARK    1  A    between atoms: C_3  and  C_8
REMARK    2  A    between atoms: C_7  and  C_23
REMARK    3  A    between atoms: C_8  and  N_10
REMARK    4  A    between atoms: C_11  and  C_13
REMARK    5  A    between atoms: C_16  and  S_19
REMARK    6  A    between atoms: C_23  and  C_24
REMARK    7  A    between atoms: C_24  and  N_25
REMARK    8  A    between atoms: C_24  and  C_29
REMARK    9  A    between atoms: C_29  and  C_31
REMARK                            x       y       z     vdW  Elec       q    Type
REMARK                         _______ _______ _______ _____ _____    ______ ____
ROOT
ATOM      1  O   UNL     1      34.152 -13.090 -23.952  0.00  0.00    -0.275 OA
ATOM      2  N   UNL     1      33.502 -13.789 -21.844  0.00  0.00    -0.280 N 
ATOM      3  C   UNL     1      34.706 -14.570 -21.549  0.00  0.00    +0.095 C 
ATOM      4  C   UNL     1      34.630 -14.798 -20.037  0.00  0.00    +0.023 C 
ATOM      5  C   UNL     1      33.132 -14.846 -19.762  0.00  0.00    +0.023 C 
ATOM      6  C   UNL     1      32.576 -13.799 -20.715  0.00  0.00    +0.093 C 
ATOM      7  C   UNL     1      33.346 -13.073 -23.019  0.00  0.00    +0.224 C 
ENDROOT
BRANCH   3   8
ATOM      8  C   UNL     1      34.724 -15.882 -22.330  0.00  0.00    +0.109 C 
BRANCH   8  10
ATOM      9  O   UNL     1      34.588 -18.680 -22.962  0.00  0.00    -0.270 OA
ATOM     10  N   UNL     1      35.147 -16.969 -21.499  0.00  0.00    -0.299 N 
ATOM     11  C   UNL     1      35.045 -18.303 -21.887  0.00  0.00    +0.246 C 
ATOM     12  H   UNL     1      35.529 -16.763 -20.615  0.00  0.00    +0.150 HD
BRANCH  11  13
ATOM     13  C   UNL     1      35.506 -19.313 -20.900  0.00  0.00    +0.055 C 
ATOM     14  C   UNL     1      34.612 -20.263 -20.404  0.00  0.00    +0.023 C 
ATOM     15  C   UNL     1      36.832 -19.313 -20.468  0.00  0.00    +0.005 C 
ATOM     16  C   UNL     1      35.045 -21.211 -19.478  0.00  0.00    +0.106 C 
ATOM     17  C   UNL     1      37.265 -20.261 -19.541  0.00  0.00    +0.001 C 
ATOM     18  C   UNL     1      36.371 -21.211 -19.046  0.00  0.00    +0.018 C 
BRANCH  16  19
ATOM     19  S   UNL     1      33.926 -22.400 -18.857  0.00  0.00    +0.010 S 
ATOM     20  O   UNL     1      32.587 -21.825 -18.842  0.00  0.00    -0.169 OA
ATOM     21  O   UNL     1      34.167 -23.652 -19.561  0.00  0.00    -0.169 OA
ATOM     22  C   UNL     1      34.412 -22.624 -17.162  0.00  0.00    +0.182 C 
ENDBRANCH  16  19
ENDBRANCH  11  13
ENDBRANCH   8  10
ENDBRANCH   3   8
BRANCH   7  23
ATOM     23  C   UNL     1      32.092 -12.241 -23.112  0.00  0.00    +0.064 C 
BRANCH  23  24
ATOM     24  C   UNL     1      32.353 -10.780 -22.740  0.00  0.00    -0.052 C 
BRANCH  24  25
ATOM     25  N   UNL     1      31.262 -10.356 -21.853  0.00  0.00    +0.382 N 
ATOM     26  H   UNL     1      31.606  -9.646 -21.207  0.00  0.00    -0.089 HD
ATOM     27  H   UNL     1      30.921 -11.160 -21.326  0.00  0.00    -0.089 HD
ATOM     28  H   UNL     1      30.501  -9.968 -22.412  0.00  0.00    -0.089 HD
ENDBRANCH  24  25
BRANCH  24  29
ATOM     29  C   UNL     1      32.387  -9.833 -23.960  0.00  0.00    +0.005 C 
BRANCH  29  31
ATOM     30 CL   UNL     1      32.860  -4.642 -24.081  0.00  0.00    -0.082 Cl
ATOM     31  C   UNL     1      33.254  -8.611 -23.784  0.00  0.00    -0.023 C 
ATOM     32  C   UNL     1      32.718  -7.339 -23.990  0.00  0.00    +0.007 C 
ATOM     33  C   UNL     1      34.592  -8.752 -23.417  0.00  0.00    -0.004 C 
ATOM     34  C   UNL     1      33.520  -6.210 -23.828  0.00  0.00    +0.057 C 
ATOM     35  C   UNL     1      35.394  -7.623 -23.255  0.00  0.00    +0.001 C 
ATOM     36  C   UNL     1      34.858  -6.351 -23.460  0.00  0.00    +0.011 C 
ENDBRANCH  29  31
ENDBRANCH  24  29
ENDBRANCH  23  24
ENDBRANCH   7  23
TORSDOF 9
ENDMDL
MODEL 5
REMARK VINA RESULT:     -10.7      2.483      4.607
REMARK  Name = 42608447
REMARK  9 active torsions:
REMARK  status: ('A' for Active; 'I' for Inactive)
REMARK    1  A    between atoms: C_3  and  C_8
REMARK    2  A    between atoms: C_7  and  C_23
REMARK    3  A    between atoms: C_8  and  N_10
REMARK    4  A    between atoms: C_11  and  C_13
REMARK    5  A    between atoms: C_16  and  S_19
REMARK    6  A    between atoms: C_23  and  C_24
REMARK    7  A    between atoms: C_24  and  N_25
REMARK    8  A    between atoms: C_24  and  C_29
REMARK    9  A    between atoms: C_29  and  C_31
REMARK                            x       y       z     vdW  Elec       q    Type
REMARK                         _______ _______ _______ _____ _____    ______ ____
ROOT
ATOM      1  O   UNL     1      37.149 -19.096 -19.557  0.00  0.00    -0.275 OA
ATOM      2  N   UNL     1      35.701 -19.167 -21.361  0.00  0.00    -0.280 N 
ATOM      3  C   UNL     1      35.894 -17.777 -21.784  0.00  0.00    +0.095 C 
ATOM      4  C   UNL     1      35.309 -17.744 -23.198  0.00  0.00    +0.023 C 
ATOM      5  C   UNL     1      34.199 -18.787 -23.147  0.00  0.00    +0.023 C 
ATOM      6  C   UNL     1      34.791 -19.872 -22.260  0.00  0.00    +0.093 C 
ATOM      7  C   UNL     1      36.387 -19.724 -20.294  0.00  0.00    +0.224 C 
ENDROOT
BRANCH   3   8
ATOM      8  C   UNL     1      35.185 -16.805 -20.844  0.00  0.00    +0.109 C 
BRANCH   8  10
ATOM      9  O   UNL     1      33.410 -14.763 -19.883  0.00  0.00    -0.270 OA
ATOM     10  N   UNL     1      34.803 -15.610 -21.534  0.00  0.00    -0.299 N 
ATOM     11  C   UNL     1      33.933 -14.668 -20.990  0.00  0.00    +0.246 C 
ATOM     12  H   UNL     1      35.174 -15.446 -22.431  0.00  0.00    +0.150 HD
BRANCH  11  13
ATOM     13  C   UNL     1      33.617 -13.493 -21.843  0.00  0.00    +0.055 C 
ATOM     14  C   UNL     1      32.685 -12.549 -21.413  0.00  0.00    +0.023 C 
ATOM     15  C   UNL     1      34.253 -13.334 -23.074  0.00  0.00    +0.005 C 
ATOM     16  C   UNL     1      32.388 -11.446 -22.214  0.00  0.00    +0.106 C 
ATOM     17  C   UNL     1      33.956 -12.231 -23.875  0.00  0.00    +0.001 C 
ATOM     18  C   UNL     1      33.024 -11.287 -23.445  0.00  0.00    +0.018 C 
BRANCH  16  19
ATOM     19  S   UNL     1      31.221 -10.264 -21.675  0.00  0.00    +0.010 S 
ATOM     20  O   UNL     1      30.795  -9.467 -22.818  0.00  0.00    -0.169 OA
ATOM     21  O   UNL     1      30.227 -10.953 -20.864  0.00  0.00    -0.169 OA
ATOM     22  C   UNL     1      32.146  -9.184 -20.607  0.00  0.00    +0.182 C 
ENDBRANCH  16  19
ENDBRANCH  11  13
ENDBRANCH   8  10
ENDBRANCH   3   8
BRANCH   7  23
ATOM     23  C   UNL     1      36.146 -21.195 -20.064  0.00  0.00    +0.064 C 
BRANCH  23  24
ATOM     24  C   UNL     1      35.604 -21.466 -18.660  0.00  0.00    -0.052 C 
BRANCH  24  25
ATOM     25  N   UNL     1      36.760 -21.716 -17.789  0.00  0.00    +0.382 N 
ATOM     26  H   UNL     1      37.231 -20.834 -17.589  0.00  0.00    -0.089 HD
ATOM     27  H   UNL     1      37.407 -22.350 -18.256  0.00  0.00    -0.089 HD
ATOM     28  H   UNL     1      36.443 -22.137 -16.915  0.00  0.00    -0.089 HD
ENDBRANCH  24  25
BRANCH  24  29
ATOM     29  C   UNL     1      34.666 -22.692 -18.590  0.00  0.00    +0.005 C 
BRANCH  29  31
ATOM     30 CL   UNL     1      30.108 -22.827 -16.060  0.00  0.00    -0.082 Cl
ATOM     31  C   UNL     1      33.915 -22.836 -17.289  0.00  0.00    -0.023 C 
ATOM     32  C   UNL     1      32.521 -22.773 -17.278  0.00  0.00    +0.007 C 
ATOM     33  C   UNL     1      34.614 -23.031 -16.098  0.00  0.00    -0.004 C 
ATOM     34  C   UNL     1      31.827 -22.905 -16.075  0.00  0.00    +0.057 C 
ATOM     35  C   UNL     1      33.919 -23.163 -14.895  0.00  0.00    +0.001 C 
ATOM     36  C   UNL     1      32.526 -23.100 -14.884  0.00  0.00    +0.011 C 
ENDBRANCH  29  31
ENDBRANCH  24  29
ENDBRANCH  23  24
ENDBRANCH   7  23
TORSDOF 9
ENDMDL
MODEL 6
REMARK VINA RESULT:     -10.6      2.250      2.796
REMARK  Name = 42608447
REMARK  9 active torsions:
REMARK  status: ('A' for Active; 'I' for Inactive)
REMARK    1  A    between atoms: C_3  and  C_8
REMARK    2  A    between atoms: C_7  and  C_23
REMARK    3  A    between atoms: C_8  and  N_10
REMARK    4  A    between atoms: C_11  and  C_13
REMARK    5  A    between atoms: C_16  and  S_19
REMARK    6  A    between atoms: C_23  and  C_24
REMARK    7  A    between atoms: C_24  and  N_25
REMARK    8  A    between atoms: C_24  and  C_29
REMARK    9  A    between atoms: C_29  and  C_31
REMARK                            x       y       z     vdW  Elec       q    Type
REMARK                         _______ _______ _______ _____ _____    ______ ____
ROOT
ATOM      1  O   UNL     1      34.590 -16.566 -24.241  0.00  0.00    -0.275 OA
ATOM      2  N   UNL     1      34.515 -15.672 -22.109  0.00  0.00    -0.280 N 
ATOM      3  C   UNL     1      33.565 -14.598 -22.411  0.00  0.00    +0.095 C 
ATOM      4  C   UNL     1      33.093 -14.131 -21.032  0.00  0.00    +0.023 C 
ATOM      5  C   UNL     1      34.305 -14.376 -20.142  0.00  0.00    +0.023 C 
ATOM      6  C   UNL     1      34.877 -15.673 -20.694  0.00  0.00    +0.093 C 
ATOM      7  C   UNL     1      34.918 -16.600 -23.054  0.00  0.00    +0.224 C 
ENDROOT
BRANCH   3   8
ATOM      8  C   UNL     1      34.227 -13.475 -23.205  0.00  0.00    +0.109 C 
BRANCH   8  10
ATOM      9  O   UNL     1      35.017 -10.883 -24.155  0.00  0.00    -0.270 OA
ATOM     10  N   UNL     1      33.475 -12.261 -23.104  0.00  0.00    -0.299 N 
ATOM     11  C   UNL     1      33.936 -11.042 -23.595  0.00  0.00    +0.246 C 
ATOM     12  H   UNL     1      32.593 -12.290 -22.669  0.00  0.00    +0.150 HD
BRANCH  11  13
ATOM     13  C   UNL     1      33.047  -9.870 -23.389  0.00  0.00    +0.055 C 
ATOM     14  C   UNL     1      33.498  -8.587 -23.701  0.00  0.00    +0.023 C 
ATOM     15  C   UNL     1      31.759 -10.051 -22.883  0.00  0.00    +0.005 C 
ATOM     16  C   UNL     1      32.664  -7.487 -23.507  0.00  0.00    +0.106 C 
ATOM     17  C   UNL     1      30.925  -8.951 -22.689  0.00  0.00    +0.001 C 
ATOM     18  C   UNL     1      31.376  -7.669 -23.001  0.00  0.00    +0.018 C 
BRANCH  16  19
ATOM     19  S   UNL     1      33.229  -5.882 -23.898  0.00  0.00    +0.010 S 
ATOM     20  O   UNL     1      32.635  -4.933 -22.965  0.00  0.00    -0.169 OA
ATOM     21  O   UNL     1      34.676  -5.941 -24.046  0.00  0.00    -0.169 OA
ATOM     22  C   UNL     1      32.529  -5.543 -25.497  0.00  0.00    +0.182 C 
ENDBRANCH  16  19
ENDBRANCH  11  13
ENDBRANCH   8  10
ENDBRANCH   3   8
BRANCH   7  23
ATOM     23  C   UNL     1      35.818 -17.698 -22.544  0.00  0.00    +0.064 C 
BRANCH  23  24
ATOM     24  C   UNL     1      35.107 -19.053 -22.534  0.00  0.00    -0.052 C 
BRANCH  24  25
ATOM     25  N   UNL     1      34.334 -19.147 -23.779  0.00  0.00    +0.382 N 
ATOM     26  H   UNL     1      33.484 -18.590 -23.694  0.00  0.00    -0.089 HD
ATOM     27  H   UNL     1      34.087 -20.121 -23.953  0.00  0.00    -0.089 HD
ATOM     28  H   UNL     1      34.895 -18.795 -24.556  0.00  0.00    -0.089 HD
ENDBRANCH  24  25
BRANCH  24  29
ATOM     29  C   UNL     1      34.139 -19.230 -21.343  0.00  0.00    +0.005 C 
BRANCH  29  31
ATOM     30 CL   UNL     1      32.913 -22.719 -17.667  0.00  0.00    -0.082 Cl
ATOM     31  C   UNL     1      34.595 -20.225 -20.305  0.00  0.00    -0.023 C 
ATOM     32  C   UNL     1      33.653 -20.930 -19.554  0.00  0.00    +0.007 C 
ATOM     33  C   UNL     1      35.956 -20.441 -20.095  0.00  0.00    -0.004 C 
ATOM     34  C   UNL     1      34.074 -21.850 -18.594  0.00  0.00    +0.057 C 
ATOM     35  C   UNL     1      36.377 -21.361 -19.135  0.00  0.00    +0.001 C 
ATOM     36  C   UNL     1      35.435 -22.066 -18.384  0.00  0.00    +0.011 C 
ENDBRANCH  29  31
ENDBRANCH  24  29
ENDBRANCH  23  24
ENDBRANCH   7  23
TORSDOF 9
ENDMDL
MODEL 7
REMARK VINA RESULT:     -10.5      6.238     12.102
REMARK  Name = 42608447
REMARK  9 active torsions:
REMARK  status: ('A' for Active; 'I' for Inactive)
REMARK    1  A    between atoms: C_3  and  C_8
REMARK    2  A    between atoms: C_7  and  C_23
REMARK    3  A    between atoms: C_8  and  N_10
REMARK    4  A    between atoms: C_11  and  C_13
REMARK    5  A    between atoms: C_16  and  S_19
REMARK    6  A    between atoms: C_23  and  C_24
REMARK    7  A    between atoms: C_24  and  N_25
REMARK    8  A    between atoms: C_24  and  C_29
REMARK    9  A    between atoms: C_29  and  C_31
REMARK                            x       y       z     vdW  Elec       q    Type
REMARK                         _______ _______ _______ _____ _____    ______ ____
ROOT
ATOM      1  O   UNL     1      34.125 -19.468 -21.977  0.00  0.00    -0.275 OA
ATOM      2  N   UNL     1      35.606 -20.111 -20.321  0.00  0.00    -0.280 N 
ATOM      3  C   UNL     1      35.027 -21.436 -20.085  0.00  0.00    +0.095 C 
ATOM      4  C   UNL     1      36.110 -22.169 -19.288  0.00  0.00    +0.023 C 
ATOM      5  C   UNL     1      36.786 -21.053 -18.501  0.00  0.00    +0.023 C 
ATOM      6  C   UNL     1      36.783 -19.892 -19.484  0.00  0.00    +0.093 C 
ATOM      7  C   UNL     1      35.123 -19.247 -21.289  0.00  0.00    +0.224 C 
ENDROOT
BRANCH   3   8
ATOM      8  C   UNL     1      33.711 -21.340 -19.317  0.00  0.00    +0.109 C 
BRANCH   8  10
ATOM      9  O   UNL     1      31.503 -22.099 -17.646  0.00  0.00    -0.270 OA
ATOM     10  N   UNL     1      33.780 -22.071 -18.087  0.00  0.00    -0.299 N 
ATOM     11  C   UNL     1      32.653 -22.399 -17.337  0.00  0.00    +0.246 C 
ATOM     12  H   UNL     1      34.663 -22.355 -17.758  0.00  0.00    +0.150 HD
BRANCH  11  13
ATOM     13  C   UNL     1      32.895 -23.138 -16.072  0.00  0.00    +0.055 C 
ATOM     14  C   UNL     1      34.161 -23.657 -15.798  0.00  0.00    +0.023 C 
ATOM     15  C   UNL     1      31.857 -23.313 -15.156  0.00  0.00    +0.005 C 
ATOM     16  C   UNL     1      34.388 -24.351 -14.610  0.00  0.00    +0.106 C 
ATOM     17  C   UNL     1      32.085 -24.007 -13.968  0.00  0.00    +0.001 C 
ATOM     18  C   UNL     1      33.350 -24.526 -13.694  0.00  0.00    +0.018 C 
BRANCH  16  19
ATOM     19  S   UNL     1      35.972 -25.000 -14.267  0.00  0.00    +0.010 S 
ATOM     20  O   UNL     1      36.145 -25.083 -12.822  0.00  0.00    -0.169 OA
ATOM     21  O   UNL     1      36.156 -26.190 -15.086  0.00  0.00    -0.169 OA
ATOM     22  C   UNL     1      37.098 -23.754 -14.851  0.00  0.00    +0.182 C 
ENDBRANCH  16  19
ENDBRANCH  11  13
ENDBRANCH   8  10
ENDBRANCH   3   8
BRANCH   7  23
ATOM     23  C   UNL     1      35.903 -17.969 -21.468  0.00  0.00    +0.064 C 
BRANCH  23  24
ATOM     24  C   UNL     1      34.992 -16.795 -21.831  0.00  0.00    -0.052 C 
BRANCH  24  25
ATOM     25  N   UNL     1      35.499 -16.223 -23.085  0.00  0.00    +0.382 N 
ATOM     26  H   UNL     1      34.714 -15.964 -23.682  0.00  0.00    -0.089 HD
ATOM     27  H   UNL     1      36.078 -16.913 -23.564  0.00  0.00    -0.089 HD
ATOM     28  H   UNL     1      36.058 -15.394 -22.879  0.00  0.00    -0.089 HD
ENDBRANCH  24  25
BRANCH  24  29
ATOM     29  C   UNL     1      34.969 -15.682 -20.760  0.00  0.00    +0.005 C 
BRANCH  29  31
ATOM     30 CL   UNL     1      33.556 -11.622 -23.711  0.00  0.00    -0.082 Cl
ATOM     31  C   UNL     1      33.994 -14.564 -21.036  0.00  0.00    -0.023 C 
ATOM     32  C   UNL     1      34.201 -13.710 -22.120  0.00  0.00    +0.007 C 
ATOM     33  C   UNL     1      32.887 -14.383 -20.208  0.00  0.00    -0.004 C 
ATOM     34  C   UNL     1      33.300 -12.675 -22.375  0.00  0.00    +0.057 C 
ATOM     35  C   UNL     1      31.987 -13.348 -20.462  0.00  0.00    +0.001 C 
ATOM     36  C   UNL     1      32.194 -12.495 -21.546  0.00  0.00    +0.011 C 
ENDBRANCH  29  31
ENDBRANCH  24  29
ENDBRANCH  23  24
ENDBRANCH   7  23
TORSDOF 9
ENDMDL
MODEL 8
REMARK VINA RESULT:     -10.5      6.202     11.683
REMARK  Name = 42608447
REMARK  9 active torsions:
REMARK  status: ('A' for Active; 'I' for Inactive)
REMARK    1  A    between atoms: C_3  and  C_8
REMARK    2  A    between atoms: C_7  and  C_23
REMARK    3  A    between atoms: C_8  and  N_10
REMARK    4  A    between atoms: C_11  and  C_13
REMARK    5  A    between atoms: C_16  and  S_19
REMARK    6  A    between atoms: C_23  and  C_24
REMARK    7  A    between atoms: C_24  and  N_25
REMARK    8  A    between atoms: C_24  and  C_29
REMARK    9  A    between atoms: C_29  and  C_31
REMARK                            x       y       z     vdW  Elec       q    Type
REMARK                         _______ _______ _______ _____ _____    ______ ____
ROOT
ATOM      1  O   UNL     1      34.189 -19.429 -22.873  0.00  0.00    -0.275 OA
ATOM      2  N   UNL     1      35.654 -19.563 -21.087  0.00  0.00    -0.280 N 
ATOM      3  C   UNL     1      35.270 -20.910 -20.658  0.00  0.00    +0.095 C 
ATOM      4  C   UNL     1      36.404 -21.329 -19.718  0.00  0.00    +0.023 C 
ATOM      5  C   UNL     1      36.858 -20.012 -19.102  0.00  0.00    +0.023 C 
ATOM      6  C   UNL     1      36.735 -19.033 -20.260  0.00  0.00    +0.093 C 
ATOM      7  C   UNL     1      35.102 -18.948 -22.198  0.00  0.00    +0.224 C 
ENDROOT
BRANCH   3   8
ATOM      8  C   UNL     1      33.913 -20.906 -19.957  0.00  0.00    +0.109 C 
BRANCH   8  10
ATOM      9  O   UNL     1      33.820 -23.618 -19.020  0.00  0.00    -0.270 OA
ATOM     10  N   UNL     1      34.034 -21.346 -18.600  0.00  0.00    -0.299 N 
ATOM     11  C   UNL     1      33.978 -22.689 -18.233  0.00  0.00    +0.246 C 
ATOM     12  H   UNL     1      34.164 -20.670 -17.897  0.00  0.00    +0.150 HD
BRANCH  11  13
ATOM     13  C   UNL     1      34.095 -22.980 -16.781  0.00  0.00    +0.055 C 
ATOM     14  C   UNL     1      32.961 -23.322 -16.044  0.00  0.00    +0.023 C 
ATOM     15  C   UNL     1      35.338 -22.911 -16.153  0.00  0.00    +0.005 C 
ATOM     16  C   UNL     1      33.070 -23.595 -14.681  0.00  0.00    +0.106 C 
ATOM     17  C   UNL     1      35.448 -23.183 -14.790  0.00  0.00    +0.001 C 
ATOM     18  C   UNL     1      34.314 -23.526 -14.053  0.00  0.00    +0.018 C 
BRANCH  16  19
ATOM     19  S   UNL     1      31.650 -24.024 -13.759  0.00  0.00    +0.010 S 
ATOM     20  O   UNL     1      31.436 -25.462 -13.865  0.00  0.00    -0.169 OA
ATOM     21  O   UNL     1      31.765 -23.406 -12.446  0.00  0.00    -0.169 OA
ATOM     22  C   UNL     1      30.308 -23.236 -14.620  0.00  0.00    +0.182 C 
ENDBRANCH  16  19
ENDBRANCH  11  13
ENDBRANCH   8  10
ENDBRANCH   3   8
BRANCH   7  23
ATOM     23  C   UNL     1      35.689 -17.606 -22.558  0.00  0.00    +0.064 C 
BRANCH  23  24
ATOM     24  C   UNL     1      34.632 -16.662 -23.134  0.00  0.00    -0.052 C 
BRANCH  24  25
ATOM     25  N   UNL     1      34.581 -16.900 -24.582  0.00  0.00    +0.382 N 
ATOM     26  H   UNL     1      35.370 -17.484 -24.859  0.00  0.00    -0.089 HD
ATOM     27  H   UNL     1      34.629 -16.007 -25.075  0.00  0.00    -0.089 HD
ATOM     28  H   UNL     1      33.708 -17.372 -24.819  0.00  0.00    -0.089 HD
ENDBRANCH  24  25
BRANCH  24  29
ATOM     29  C   UNL     1      34.947 -15.169 -22.894  0.00  0.00    +0.005 C 
BRANCH  29  31
ATOM     30 CL   UNL     1      31.403 -11.389 -22.311  0.00  0.00    -0.082 Cl
ATOM     31  C   UNL     1      33.958 -14.452 -22.009  0.00  0.00    -0.023 C 
ATOM     32  C   UNL     1      33.223 -13.378 -22.511  0.00  0.00    +0.007 C 
ATOM     33  C   UNL     1      33.779 -14.862 -20.688  0.00  0.00    -0.004 C 
ATOM     34  C   UNL     1      32.309 -12.714 -21.692  0.00  0.00    +0.057 C 
ATOM     35  C   UNL     1      32.865 -14.199 -19.869  0.00  0.00    +0.001 C 
ATOM     36  C   UNL     1      32.130 -13.124 -20.371  0.00  0.00    +0.011 C 
ENDBRANCH  29  31
ENDBRANCH  24  29
ENDBRANCH  23  24
ENDBRANCH   7  23
TORSDOF 9
ENDMDL
MODEL 9
REMARK VINA RESULT:     -10.4      3.675      6.280
REMARK  Name = 42608447
REMARK  9 active torsions:
REMARK  status: ('A' for Active; 'I' for Inactive)
REMARK    1  A    between atoms: C_3  and  C_8
REMARK    2  A    between atoms: C_7  and  C_23
REMARK    3  A    between atoms: C_8  and  N_10
REMARK    4  A    between atoms: C_11  and  C_13
REMARK    5  A    between atoms: C_16  and  S_19
REMARK    6  A    between atoms: C_23  and  C_24
REMARK    7  A    between atoms: C_24  and  N_25
REMARK    8  A    between atoms: C_24  and  C_29
REMARK    9  A    between atoms: C_29  and  C_31
REMARK                            x       y       z     vdW  Elec       q    Type
REMARK                         _______ _______ _______ _____ _____    ______ ____
ROOT
ATOM      1  O   UNL     1      32.161  -9.543 -23.259  0.00  0.00    -0.275 OA
ATOM      2  N   UNL     1      32.034 -10.232 -21.054  0.00  0.00    -0.280 N 
ATOM      3  C   UNL     1      31.770  -8.910 -20.481  0.00  0.00    +0.095 C 
ATOM      4  C   UNL     1      31.272  -9.220 -19.067  0.00  0.00    +0.023 C 
ATOM      5  C   UNL     1      32.011 -10.503 -18.706  0.00  0.00    +0.023 C 
ATOM      6  C   UNL     1      32.035 -11.266 -20.022  0.00  0.00    +0.093 C 
ATOM      7  C   UNL     1      32.167 -10.443 -22.417  0.00  0.00    +0.224 C 
ENDROOT
BRANCH   3   8
ATOM      8  C   UNL     1      33.028  -8.045 -20.473  0.00  0.00    +0.109 C 
BRANCH   8  10
ATOM      9  O   UNL     1      35.076  -7.877 -22.479  0.00  0.00    -0.270 OA
ATOM     10  N   UNL     1      33.051  -7.162 -21.600  0.00  0.00    -0.299 N 
ATOM     11  C   UNL     1      34.089  -7.148 -22.529  0.00  0.00    +0.246 C 
ATOM     12  H   UNL     1      32.299  -6.539 -21.724  0.00  0.00    +0.150 HD
BRANCH  11  13
ATOM     13  C   UNL     1      33.976  -6.154 -23.628  0.00  0.00    +0.055 C 
ATOM     14  C   UNL     1      32.882  -5.290 -23.678  0.00  0.00    +0.023 C 
ATOM     15  C   UNL     1      34.964  -6.085 -24.610  0.00  0.00    +0.005 C 
ATOM     16  C   UNL     1      32.776  -4.358 -24.710  0.00  0.00    +0.106 C 
ATOM     17  C   UNL     1      34.858  -5.152 -25.642  0.00  0.00    +0.001 C 
ATOM     18  C   UNL     1      33.764  -4.288 -25.692  0.00  0.00    +0.018 C 
BRANCH  16  19
ATOM     19  S   UNL     1      31.406  -3.276 -24.773  0.00  0.00    +0.010 S 
ATOM     20  O   UNL     1      30.206  -4.014 -24.403  0.00  0.00    -0.169 OA
ATOM     21  O   UNL     1      31.760  -2.063 -24.049  0.00  0.00    -0.169 OA
ATOM     22  C   UNL     1      31.248  -2.861 -26.494  0.00  0.00    +0.182 C 
ENDBRANCH  16  19
ENDBRANCH  11  13
ENDBRANCH   8  10
ENDBRANCH   3   8
BRANCH   7  23
ATOM     23  C   UNL     1      32.331 -11.881 -22.840  0.00  0.00    +0.064 C 
BRANCH  23  24
ATOM     24  C   UNL     1      33.805 -12.266 -22.979  0.00  0.00    -0.052 C 
BRANCH  24  25
ATOM     25  N   UNL     1      34.434 -11.267 -23.852  0.00  0.00    +0.382 N 
ATOM     26  H   UNL     1      34.924 -10.577 -23.282  0.00  0.00    -0.089 HD
ATOM     27  H   UNL     1      33.717 -10.802 -24.409  0.00  0.00    -0.089 HD
ATOM     28  H   UNL     1      35.100 -11.729 -24.473  0.00  0.00    -0.089 HD
ENDBRANCH  24  25
BRANCH  24  29
ATOM     29  C   UNL     1      34.018 -13.663 -23.601  0.00  0.00    +0.005 C 
BRANCH  29  31
ATOM     30 CL   UNL     1      35.867 -18.463 -22.748  0.00  0.00    -0.082 Cl
ATOM     31  C   UNL     1      34.428 -14.733 -22.619  0.00  0.00    -0.023 C 
ATOM     32  C   UNL     1      34.903 -15.960 -23.083  0.00  0.00    +0.007 C 
ATOM     33  C   UNL     1      34.331 -14.496 -21.249  0.00  0.00    -0.004 C 
ATOM     34  C   UNL     1      35.281 -16.950 -22.176  0.00  0.00    +0.057 C 
ATOM     35  C   UNL     1      34.709 -15.486 -20.341  0.00  0.00    +0.001 C 
ATOM     36  C   UNL     1      35.184 -16.713 -20.805  0.00  0.00    +0.011 C 
ENDBRANCH  29  31
ENDBRANCH  24  29
ENDBRANCH  23  24
ENDBRANCH   7  23
TORSDOF 9
ENDMDL
