MODEL 1
REMARK VINA RESULT:     -11.5      0.000      0.000
REMARK  Name = 25113615
REMARK  7 active torsions:
REMARK  status: ('A' for Active; 'I' for Inactive)
REMARK    1  A    between atoms: N_2  and  C_20
REMARK    2  A    between atoms: C_3  and  C_7
REMARK    3  A    between atoms: C_11  and  C_12
REMARK    4  A    between atoms: C_12  and  C_13
REMARK    5  A    between atoms: C_13  and  C_14
REMARK    6  A    between atoms: C_20  and  C_21
REMARK    7  A    between atoms: C_26  and  C_29
REMARK                            x       y       z     vdW  Elec       q    Type
REMARK                         _______ _______ _______ _____ _____    ______ ____
ROOT
ATOM      1  O   UNL     1      35.013 -23.889 -12.593  0.00  0.00    -0.273 OA
ATOM      2  N   UNL     1      33.509 -25.082 -13.911  0.00  0.00    -0.299 N 
ATOM      3  C   UNL     1      34.745 -24.540 -13.600  0.00  0.00    +0.241 C 
ATOM      4  H   UNL     1      33.417 -25.587 -14.751  0.00  0.00    +0.150 HD
ENDROOT
BRANCH   3   7
ATOM      5  O   UNL     1      36.826 -21.650 -16.104  0.00  0.00    -0.275 OA
ATOM      6  N   UNL     1      36.503 -23.621 -14.943  0.00  0.00    -0.273 N 
ATOM      7  C   UNL     1      35.779 -24.853 -14.638  0.00  0.00    +0.152 C 
ATOM      8  C   UNL     1      36.843 -25.791 -14.074  0.00  0.00    +0.031 C 
ATOM      9  C   UNL     1      37.845 -24.840 -13.424  0.00  0.00    +0.024 C 
ATOM     10  C   UNL     1      37.837 -23.639 -14.356  0.00  0.00    +0.094 C 
ATOM     11  C   UNL     1      36.105 -22.600 -15.789  0.00  0.00    +0.226 C 
BRANCH  11  12
ATOM     12  C   UNL     1      34.702 -22.697 -16.333  0.00  0.00    +0.090 C 
BRANCH  12  13
ATOM     13  C   UNL     1      34.723 -23.131 -17.792  0.00  0.00    +0.036 C 
BRANCH  13  14
ATOM     14  C   UNL     1      34.533 -21.987 -18.757  0.00  0.00    -0.022 C 
ATOM     15  C   UNL     1      35.642 -21.381 -19.348  0.00  0.00    -0.004 C 
ATOM     16  C   UNL     1      33.249 -21.535 -19.058  0.00  0.00    -0.004 C 
ATOM     17  C   UNL     1      35.467 -20.323 -20.241  0.00  0.00    -0.000 C 
ATOM     18  C   UNL     1      33.074 -20.477 -19.950  0.00  0.00    -0.000 C 
ATOM     19  C   UNL     1      34.183 -19.871 -20.542  0.00  0.00    -0.000 C 
ENDBRANCH  13  14
ENDBRANCH  12  13
ENDBRANCH  11  12
ENDBRANCH   3   7
BRANCH   2  20
ATOM     20  C   UNL     1      32.349 -24.943 -13.060  0.00  0.00    +0.116 C 
BRANCH  20  21
ATOM     21  C   UNL     1      31.151 -24.452 -13.821  0.00  0.00    -0.003 C 
ATOM     22  C   UNL     1      31.068 -23.111 -14.199  0.00  0.00    -0.003 C 
ATOM     23  C   UNL     1      30.121 -25.334 -14.148  0.00  0.00    -0.003 C 
ATOM     24  C   UNL     1      29.954 -22.653 -14.903  0.00  0.00    +0.002 C 
ATOM     25  C   UNL     1      29.008 -24.876 -14.854  0.00  0.00    +0.002 C 
ATOM     26  C   UNL     1      28.925 -23.535 -15.231  0.00  0.00    +0.031 C 
BRANCH  26  29
ATOM     27  N   UNL     1      26.789 -22.275 -15.353  0.00  0.00    -0.343 N 
ATOM     28  N   UNL     1      27.621 -23.369 -17.243  0.00  0.00    -0.285 NA
ATOM     29  C   UNL     1      27.765 -23.058 -15.967  0.00  0.00    +0.117 C 
ATOM     30  H   UNL     1      26.012 -21.963 -15.870  0.00  0.00    +0.144 HD
ATOM     31  H   UNL     1      26.876 -22.035 -14.403  0.00  0.00    +0.144 HD
ATOM     32  H   UNL     1      26.837 -23.047 -17.742  0.00  0.00    +0.188 HD
ENDBRANCH  26  29
ENDBRANCH  20  21
ENDBRANCH   2  20
TORSDOF 7
ENDMDL
MODEL 2
REMARK VINA RESULT:     -11.1      2.693      6.463
REMARK  Name = 25113615
REMARK  7 active torsions:
REMARK  status: ('A' for Active; 'I' for Inactive)
REMARK    1  A    between atoms: N_2  and  C_20
REMARK    2  A    between atoms: C_3  and  C_7
REMARK    3  A    between atoms: C_11  and  C_12
REMARK    4  A    between atoms: C_12  and  C_13
REMARK    5  A    between atoms: C_13  and  C_14
REMARK    6  A    between atoms: C_20  and  C_21
REMARK    7  A    between atoms: C_26  and  C_29
REMARK                            x       y       z     vdW  Elec       q    Type
REMARK                         _______ _______ _______ _____ _____    ______ ____
ROOT
ATOM      1  O   UNL     1      35.122 -24.878 -15.668  0.00  0.00    -0.273 OA
ATOM      2  N   UNL     1      34.754 -22.700 -16.402  0.00  0.00    -0.299 N 
ATOM      3  C   UNL     1      35.187 -23.662 -15.506  0.00  0.00    +0.241 C 
ATOM      4  H   UNL     1      34.859 -21.751 -16.159  0.00  0.00    +0.150 HD
ENDROOT
BRANCH   3   7
ATOM      5  O   UNL     1      34.749 -25.148 -11.438  0.00  0.00    -0.275 OA
ATOM      6  N   UNL     1      35.752 -24.062 -13.213  0.00  0.00    -0.273 N 
ATOM      7  C   UNL     1      35.793 -23.059 -14.275  0.00  0.00    +0.152 C 
ATOM      8  C   UNL     1      37.280 -22.786 -14.484  0.00  0.00    +0.031 C 
ATOM      9  C   UNL     1      37.940 -24.110 -14.108  0.00  0.00    +0.024 C 
ATOM     10  C   UNL     1      37.077 -24.615 -12.964  0.00  0.00    +0.094 C 
ATOM     11  C   UNL     1      34.676 -24.386 -12.405  0.00  0.00    +0.226 C 
BRANCH  11  12
ATOM     12  C   UNL     1      33.359 -23.746 -12.765  0.00  0.00    +0.090 C 
BRANCH  12  13
ATOM     13  C   UNL     1      32.332 -24.806 -13.138  0.00  0.00    +0.036 C 
BRANCH  13  14
ATOM     14  C   UNL     1      31.280 -24.307 -14.097  0.00  0.00    -0.022 C 
ATOM     15  C   UNL     1      30.018 -24.900 -14.119  0.00  0.00    -0.004 C 
ATOM     16  C   UNL     1      31.570 -23.253 -14.963  0.00  0.00    -0.004 C 
ATOM     17  C   UNL     1      29.044 -24.439 -15.006  0.00  0.00    -0.000 C 
ATOM     18  C   UNL     1      30.597 -22.791 -15.850  0.00  0.00    -0.000 C 
ATOM     19  C   UNL     1      29.335 -23.384 -15.872  0.00  0.00    -0.000 C 
ENDBRANCH  13  14
ENDBRANCH  12  13
ENDBRANCH  11  12
ENDBRANCH   3   7
BRANCH   2  20
ATOM     20  C   UNL     1      34.153 -23.020 -17.677  0.00  0.00    +0.116 C 
BRANCH  20  21
ATOM     21  C   UNL     1      34.389 -21.942 -18.695  0.00  0.00    -0.003 C 
ATOM     22  C   UNL     1      35.692 -21.579 -19.035  0.00  0.00    -0.003 C 
ATOM     23  C   UNL     1      33.306 -21.302 -19.300  0.00  0.00    -0.003 C 
ATOM     24  C   UNL     1      35.913 -20.576 -19.980  0.00  0.00    +0.002 C 
ATOM     25  C   UNL     1      33.527 -20.300 -20.244  0.00  0.00    +0.002 C 
ATOM     26  C   UNL     1      34.830 -19.937 -20.584  0.00  0.00    +0.031 C 
BRANCH  26  29
ATOM     27  N   UNL     1      35.409 -17.599 -21.186  0.00  0.00    -0.343 N 
ATOM     28  N   UNL     1      34.936 -19.162 -22.856  0.00  0.00    -0.285 NA
ATOM     29  C   UNL     1      35.061 -18.892 -21.569  0.00  0.00    +0.117 C 
ATOM     30  H   UNL     1      35.560 -16.907 -21.870  0.00  0.00    +0.144 HD
ATOM     31  H   UNL     1      35.504 -17.376 -20.232  0.00  0.00    +0.144 HD
ATOM     32  H   UNL     1      35.091 -18.457 -23.524  0.00  0.00    +0.188 HD
ENDBRANCH  26  29
ENDBRANCH  20  21
ENDBRANCH   2  20
TORSDOF 7
ENDMDL
MODEL 3
REMARK VINA RESULT:     -10.2      8.383     12.183
REMARK  Name = 25113615
REMARK  7 active torsions:
REMARK  status: ('A' for Active; 'I' for Inactive)
REMARK    1  A    between atoms: N_2  and  C_20
REMARK    2  A    between atoms: C_3  and  C_7
REMARK    3  A    between atoms: C_11  and  C_12
REMARK    4  A    between atoms: C_12  and  C_13
REMARK    5  A    between atoms: C_13  and  C_14
REMARK    6  A    between atoms: C_20  and  C_21
REMARK    7  A    between atoms: C_26  and  C_29
REMARK                            x       y       z     vdW  Elec       q    Type
REMARK                         _______ _______ _______ _____ _____    ______ ____
ROOT
ATOM      1  O   UNL     1      34.179 -15.152 -20.594  0.00  0.00    -0.273 OA
ATOM      2  N   UNL     1      32.954 -13.741 -21.983  0.00  0.00    -0.299 N 
ATOM      3  C   UNL     1      33.979 -14.623 -21.685  0.00  0.00    +0.241 C 
ATOM      4  H   UNL     1      32.897 -13.381 -22.897  0.00  0.00    +0.150 HD
ENDROOT
BRANCH   3   7
ATOM      5  O   UNL     1      34.515 -18.489 -23.613  0.00  0.00    -0.275 OA
ATOM      6  N   UNL     1      34.436 -16.186 -23.441  0.00  0.00    -0.273 N 
ATOM      7  C   UNL     1      34.848 -14.905 -22.872  0.00  0.00    +0.152 C 
ATOM      8  C   UNL     1      34.588 -13.893 -23.985  0.00  0.00    +0.031 C 
ATOM      9  C   UNL     1      33.417 -14.503 -24.752  0.00  0.00    +0.024 C 
ATOM     10  C   UNL     1      33.696 -15.995 -24.681  0.00  0.00    +0.094 C 
ATOM     11  C   UNL     1      34.790 -17.452 -23.004  0.00  0.00    +0.226 C 
BRANCH  11  12
ATOM     12  C   UNL     1      35.556 -17.517 -21.707  0.00  0.00    +0.090 C 
BRANCH  12  13
ATOM     13  C   UNL     1      36.226 -18.874 -21.549  0.00  0.00    +0.036 C 
BRANCH  13  14
ATOM     14  C   UNL     1      35.464 -19.814 -20.647  0.00  0.00    -0.022 C 
ATOM     15  C   UNL     1      36.154 -20.694 -19.814  0.00  0.00    -0.004 C 
ATOM     16  C   UNL     1      34.069 -19.804 -20.648  0.00  0.00    -0.004 C 
ATOM     17  C   UNL     1      35.451 -21.564 -18.980  0.00  0.00    -0.000 C 
ATOM     18  C   UNL     1      33.366 -20.673 -19.815  0.00  0.00    -0.000 C 
ATOM     19  C   UNL     1      34.056 -21.553 -18.981  0.00  0.00    -0.000 C 
ENDBRANCH  13  14
ENDBRANCH  12  13
ENDBRANCH  11  12
ENDBRANCH   3   7
BRANCH   2  20
ATOM     20  C   UNL     1      31.964 -13.324 -21.016  0.00  0.00    +0.116 C 
BRANCH  20  21
ATOM     21  C   UNL     1      32.035 -11.850 -20.741  0.00  0.00    -0.003 C 
ATOM     22  C   UNL     1      32.092 -10.945 -21.801  0.00  0.00    -0.003 C 
ATOM     23  C   UNL     1      32.046 -11.384 -19.425  0.00  0.00    -0.003 C 
ATOM     24  C   UNL     1      32.161  -9.575 -21.545  0.00  0.00    +0.002 C 
ATOM     25  C   UNL     1      32.114 -10.015 -19.170  0.00  0.00    +0.002 C 
ATOM     26  C   UNL     1      32.172  -9.110 -20.231  0.00  0.00    +0.031 C 
BRANCH  26  29
ATOM     27  N   UNL     1      31.315  -6.797 -20.511  0.00  0.00    -0.343 N 
ATOM     28  N   UNL     1      33.202  -7.202 -19.195  0.00  0.00    -0.285 NA
ATOM     29  C   UNL     1      32.242  -7.682 -19.965  0.00  0.00    +0.117 C 
ATOM     30  H   UNL     1      31.381  -5.834 -20.319  0.00  0.00    +0.144 HD
ATOM     31  H   UNL     1      30.594  -7.134 -21.090  0.00  0.00    +0.144 HD
ATOM     32  H   UNL     1      33.251  -6.236 -19.014  0.00  0.00    +0.188 HD
ENDBRANCH  26  29
ENDBRANCH  20  21
ENDBRANCH   2  20
TORSDOF 7
ENDMDL
MODEL 4
REMARK VINA RESULT:     -10.1      2.489      6.096
REMARK  Name = 25113615
REMARK  7 active torsions:
REMARK  status: ('A' for Active; 'I' for Inactive)
REMARK    1  A    between atoms: N_2  and  C_20
REMARK    2  A    between atoms: C_3  and  C_7
REMARK    3  A    between atoms: C_11  and  C_12
REMARK    4  A    between atoms: C_12  and  C_13
REMARK    5  A    between atoms: C_13  and  C_14
REMARK    6  A    between atoms: C_20  and  C_21
REMARK    7  A    between atoms: C_26  and  C_29
REMARK                            x       y       z     vdW  Elec       q    Type
REMARK                         _______ _______ _______ _____ _____    ______ ____
ROOT
ATOM      1  O   UNL     1      36.537 -24.587 -14.961  0.00  0.00    -0.273 OA
ATOM      2  N   UNL     1      36.935 -22.317 -15.289  0.00  0.00    -0.299 N 
ATOM      3  C   UNL     1      36.521 -23.423 -14.567  0.00  0.00    +0.241 C 
ATOM      4  H   UNL     1      36.873 -21.431 -14.864  0.00  0.00    +0.150 HD
ENDROOT
BRANCH   3   7
ATOM      5  O   UNL     1      32.930 -24.907 -12.603  0.00  0.00    -0.275 OA
ATOM      6  N   UNL     1      35.073 -24.059 -12.768  0.00  0.00    -0.273 N 
ATOM      7  C   UNL     1      36.053 -23.061 -13.190  0.00  0.00    +0.152 C 
ATOM      8  C   UNL     1      37.190 -23.192 -12.181  0.00  0.00    +0.031 C 
ATOM      9  C   UNL     1      37.130 -24.661 -11.768  0.00  0.00    +0.024 C 
ATOM     10  C   UNL     1      35.639 -24.961 -11.774  0.00  0.00    +0.094 C 
ATOM     11  C   UNL     1      33.731 -24.114 -13.104  0.00  0.00    +0.226 C 
BRANCH  11  12
ATOM     12  C   UNL     1      33.266 -23.125 -14.144  0.00  0.00    +0.090 C 
BRANCH  12  13
ATOM     13  C   UNL     1      32.685 -23.850 -15.349  0.00  0.00    +0.036 C 
BRANCH  13  14
ATOM     14  C   UNL     1      31.177 -23.809 -15.401  0.00  0.00    -0.022 C 
ATOM     15  C   UNL     1      30.431 -24.830 -14.813  0.00  0.00    -0.004 C 
ATOM     16  C   UNL     1      30.530 -22.751 -16.037  0.00  0.00    -0.004 C 
ATOM     17  C   UNL     1      29.037 -24.793 -14.860  0.00  0.00    -0.000 C 
ATOM     18  C   UNL     1      29.136 -22.713 -16.085  0.00  0.00    -0.000 C 
ATOM     19  C   UNL     1      28.390 -23.734 -15.496  0.00  0.00    -0.000 C 
ENDBRANCH  13  14
ENDBRANCH  12  13
ENDBRANCH  11  12
ENDBRANCH   3   7
BRANCH   2  20
ATOM     20  C   UNL     1      37.452 -22.400 -16.636  0.00  0.00    +0.116 C 
BRANCH  20  21
ATOM     21  C   UNL     1      36.472 -21.879 -17.646  0.00  0.00    -0.003 C 
ATOM     22  C   UNL     1      35.152 -22.330 -17.634  0.00  0.00    -0.003 C 
ATOM     23  C   UNL     1      36.881 -20.945 -18.600  0.00  0.00    -0.003 C 
ATOM     24  C   UNL     1      34.241 -21.847 -18.574  0.00  0.00    +0.002 C 
ATOM     25  C   UNL     1      35.970 -20.463 -19.540  0.00  0.00    +0.002 C 
ATOM     26  C   UNL     1      34.650 -20.915 -19.527  0.00  0.00    +0.031 C 
BRANCH  26  29
ATOM     27  N   UNL     1      34.126 -19.754 -21.658  0.00  0.00    -0.343 N 
ATOM     28  N   UNL     1      32.404 -20.572 -20.308  0.00  0.00    -0.285 NA
ATOM     29  C   UNL     1      33.700 -20.411 -20.506  0.00  0.00    +0.117 C 
ATOM     30  H   UNL     1      33.466 -19.420 -22.307  0.00  0.00    +0.144 HD
ATOM     31  H   UNL     1      35.087 -19.621 -21.822  0.00  0.00    +0.144 HD
ATOM     32  H   UNL     1      31.759 -20.232 -20.969  0.00  0.00    +0.188 HD
ENDBRANCH  26  29
ENDBRANCH  20  21
ENDBRANCH   2  20
TORSDOF 7
ENDMDL
MODEL 5
REMARK VINA RESULT:     -10.0      8.159     12.074
REMARK  Name = 25113615
REMARK  7 active torsions:
REMARK  status: ('A' for Active; 'I' for Inactive)
REMARK    1  A    between atoms: N_2  and  C_20
REMARK    2  A    between atoms: C_3  and  C_7
REMARK    3  A    between atoms: C_11  and  C_12
REMARK    4  A    between atoms: C_12  and  C_13
REMARK    5  A    between atoms: C_13  and  C_14
REMARK    6  A    between atoms: C_20  and  C_21
REMARK    7  A    between atoms: C_26  and  C_29
REMARK                            x       y       z     vdW  Elec       q    Type
REMARK                         _______ _______ _______ _____ _____    ______ ____
ROOT
ATOM      1  O   UNL     1      33.857 -14.825 -23.393  0.00  0.00    -0.273 OA
ATOM      2  N   UNL     1      35.079 -15.926 -21.746  0.00  0.00    -0.299 N 
ATOM      3  C   UNL     1      34.351 -14.871 -22.269  0.00  0.00    +0.241 C 
ATOM      4  H   UNL     1      35.426 -15.847 -20.828  0.00  0.00    +0.150 HD
ENDROOT
BRANCH   3   7
ATOM      5  O   UNL     1      31.377 -11.698 -22.459  0.00  0.00    -0.275 OA
ATOM      6  N   UNL     1      32.865 -13.167 -21.477  0.00  0.00    -0.273 N 
ATOM      7  C   UNL     1      34.192 -13.749 -21.289  0.00  0.00    +0.152 C 
ATOM      8  C   UNL     1      34.175 -14.281 -19.858  0.00  0.00    +0.031 C 
ATOM      9  C   UNL     1      32.707 -14.632 -19.628  0.00  0.00    +0.024 C 
ATOM     10  C   UNL     1      31.967 -13.548 -20.395  0.00  0.00    +0.094 C 
ATOM     11  C   UNL     1      32.479 -12.250 -22.440  0.00  0.00    +0.226 C 
BRANCH  11  12
ATOM     12  C   UNL     1      33.500 -11.937 -23.506  0.00  0.00    +0.090 C 
BRANCH  12  13
ATOM     13  C   UNL     1      33.114 -10.674 -24.261  0.00  0.00    +0.036 C 
BRANCH  13  14
ATOM     14  C   UNL     1      33.624  -9.410 -23.612  0.00  0.00    -0.022 C 
ATOM     15  C   UNL     1      34.961  -9.042 -23.759  0.00  0.00    -0.004 C 
ATOM     16  C   UNL     1      32.759  -8.612 -22.864  0.00  0.00    -0.004 C 
ATOM     17  C   UNL     1      35.434  -7.874 -23.159  0.00  0.00    -0.000 C 
ATOM     18  C   UNL     1      33.231  -7.445 -22.264  0.00  0.00    -0.000 C 
ATOM     19  C   UNL     1      34.568  -7.076 -22.412  0.00  0.00    -0.000 C 
ENDBRANCH  13  14
ENDBRANCH  12  13
ENDBRANCH  11  12
ENDBRANCH   3   7
BRANCH   2  20
ATOM     20  C   UNL     1      35.353 -17.139 -22.482  0.00  0.00    +0.116 C 
BRANCH  20  21
ATOM     21  C   UNL     1      35.455 -18.334 -21.577  0.00  0.00    -0.003 C 
ATOM     22  C   UNL     1      34.321 -19.098 -21.302  0.00  0.00    -0.003 C 
ATOM     23  C   UNL     1      36.683 -18.677 -21.010  0.00  0.00    -0.003 C 
ATOM     24  C   UNL     1      34.414 -20.206 -20.460  0.00  0.00    +0.002 C 
ATOM     25  C   UNL     1      36.775 -19.786 -20.168  0.00  0.00    +0.002 C 
ATOM     26  C   UNL     1      35.641 -20.550 -19.893  0.00  0.00    +0.031 C 
BRANCH  26  29
ATOM     27  N   UNL     1      36.680 -21.761 -17.991  0.00  0.00    -0.343 N 
ATOM     28  N   UNL     1      34.924 -22.732 -19.188  0.00  0.00    -0.285 NA
ATOM     29  C   UNL     1      35.738 -21.706 -19.016  0.00  0.00    +0.117 C 
ATOM     30  H   UNL     1      36.729 -22.554 -17.410  0.00  0.00    +0.144 HD
ATOM     31  H   UNL     1      37.298 -21.008 -17.849  0.00  0.00    +0.144 HD
ATOM     32  H   UNL     1      34.989 -23.516 -18.596  0.00  0.00    +0.188 HD
ENDBRANCH  26  29
ENDBRANCH  20  21
ENDBRANCH   2  20
TORSDOF 7
ENDMDL
MODEL 6
REMARK VINA RESULT:      -9.7     11.348     15.259
REMARK  Name = 25113615
REMARK  7 active torsions:
REMARK  status: ('A' for Active; 'I' for Inactive)
REMARK    1  A    between atoms: N_2  and  C_20
REMARK    2  A    between atoms: C_3  and  C_7
REMARK    3  A    between atoms: C_11  and  C_12
REMARK    4  A    between atoms: C_12  and  C_13
REMARK    5  A    between atoms: C_13  and  C_14
REMARK    6  A    between atoms: C_20  and  C_21
REMARK    7  A    between atoms: C_26  and  C_29
REMARK                            x       y       z     vdW  Elec       q    Type
REMARK                         _______ _______ _______ _____ _____    ______ ____
ROOT
ATOM      1  O   UNL     1      33.651 -11.627 -23.749  0.00  0.00    -0.273 OA
ATOM      2  N   UNL     1      32.688  -9.919 -22.492  0.00  0.00    -0.299 N 
ATOM      3  C   UNL     1      32.839 -11.228 -22.917  0.00  0.00    +0.241 C 
ATOM      4  H   UNL     1      31.999  -9.722 -21.818  0.00  0.00    +0.150 HD
ENDROOT
BRANCH   3   7
ATOM      5  O   UNL     1      33.956 -14.617 -20.422  0.00  0.00    -0.275 OA
ATOM      6  N   UNL     1      32.644 -12.877 -21.189  0.00  0.00    -0.273 N 
ATOM      7  C   UNL     1      31.896 -12.163 -22.222  0.00  0.00    +0.152 C 
ATOM      8  C   UNL     1      30.833 -11.383 -21.452  0.00  0.00    +0.031 C 
ATOM      9  C   UNL     1      31.497 -11.118 -20.102  0.00  0.00    +0.024 C 
ATOM     10  C   UNL     1      32.309 -12.380 -19.862  0.00  0.00    +0.094 C 
ATOM     11  C   UNL     1      33.462 -13.982 -21.357  0.00  0.00    +0.226 C 
BRANCH  11  12
ATOM     12  C   UNL     1      33.732 -14.398 -22.781  0.00  0.00    +0.090 C 
BRANCH  12  13
ATOM     13  C   UNL     1      35.079 -15.097 -22.887  0.00  0.00    +0.036 C 
BRANCH  13  14
ATOM     14  C   UNL     1      34.965 -16.595 -23.032  0.00  0.00    -0.022 C 
ATOM     15  C   UNL     1      34.383 -17.143 -24.175  0.00  0.00    -0.004 C 
ATOM     16  C   UNL     1      35.439 -17.432 -22.022  0.00  0.00    -0.004 C 
ATOM     17  C   UNL     1      34.277 -18.528 -24.310  0.00  0.00    -0.000 C 
ATOM     18  C   UNL     1      35.333 -18.816 -22.156  0.00  0.00    -0.000 C 
ATOM     19  C   UNL     1      34.751 -19.364 -23.300  0.00  0.00    -0.000 C 
ENDBRANCH  13  14
ENDBRANCH  12  13
ENDBRANCH  11  12
ENDBRANCH   3   7
BRANCH   2  20
ATOM     20  C   UNL     1      33.494  -8.829 -22.992  0.00  0.00    +0.116 C 
BRANCH  20  21
ATOM     21  C   UNL     1      32.878  -7.493 -22.691  0.00  0.00    -0.003 C 
ATOM     22  C   UNL     1      32.994  -6.449 -23.610  0.00  0.00    -0.003 C 
ATOM     23  C   UNL     1      32.192  -7.293 -21.492  0.00  0.00    -0.003 C 
ATOM     24  C   UNL     1      32.424  -5.207 -23.329  0.00  0.00    +0.002 C 
ATOM     25  C   UNL     1      31.623  -6.051 -21.213  0.00  0.00    +0.002 C 
ATOM     26  C   UNL     1      31.738  -5.008 -22.131  0.00  0.00    +0.031 C 
BRANCH  26  29
ATOM     27  N   UNL     1      31.895  -2.542 -21.897  0.00  0.00    -0.343 N 
ATOM     28  N   UNL     1      29.866  -3.635 -21.511  0.00  0.00    -0.285 NA
ATOM     29  C   UNL     1      31.143  -3.714 -21.840  0.00  0.00    +0.117 C 
ATOM     30  H   UNL     1      31.472  -1.676 -21.695  0.00  0.00    +0.144 HD
ATOM     31  H   UNL     1      32.848  -2.579 -22.137  0.00  0.00    +0.144 HD
ATOM     32  H   UNL     1      29.462  -2.760 -21.314  0.00  0.00    +0.188 HD
ENDBRANCH  26  29
ENDBRANCH  20  21
ENDBRANCH   2  20
TORSDOF 7
ENDMDL
MODEL 7
REMARK VINA RESULT:      -9.7      3.090      7.628
REMARK  Name = 25113615
REMARK  7 active torsions:
REMARK  status: ('A' for Active; 'I' for Inactive)
REMARK    1  A    between atoms: N_2  and  C_20
REMARK    2  A    between atoms: C_3  and  C_7
REMARK    3  A    between atoms: C_11  and  C_12
REMARK    4  A    between atoms: C_12  and  C_13
REMARK    5  A    between atoms: C_13  and  C_14
REMARK    6  A    between atoms: C_20  and  C_21
REMARK    7  A    between atoms: C_26  and  C_29
REMARK                            x       y       z     vdW  Elec       q    Type
REMARK                         _______ _______ _______ _____ _____    ______ ____
ROOT
ATOM      1  O   UNL     1      35.225 -22.145 -15.177  0.00  0.00    -0.273 OA
ATOM      2  N   UNL     1      35.364 -22.621 -17.452  0.00  0.00    -0.299 N 
ATOM      3  C   UNL     1      34.856 -22.765 -16.172  0.00  0.00    +0.241 C 
ATOM      4  H   UNL     1      34.986 -23.176 -18.171  0.00  0.00    +0.150 HD
ENDROOT
BRANCH   3   7
ATOM      5  O   UNL     1      33.318 -24.672 -12.574  0.00  0.00    -0.275 OA
ATOM      6  N   UNL     1      33.276 -23.843 -14.730  0.00  0.00    -0.273 N 
ATOM      7  C   UNL     1      33.749 -23.773 -16.111  0.00  0.00    +0.152 C 
ATOM      8  C   UNL     1      32.537 -23.292 -16.904  0.00  0.00    +0.031 C 
ATOM      9  C   UNL     1      31.765 -22.446 -15.894  0.00  0.00    +0.024 C 
ATOM     10  C   UNL     1      31.985 -23.185 -14.584  0.00  0.00    +0.094 C 
ATOM     11  C   UNL     1      33.845 -24.548 -13.682  0.00  0.00    +0.226 C 
BRANCH  11  12
ATOM     12  C   UNL     1      35.183 -25.186 -13.959  0.00  0.00    +0.090 C 
BRANCH  12  13
ATOM     13  C   UNL     1      36.255 -24.594 -13.056  0.00  0.00    +0.036 C 
BRANCH  13  14
ATOM     14  C   UNL     1      37.658 -24.843 -13.554  0.00  0.00    -0.022 C 
ATOM     15  C   UNL     1      38.155 -24.114 -14.634  0.00  0.00    -0.004 C 
ATOM     16  C   UNL     1      38.457 -25.803 -12.934  0.00  0.00    -0.004 C 
ATOM     17  C   UNL     1      39.452 -24.344 -15.095  0.00  0.00    -0.000 C 
ATOM     18  C   UNL     1      39.754 -26.033 -13.394  0.00  0.00    -0.000 C 
ATOM     19  C   UNL     1      40.251 -25.304 -14.474  0.00  0.00    -0.000 C 
ENDBRANCH  13  14
ENDBRANCH  12  13
ENDBRANCH  11  12
ENDBRANCH   3   7
BRANCH   2  20
ATOM     20  C   UNL     1      36.423 -21.694 -17.782  0.00  0.00    +0.116 C 
BRANCH  20  21
ATOM     21  C   UNL     1      36.094 -20.877 -18.998  0.00  0.00    -0.003 C 
ATOM     22  C   UNL     1      34.823 -20.957 -19.568  0.00  0.00    -0.003 C 
ATOM     23  C   UNL     1      37.059 -20.041 -19.561  0.00  0.00    -0.003 C 
ATOM     24  C   UNL     1      34.517 -20.200 -20.699  0.00  0.00    +0.002 C 
ATOM     25  C   UNL     1      36.753 -19.284 -20.691  0.00  0.00    +0.002 C 
ATOM     26  C   UNL     1      35.482 -19.363 -21.261  0.00  0.00    +0.031 C 
BRANCH  26  29
ATOM     27  N   UNL     1      35.628 -17.269 -22.585  0.00  0.00    -0.343 N 
ATOM     28  N   UNL     1      34.412 -19.092 -23.395  0.00  0.00    -0.285 NA
ATOM     29  C   UNL     1      35.162 -18.574 -22.439  0.00  0.00    +0.117 C 
ATOM     30  H   UNL     1      35.399 -16.752 -23.391  0.00  0.00    +0.144 HD
ATOM     31  H   UNL     1      36.185 -16.863 -21.883  0.00  0.00    +0.144 HD
ATOM     32  H   UNL     1      34.195 -18.559 -24.193  0.00  0.00    +0.188 HD
ENDBRANCH  26  29
ENDBRANCH  20  21
ENDBRANCH   2  20
TORSDOF 7
ENDMDL
MODEL 8
REMARK VINA RESULT:      -9.2      3.112      7.362
REMARK  Name = 25113615
REMARK  7 active torsions:
REMARK  status: ('A' for Active; 'I' for Inactive)
REMARK    1  A    between atoms: N_2  and  C_20
REMARK    2  A    between atoms: C_3  and  C_7
REMARK    3  A    between atoms: C_11  and  C_12
REMARK    4  A    between atoms: C_12  and  C_13
REMARK    5  A    between atoms: C_13  and  C_14
REMARK    6  A    between atoms: C_20  and  C_21
REMARK    7  A    between atoms: C_26  and  C_29
REMARK                            x       y       z     vdW  Elec       q    Type
REMARK                         _______ _______ _______ _____ _____    ______ ____
ROOT
ATOM      1  O   UNL     1      37.225 -19.781 -18.511  0.00  0.00    -0.273 OA
ATOM      2  N   UNL     1      36.705 -21.745 -17.373  0.00  0.00    -0.299 N 
ATOM      3  C   UNL     1      36.671 -20.877 -18.451  0.00  0.00    +0.241 C 
ATOM      4  H   UNL     1      36.219 -22.598 -17.443  0.00  0.00    +0.150 HD
ENDROOT
BRANCH   3   7
ATOM      5  O   UNL     1      32.341 -21.297 -18.622  0.00  0.00    -0.275 OA
ATOM      6  N   UNL     1      34.488 -21.020 -19.428  0.00  0.00    -0.273 N 
ATOM      7  C   UNL     1      35.881 -21.428 -19.599  0.00  0.00    +0.152 C 
ATOM      8  C   UNL     1      36.310 -20.776 -20.911  0.00  0.00    +0.031 C 
ATOM      9  C   UNL     1      35.449 -19.517 -20.980  0.00  0.00    +0.024 C 
ATOM     10  C   UNL     1      34.132 -19.964 -20.366  0.00  0.00    +0.094 C 
ATOM     11  C   UNL     1      33.534 -21.610 -18.616  0.00  0.00    +0.226 C 
BRANCH  11  12
ATOM     12  C   UNL     1      34.027 -22.693 -17.690  0.00  0.00    +0.090 C 
BRANCH  12  13
ATOM     13  C   UNL     1      32.908 -23.673 -17.369  0.00  0.00    +0.036 C 
BRANCH  13  14
ATOM     14  C   UNL     1      32.320 -23.477 -15.993  0.00  0.00    -0.022 C 
ATOM     15  C   UNL     1      30.998 -23.056 -15.853  0.00  0.00    -0.004 C 
ATOM     16  C   UNL     1      33.099 -23.715 -14.861  0.00  0.00    -0.004 C 
ATOM     17  C   UNL     1      30.453 -22.874 -14.581  0.00  0.00    -0.000 C 
ATOM     18  C   UNL     1      32.555 -23.533 -13.589  0.00  0.00    -0.000 C 
ATOM     19  C   UNL     1      31.232 -23.113 -13.450  0.00  0.00    -0.000 C 
ENDBRANCH  13  14
ENDBRANCH  12  13
ENDBRANCH  11  12
ENDBRANCH   3   7
BRANCH   2  20
ATOM     20  C   UNL     1      37.420 -21.459 -16.150  0.00  0.00    +0.116 C 
BRANCH  20  21
ATOM     21  C   UNL     1      37.393 -22.621 -15.200  0.00  0.00    -0.003 C 
ATOM     22  C   UNL     1      38.377 -23.607 -15.278  0.00  0.00    -0.003 C 
ATOM     23  C   UNL     1      36.384 -22.718 -14.241  0.00  0.00    -0.003 C 
ATOM     24  C   UNL     1      38.352 -24.689 -14.397  0.00  0.00    +0.002 C 
ATOM     25  C   UNL     1      36.359 -23.799 -13.361  0.00  0.00    +0.002 C 
ATOM     26  C   UNL     1      37.343 -24.785 -13.439  0.00  0.00    +0.031 C 
BRANCH  26  29
ATOM     27  N   UNL     1      37.112 -27.212 -12.974  0.00  0.00    -0.343 N 
ATOM     28  N   UNL     1      37.489 -25.709 -11.225  0.00  0.00    -0.285 NA
ATOM     29  C   UNL     1      37.318 -25.911 -12.520  0.00  0.00    +0.117 C 
ATOM     30  H   UNL     1      37.098 -27.960 -12.334  0.00  0.00    +0.144 HD
ATOM     31  H   UNL     1      36.979 -27.384 -13.934  0.00  0.00    +0.144 HD
ATOM     32  H   UNL     1      37.472 -26.471 -10.602  0.00  0.00    +0.188 HD
ENDBRANCH  26  29
ENDBRANCH  20  21
ENDBRANCH   2  20
TORSDOF 7
ENDMDL
MODEL 9
REMARK VINA RESULT:      -9.1     12.954     16.361
REMARK  Name = 25113615
REMARK  7 active torsions:
REMARK  status: ('A' for Active; 'I' for Inactive)
REMARK    1  A    between atoms: N_2  and  C_20
REMARK    2  A    between atoms: C_3  and  C_7
REMARK    3  A    between atoms: C_11  and  C_12
REMARK    4  A    between atoms: C_12  and  C_13
REMARK    5  A    between atoms: C_13  and  C_14
REMARK    6  A    between atoms: C_20  and  C_21
REMARK    7  A    between atoms: C_26  and  C_29
REMARK                            x       y       z     vdW  Elec       q    Type
REMARK                         _______ _______ _______ _____ _____    ______ ____
ROOT
ATOM      1  O   UNL     1      32.306 -11.592 -18.820  0.00  0.00    -0.273 OA
ATOM      2  N   UNL     1      32.077 -10.002 -20.506  0.00  0.00    -0.299 N 
ATOM      3  C   UNL     1      32.094 -11.287 -19.992  0.00  0.00    +0.241 C 
ATOM      4  H   UNL     1      31.895  -9.884 -21.466  0.00  0.00    +0.150 HD
ENDROOT
BRANCH   3   7
ATOM      5  O   UNL     1      33.962 -11.592 -23.913  0.00  0.00    -0.275 OA
ATOM      6  N   UNL     1      32.893 -12.323 -21.999  0.00  0.00    -0.273 N 
ATOM      7  C   UNL     1      31.795 -12.320 -21.036  0.00  0.00    +0.152 C 
ATOM      8  C   UNL     1      31.816 -13.721 -20.430  0.00  0.00    +0.031 C 
ATOM      9  C   UNL     1      33.286 -14.123 -20.517  0.00  0.00    +0.024 C 
ATOM     10  C   UNL     1      33.740 -13.495 -21.825  0.00  0.00    +0.094 C 
ATOM     11  C   UNL     1      33.085 -11.450 -23.057  0.00  0.00    +0.226 C 
BRANCH  11  12
ATOM     12  C   UNL     1      32.141 -10.276 -23.129  0.00  0.00    +0.090 C 
BRANCH  12  13
ATOM     13  C   UNL     1      32.399  -9.458 -24.386  0.00  0.00    +0.036 C 
BRANCH  13  14
ATOM     14  C   UNL     1      33.279  -8.256 -24.146  0.00  0.00    -0.022 C 
ATOM     15  C   UNL     1      33.023  -7.060 -24.815  0.00  0.00    -0.004 C 
ATOM     16  C   UNL     1      34.349  -8.342 -23.255  0.00  0.00    -0.004 C 
ATOM     17  C   UNL     1      33.836  -5.947 -24.594  0.00  0.00    -0.000 C 
ATOM     18  C   UNL     1      35.162  -7.230 -23.034  0.00  0.00    -0.000 C 
ATOM     19  C   UNL     1      34.906  -6.033 -23.703  0.00  0.00    -0.000 C 
ENDBRANCH  13  14
ENDBRANCH  12  13
ENDBRANCH  11  12
ENDBRANCH   3   7
BRANCH   2  20
ATOM     20  C   UNL     1      32.312  -8.826 -19.700  0.00  0.00    +0.116 C 
BRANCH  20  21
ATOM     21  C   UNL     1      32.036  -7.561 -20.460  0.00  0.00    -0.003 C 
ATOM     22  C   UNL     1      32.787  -6.414 -20.201  0.00  0.00    -0.003 C 
ATOM     23  C   UNL     1      31.027  -7.531 -21.424  0.00  0.00    -0.003 C 
ATOM     24  C   UNL     1      32.529  -5.238 -20.906  0.00  0.00    +0.002 C 
ATOM     25  C   UNL     1      30.770  -6.354 -22.128  0.00  0.00    +0.002 C 
ATOM     26  C   UNL     1      31.521  -5.208 -21.869  0.00  0.00    +0.031 C 
BRANCH  26  29
ATOM     27  N   UNL     1      31.736  -2.752 -22.162  0.00  0.00    -0.343 N 
ATOM     28  N   UNL     1      30.536  -4.022 -23.712  0.00  0.00    -0.285 NA
ATOM     29  C   UNL     1      31.253  -3.982 -22.603  0.00  0.00    +0.117 C 
ATOM     30  H   UNL     1      31.543  -1.934 -22.674  0.00  0.00    +0.144 HD
ATOM     31  H   UNL     1      32.270  -2.700 -21.337  0.00  0.00    +0.144 HD
ATOM     32  H   UNL     1      30.353  -3.194 -24.210  0.00  0.00    +0.188 HD
ENDBRANCH  26  29
ENDBRANCH  20  21
ENDBRANCH   2  20
TORSDOF 7
ENDMDL
