MODEL 1
REMARK VINA RESULT:     -10.9      0.000      0.000
REMARK  Name = 447733
REMARK  5 active torsions:
REMARK  status: ('A' for Active; 'I' for Inactive)
REMARK    1  A    between atoms: C_3  and  C_19
REMARK    2  A    between atoms: C_9  and  C_13
REMARK    3  A    between atoms: N_18  and  C_21
REMARK    4  A    between atoms: C_22  and  C_27
REMARK    5  A    between atoms: C_27  and  N_28
REMARK                            x       y       z     vdW  Elec       q    Type
REMARK                         _______ _______ _______ _____ _____    ______ ____
ROOT
ATOM      1  C   UNL     1      35.558 -20.185 -20.099  0.00  0.00    +0.000 C 
ATOM      2  C   UNL     1      34.286 -19.898 -20.650  0.00  0.00    +0.000 C 
ATOM      3  C   UNL     1      34.531 -21.802 -18.600  0.00  0.00    +0.054 C 
ATOM      4  C   UNL     1      35.664 -21.138 -19.073  0.00  0.00    +0.005 C 
ATOM      5  C   UNL     1      33.158 -20.576 -20.161  0.00  0.00    +0.000 C 
ATOM      6  C   UNL     1      34.182 -18.945 -21.676  0.00  0.00    +0.003 C 
ATOM      7  C   UNL     1      36.687 -19.508 -20.588  0.00  0.00    +0.000 C 
ATOM      8  C   UNL     1      33.281 -21.520 -19.142  0.00  0.00    +0.005 C 
ATOM      9  C   UNL     1      35.314 -18.281 -22.150  0.00  0.00    +0.031 C 
ATOM     10  C   UNL     1      36.564 -18.563 -21.607  0.00  0.00    +0.003 C 
ENDROOT
BRANCH   9  13
ATOM     11  N   UNL     1      34.544 -17.598 -24.409  0.00  0.00    -0.343 N 
ATOM     12  N   UNL     1      35.698 -16.088 -23.051  0.00  0.00    -0.285 NA
ATOM     13  C   UNL     1      35.189 -17.296 -23.212  0.00  0.00    +0.117 C 
ATOM     14  H   UNL     1      34.472 -16.916 -25.115  0.00  0.00    +0.144 HD
ATOM     15  H   UNL     1      34.160 -18.495 -24.550  0.00  0.00    +0.144 HD
ATOM     16  H   UNL     1      35.615 -15.419 -23.769  0.00  0.00    +0.188 HD
ENDBRANCH   9  13
BRANCH   3  19
ATOM     17  O   UNL     1      34.062 -23.871 -17.645  0.00  0.00    -0.270 OA
ATOM     18  N   UNL     1      35.481 -22.424 -16.462  0.00  0.00    -0.280 N 
ATOM     19  C   UNL     1      34.657 -22.786 -17.537  0.00  0.00    +0.249 C 
ATOM     20  H   UNL     1      35.886 -21.528 -16.516  0.00  0.00    +0.155 HD
BRANCH  18  21
ATOM     21  C   UNL     1      35.808 -23.179 -15.308  0.00  0.00    +0.051 C 
ATOM     22  C   UNL     1      36.447 -24.651 -13.053  0.00  0.00    -0.044 C 
ATOM     23  C   UNL     1      34.806 -23.516 -14.415  0.00  0.00    +0.014 C 
ATOM     24  C   UNL     1      37.124 -23.559 -15.100  0.00  0.00    +0.014 C 
ATOM     25  C   UNL     1      35.128 -24.258 -13.278  0.00  0.00    -0.005 C 
ATOM     26  C   UNL     1      37.445 -24.301 -13.964  0.00  0.00    -0.005 C 
BRANCH  22  27
ATOM     27  C   UNL     1      36.791 -25.445 -11.838  0.00  0.00    -0.059 C 
BRANCH  27  28
ATOM     28  N   UNL     1      37.704 -26.549 -12.134  0.00  0.00    +0.383 N 
ATOM     29  H   UNL     1      38.511 -26.195 -12.648  0.00  0.00    -0.089 HD
ATOM     30  H   UNL     1      37.221 -27.248 -12.699  0.00  0.00    -0.089 HD
ATOM     31  H   UNL     1      38.017 -26.975 -11.261  0.00  0.00    -0.089 HD
ENDBRANCH  27  28
ENDBRANCH  22  27
ENDBRANCH  18  21
ENDBRANCH   3  19
TORSDOF 5
ENDMDL
MODEL 2
REMARK VINA RESULT:     -10.6      1.949      9.482
REMARK  Name = 447733
REMARK  5 active torsions:
REMARK  status: ('A' for Active; 'I' for Inactive)
REMARK    1  A    between atoms: C_3  and  C_19
REMARK    2  A    between atoms: C_9  and  C_13
REMARK    3  A    between atoms: N_18  and  C_21
REMARK    4  A    between atoms: C_22  and  C_27
REMARK    5  A    between atoms: C_27  and  N_28
REMARK                            x       y       z     vdW  Elec       q    Type
REMARK                         _______ _______ _______ _____ _____    ______ ____
ROOT
ATOM      1  C   UNL     1      36.431 -22.410 -16.348  0.00  0.00    +0.000 C 
ATOM      2  C   UNL     1      35.167 -23.032 -16.217  0.00  0.00    +0.000 C 
ATOM      3  C   UNL     1      35.732 -21.461 -18.475  0.00  0.00    +0.054 C 
ATOM      4  C   UNL     1      36.699 -21.628 -17.484  0.00  0.00    +0.005 C 
ATOM      5  C   UNL     1      34.205 -22.851 -17.225  0.00  0.00    +0.000 C 
ATOM      6  C   UNL     1      34.900 -23.813 -15.081  0.00  0.00    +0.003 C 
ATOM      7  C   UNL     1      37.392 -22.589 -15.340  0.00  0.00    +0.000 C 
ATOM      8  C   UNL     1      34.488 -22.072 -18.347  0.00  0.00    +0.005 C 
ATOM      9  C   UNL     1      35.866 -23.981 -14.089  0.00  0.00    +0.031 C 
ATOM     10  C   UNL     1      37.110 -23.369 -14.218  0.00  0.00    +0.003 C 
ENDROOT
BRANCH   9  13
ATOM     11  N   UNL     1      36.481 -25.740 -12.448  0.00  0.00    -0.343 N 
ATOM     12  N   UNL     1      34.426 -24.641 -12.283  0.00  0.00    -0.285 NA
ATOM     13  C   UNL     1      35.574 -24.793 -12.918  0.00  0.00    +0.117 C 
ATOM     14  H   UNL     1      36.262 -26.280 -11.655  0.00  0.00    +0.144 HD
ATOM     15  H   UNL     1      37.341 -25.871 -12.910  0.00  0.00    +0.144 HD
ATOM     16  H   UNL     1      34.226 -25.190 -11.490  0.00  0.00    +0.188 HD
ENDBRANCH   9  13
BRANCH   3  19
ATOM     17  O   UNL     1      37.159 -20.699 -20.148  0.00  0.00    -0.270 OA
ATOM     18  N   UNL     1      34.963 -19.874 -20.134  0.00  0.00    -0.280 N 
ATOM     19  C   UNL     1      36.025 -20.649 -19.646  0.00  0.00    +0.249 C 
ATOM     20  H   UNL     1      34.120 -19.937 -19.629  0.00  0.00    +0.155 HD
BRANCH  18  21
ATOM     21  C   UNL     1      34.943 -19.012 -21.259  0.00  0.00    +0.051 C 
ATOM     22  C   UNL     1      34.906 -17.330 -23.456  0.00  0.00    -0.044 C 
ATOM     23  C   UNL     1      34.518 -19.505 -22.480  0.00  0.00    +0.014 C 
ATOM     24  C   UNL     1      35.352 -17.698 -21.110  0.00  0.00    +0.014 C 
ATOM     25  C   UNL     1      34.499 -18.658 -23.588  0.00  0.00    -0.005 C 
ATOM     26  C   UNL     1      35.333 -16.850 -22.217  0.00  0.00    -0.005 C 
BRANCH  22  27
ATOM     27  C   UNL     1      34.886 -16.424 -24.640  0.00  0.00    -0.059 C 
BRANCH  27  28
ATOM     28  N   UNL     1      33.831 -15.413 -24.551  0.00  0.00    +0.383 N 
ATOM     29  H   UNL     1      34.024 -14.661 -25.213  0.00  0.00    -0.089 HD
ATOM     30  H   UNL     1      33.804 -15.033 -23.604  0.00  0.00    -0.089 HD
ATOM     31  H   UNL     1      32.932 -15.839 -24.773  0.00  0.00    -0.089 HD
ENDBRANCH  27  28
ENDBRANCH  22  27
ENDBRANCH  18  21
ENDBRANCH   3  19
TORSDOF 5
ENDMDL
MODEL 3
REMARK VINA RESULT:     -10.4      2.335      9.476
REMARK  Name = 447733
REMARK  5 active torsions:
REMARK  status: ('A' for Active; 'I' for Inactive)
REMARK    1  A    between atoms: C_3  and  C_19
REMARK    2  A    between atoms: C_9  and  C_13
REMARK    3  A    between atoms: N_18  and  C_21
REMARK    4  A    between atoms: C_22  and  C_27
REMARK    5  A    between atoms: C_27  and  N_28
REMARK                            x       y       z     vdW  Elec       q    Type
REMARK                         _______ _______ _______ _____ _____    ______ ____
ROOT
ATOM      1  C   UNL     1      33.989 -22.688 -16.979  0.00  0.00    +0.000 C 
ATOM      2  C   UNL     1      35.033 -22.870 -16.041  0.00  0.00    +0.000 C 
ATOM      3  C   UNL     1      35.542 -21.561 -18.473  0.00  0.00    +0.054 C 
ATOM      4  C   UNL     1      34.259 -22.031 -18.190  0.00  0.00    +0.005 C 
ATOM      5  C   UNL     1      36.319 -22.390 -16.344  0.00  0.00    +0.000 C 
ATOM      6  C   UNL     1      34.763 -23.527 -14.830  0.00  0.00    +0.003 C 
ATOM      7  C   UNL     1      32.704 -23.169 -16.677  0.00  0.00    +0.000 C 
ATOM      8  C   UNL     1      36.569 -21.739 -17.552  0.00  0.00    +0.005 C 
ATOM      9  C   UNL     1      33.480 -23.997 -14.546  0.00  0.00    +0.031 C 
ATOM     10  C   UNL     1      32.453 -23.819 -15.469  0.00  0.00    +0.003 C 
ENDROOT
BRANCH   9  13
ATOM     11  N   UNL     1      32.030 -25.375 -13.075  0.00  0.00    -0.343 N 
ATOM     12  N   UNL     1      34.110 -24.631 -12.316  0.00  0.00    -0.285 NA
ATOM     13  C   UNL     1      33.216 -24.676 -13.287  0.00  0.00    +0.117 C 
ATOM     14  H   UNL     1      31.872 -25.826 -12.215  0.00  0.00    +0.144 HD
ATOM     15  H   UNL     1      31.349 -25.418 -13.786  0.00  0.00    +0.144 HD
ATOM     16  H   UNL     1      33.933 -25.089 -11.463  0.00  0.00    +0.188 HD
ENDBRANCH   9  13
BRANCH   3  19
ATOM     17  O   UNL     1      36.715 -21.301 -20.466  0.00  0.00    -0.270 OA
ATOM     18  N   UNL     1      34.969 -19.797 -20.028  0.00  0.00    -0.280 N 
ATOM     19  C   UNL     1      35.805 -20.882 -19.732  0.00  0.00    +0.249 C 
ATOM     20  H   UNL     1      34.291 -19.581 -19.348  0.00  0.00    +0.155 HD
BRANCH  18  21
ATOM     21  C   UNL     1      34.972 -18.968 -21.178  0.00  0.00    +0.051 C 
ATOM     22  C   UNL     1      34.978 -17.349 -23.423  0.00  0.00    -0.044 C 
ATOM     23  C   UNL     1      35.371 -17.648 -21.058  0.00  0.00    +0.014 C 
ATOM     24  C   UNL     1      34.575 -19.498 -22.394  0.00  0.00    +0.014 C 
ATOM     25  C   UNL     1      35.374 -16.832 -22.190  0.00  0.00    -0.005 C 
ATOM     26  C   UNL     1      34.578 -18.683 -23.525  0.00  0.00    -0.005 C 
BRANCH  22  27
ATOM     27  C   UNL     1      34.981 -16.477 -24.633  0.00  0.00    -0.059 C 
BRANCH  27  28
ATOM     28  N   UNL     1      33.772 -15.658 -24.733  0.00  0.00    +0.383 N 
ATOM     29  H   UNL     1      33.184 -15.818 -23.915  0.00  0.00    -0.089 HD
ATOM     30  H   UNL     1      33.258 -15.912 -25.576  0.00  0.00    -0.089 HD
ATOM     31  H   UNL     1      34.033 -14.672 -24.777  0.00  0.00    -0.089 HD
ENDBRANCH  27  28
ENDBRANCH  22  27
ENDBRANCH  18  21
ENDBRANCH   3  19
TORSDOF 5
ENDMDL
MODEL 4
REMARK VINA RESULT:     -10.3      1.487      9.532
REMARK  Name = 447733
REMARK  5 active torsions:
REMARK  status: ('A' for Active; 'I' for Inactive)
REMARK    1  A    between atoms: C_3  and  C_19
REMARK    2  A    between atoms: C_9  and  C_13
REMARK    3  A    between atoms: N_18  and  C_21
REMARK    4  A    between atoms: C_22  and  C_27
REMARK    5  A    between atoms: C_27  and  N_28
REMARK                            x       y       z     vdW  Elec       q    Type
REMARK                         _______ _______ _______ _____ _____    ______ ____
ROOT
ATOM      1  C   UNL     1      35.276 -23.215 -15.156  0.00  0.00    +0.000 C 
ATOM      2  C   UNL     1      36.596 -22.972 -14.709  0.00  0.00    +0.000 C 
ATOM      3  C   UNL     1      35.822 -22.189 -17.293  0.00  0.00    +0.054 C 
ATOM      4  C   UNL     1      34.904 -22.816 -16.450  0.00  0.00    +0.005 C 
ATOM      5  C   UNL     1      37.507 -22.339 -15.572  0.00  0.00    +0.000 C 
ATOM      6  C   UNL     1      36.968 -23.370 -13.415  0.00  0.00    +0.003 C 
ATOM      7  C   UNL     1      34.365 -23.848 -14.295  0.00  0.00    +0.000 C 
ATOM      8  C   UNL     1      37.121 -21.950 -16.854  0.00  0.00    +0.005 C 
ATOM      9  C   UNL     1      36.050 -23.998 -12.572  0.00  0.00    +0.031 C 
ATOM     10  C   UNL     1      34.751 -24.236 -13.012  0.00  0.00    +0.003 C 
ENDROOT
BRANCH   9  13
ATOM     11  N   UNL     1      37.735 -24.160 -10.755  0.00  0.00    -0.343 N 
ATOM     12  N   UNL     1      35.586 -25.024 -10.450  0.00  0.00    -0.285 NA
ATOM     13  C   UNL     1      36.450 -24.404 -11.234  0.00  0.00    +0.117 C 
ATOM     14  H   UNL     1      37.984 -24.445  -9.847  0.00  0.00    +0.144 HD
ATOM     15  H   UNL     1      38.394 -23.702 -11.326  0.00  0.00    +0.144 HD
ATOM     16  H   UNL     1      35.855 -25.301  -9.544  0.00  0.00    +0.188 HD
ENDBRANCH   9  13
BRANCH   3  19
ATOM     17  O   UNL     1      34.688 -22.531 -19.295  0.00  0.00    -0.270 OA
ATOM     18  N   UNL     1      35.892 -20.532 -19.056  0.00  0.00    -0.280 N 
ATOM     19  C   UNL     1      35.421 -21.782 -18.630  0.00  0.00    +0.249 C 
ATOM     20  H   UNL     1      36.467 -20.051 -18.418  0.00  0.00    +0.155 HD
BRANCH  18  21
ATOM     21  C   UNL     1      35.650 -19.870 -20.286  0.00  0.00    +0.051 C 
ATOM     22  C   UNL     1      35.177 -18.579 -22.688  0.00  0.00    -0.044 C 
ATOM     23  C   UNL     1      34.464 -20.108 -20.959  0.00  0.00    +0.014 C 
ATOM     24  C   UNL     1      36.607 -19.003 -20.787  0.00  0.00    +0.014 C 
ATOM     25  C   UNL     1      34.225 -19.457 -22.170  0.00  0.00    -0.005 C 
ATOM     26  C   UNL     1      36.368 -18.352 -21.997  0.00  0.00    -0.005 C 
BRANCH  22  27
ATOM     27  C   UNL     1      34.922 -17.883 -23.982  0.00  0.00    -0.059 C 
BRANCH  27  28
ATOM     28  N   UNL     1      35.241 -16.456 -23.920  0.00  0.00    +0.383 N 
ATOM     29  H   UNL     1      35.923 -16.292 -23.180  0.00  0.00    -0.089 HD
ATOM     30  H   UNL     1      34.392 -15.926 -23.722  0.00  0.00    -0.089 HD
ATOM     31  H   UNL     1      35.629 -16.155 -24.814  0.00  0.00    -0.089 HD
ENDBRANCH  27  28
ENDBRANCH  22  27
ENDBRANCH  18  21
ENDBRANCH   3  19
TORSDOF 5
ENDMDL
MODEL 5
REMARK VINA RESULT:      -9.9      8.183     13.676
REMARK  Name = 447733
REMARK  5 active torsions:
REMARK  status: ('A' for Active; 'I' for Inactive)
REMARK    1  A    between atoms: C_3  and  C_19
REMARK    2  A    between atoms: C_9  and  C_13
REMARK    3  A    between atoms: N_18  and  C_21
REMARK    4  A    between atoms: C_22  and  C_27
REMARK    5  A    between atoms: C_27  and  N_28
REMARK                            x       y       z     vdW  Elec       q    Type
REMARK                         _______ _______ _______ _____ _____    ______ ____
ROOT
ATOM      1  C   UNL     1      33.651 -13.881 -22.103  0.00  0.00    +0.000 C 
ATOM      2  C   UNL     1      33.642 -14.582 -20.873  0.00  0.00    +0.000 C 
ATOM      3  C   UNL     1      32.258 -12.150 -21.113  0.00  0.00    +0.054 C 
ATOM      4  C   UNL     1      32.953 -12.667 -22.208  0.00  0.00    +0.005 C 
ATOM      5  C   UNL     1      32.937 -14.045 -19.783  0.00  0.00    +0.000 C 
ATOM      6  C   UNL     1      34.340 -15.796 -20.770  0.00  0.00    +0.003 C 
ATOM      7  C   UNL     1      34.356 -14.416 -23.193  0.00  0.00    +0.000 C 
ATOM      8  C   UNL     1      32.250 -12.838 -19.904  0.00  0.00    +0.005 C 
ATOM      9  C   UNL     1      35.035 -16.314 -21.863  0.00  0.00    +0.031 C 
ATOM     10  C   UNL     1      35.043 -15.624 -23.073  0.00  0.00    +0.003 C 
ENDROOT
BRANCH   9  13
ATOM     11  N   UNL     1      36.042 -18.355 -22.855  0.00  0.00    -0.343 N 
ATOM     12  N   UNL     1      36.139 -17.994 -20.549  0.00  0.00    -0.285 NA
ATOM     13  C   UNL     1      35.753 -17.572 -21.740  0.00  0.00    +0.117 C 
ATOM     14  H   UNL     1      36.528 -19.204 -22.748  0.00  0.00    +0.144 HD
ATOM     15  H   UNL     1      35.759 -18.059 -23.751  0.00  0.00    +0.144 HD
ATOM     16  H   UNL     1      36.625 -18.846 -20.463  0.00  0.00    +0.188 HD
ENDBRANCH   9  13
BRANCH   3  19
ATOM     17  O   UNL     1      30.321 -10.865 -21.004  0.00  0.00    -0.270 OA
ATOM     18  N   UNL     1      32.314  -9.779 -21.599  0.00  0.00    -0.280 N 
ATOM     19  C   UNL     1      31.540 -10.891 -21.238  0.00  0.00    +0.249 C 
ATOM     20  H   UNL     1      33.270  -9.955 -21.753  0.00  0.00    +0.155 HD
BRANCH  18  21
ATOM     21  C   UNL     1      31.900  -8.435 -21.771  0.00  0.00    +0.051 C 
ATOM     22  C   UNL     1      31.091  -5.809 -22.107  0.00  0.00    -0.044 C 
ATOM     23  C   UNL     1      32.144  -7.518 -20.763  0.00  0.00    +0.014 C 
ATOM     24  C   UNL     1      31.259  -8.070 -22.944  0.00  0.00    +0.014 C 
ATOM     25  C   UNL     1      31.736  -6.195 -20.933  0.00  0.00    -0.005 C 
ATOM     26  C   UNL     1      30.852  -6.747 -23.113  0.00  0.00    -0.005 C 
BRANCH  22  27
ATOM     27  C   UNL     1      30.655  -4.394 -22.288  0.00  0.00    -0.059 C 
BRANCH  27  28
ATOM     28  N   UNL     1      29.569  -4.024 -21.379  0.00  0.00    +0.383 N 
ATOM     29  H   UNL     1      29.412  -3.018 -21.430  0.00  0.00    -0.089 HD
ATOM     30  H   UNL     1      29.823  -4.280 -20.425  0.00  0.00    -0.089 HD
ATOM     31  H   UNL     1      28.717  -4.516 -21.649  0.00  0.00    -0.089 HD
ENDBRANCH  27  28
ENDBRANCH  22  27
ENDBRANCH  18  21
ENDBRANCH   3  19
TORSDOF 5
ENDMDL
MODEL 6
REMARK VINA RESULT:      -9.9      9.484     13.781
REMARK  Name = 447733
REMARK  5 active torsions:
REMARK  status: ('A' for Active; 'I' for Inactive)
REMARK    1  A    between atoms: C_3  and  C_19
REMARK    2  A    between atoms: C_9  and  C_13
REMARK    3  A    between atoms: N_18  and  C_21
REMARK    4  A    between atoms: C_22  and  C_27
REMARK    5  A    between atoms: C_27  and  N_28
REMARK                            x       y       z     vdW  Elec       q    Type
REMARK                         _______ _______ _______ _____ _____    ______ ____
ROOT
ATOM      1  C   UNL     1      31.388  -7.533 -22.546  0.00  0.00    +0.000 C 
ATOM      2  C   UNL     1      31.594  -6.958 -21.269  0.00  0.00    +0.000 C 
ATOM      3  C   UNL     1      31.914  -9.725 -21.634  0.00  0.00    +0.054 C 
ATOM      4  C   UNL     1      31.553  -8.917 -22.713  0.00  0.00    +0.005 C 
ATOM      5  C   UNL     1      31.957  -7.788 -20.195  0.00  0.00    +0.000 C 
ATOM      6  C   UNL     1      31.429  -5.574 -21.103  0.00  0.00    +0.003 C 
ATOM      7  C   UNL     1      31.025  -6.704 -23.620  0.00  0.00    +0.000 C 
ATOM      8  C   UNL     1      32.117  -9.161 -20.378  0.00  0.00    +0.005 C 
ATOM      9  C   UNL     1      31.068  -4.765 -22.182  0.00  0.00    +0.031 C 
ATOM     10  C   UNL     1      30.866  -5.330 -23.438  0.00  0.00    +0.003 C 
ENDROOT
BRANCH   9  13
ATOM     11  N   UNL     1      31.986  -2.462 -22.054  0.00  0.00    -0.343 N 
ATOM     12  N   UNL     1      29.700  -2.838 -21.755  0.00  0.00    -0.285 NA
ATOM     13  C   UNL     1      30.901  -3.333 -21.994  0.00  0.00    +0.117 C 
ATOM     14  H   UNL     1      31.850  -1.496 -21.923  0.00  0.00    +0.144 HD
ATOM     15  H   UNL     1      32.890  -2.813 -22.228  0.00  0.00    +0.144 HD
ATOM     16  H   UNL     1      29.584  -1.868 -21.628  0.00  0.00    +0.188 HD
ENDBRANCH   9  13
BRANCH   3  19
ATOM     17  O   UNL     1      31.302 -11.937 -21.252  0.00  0.00    -0.270 OA
ATOM     18  N   UNL     1      33.124 -11.544 -22.676  0.00  0.00    -0.280 N 
ATOM     19  C   UNL     1      32.081 -11.157 -21.822  0.00  0.00    +0.249 C 
ATOM     20  H   UNL     1      33.661 -10.811 -23.056  0.00  0.00    +0.155 HD
BRANCH  18  21
ATOM     21  C   UNL     1      33.509 -12.852 -23.063  0.00  0.00    +0.051 C 
ATOM     22  C   UNL     1      34.257 -15.407 -23.820  0.00  0.00    -0.044 C 
ATOM     23  C   UNL     1      33.074 -13.351 -24.279  0.00  0.00    +0.014 C 
ATOM     24  C   UNL     1      34.308 -13.601 -22.216  0.00  0.00    +0.014 C 
ATOM     25  C   UNL     1      33.452 -14.639 -24.661  0.00  0.00    -0.005 C 
ATOM     26  C   UNL     1      34.685 -14.888 -22.597  0.00  0.00    -0.005 C 
BRANCH  22  27
ATOM     27  C   UNL     1      34.661 -16.783 -24.228  0.00  0.00    -0.059 C 
BRANCH  27  28
ATOM     28  N   UNL     1      35.461 -17.457 -23.204  0.00  0.00    +0.383 N 
ATOM     29  H   UNL     1      36.052 -16.773 -22.730  0.00  0.00    -0.089 HD
ATOM     30  H   UNL     1      36.047 -18.167 -23.642  0.00  0.00    -0.089 HD
ATOM     31  H   UNL     1      34.841 -17.898 -22.524  0.00  0.00    -0.089 HD
ENDBRANCH  27  28
ENDBRANCH  22  27
ENDBRANCH  18  21
ENDBRANCH   3  19
TORSDOF 5
ENDMDL
MODEL 7
REMARK VINA RESULT:      -9.8      8.376     14.034
REMARK  Name = 447733
REMARK  5 active torsions:
REMARK  status: ('A' for Active; 'I' for Inactive)
REMARK    1  A    between atoms: C_3  and  C_19
REMARK    2  A    between atoms: C_9  and  C_13
REMARK    3  A    between atoms: N_18  and  C_21
REMARK    4  A    between atoms: C_22  and  C_27
REMARK    5  A    between atoms: C_27  and  N_28
REMARK                            x       y       z     vdW  Elec       q    Type
REMARK                         _______ _______ _______ _____ _____    ______ ____
ROOT
ATOM      1  C   UNL     1      33.574 -13.701 -21.357  0.00  0.00    +0.000 C 
ATOM      2  C   UNL     1      34.056 -14.140 -22.613  0.00  0.00    +0.000 C 
ATOM      3  C   UNL     1      32.656 -11.714 -22.416  0.00  0.00    +0.054 C 
ATOM      4  C   UNL     1      32.877 -12.485 -21.274  0.00  0.00    +0.005 C 
ATOM      5  C   UNL     1      33.823 -13.350 -23.751  0.00  0.00    +0.000 C 
ATOM      6  C   UNL     1      34.754 -15.356 -22.695  0.00  0.00    +0.003 C 
ATOM      7  C   UNL     1      33.806 -14.491 -20.219  0.00  0.00    +0.000 C 
ATOM      8  C   UNL     1      33.129 -12.145 -23.651  0.00  0.00    +0.005 C 
ATOM      9  C   UNL     1      34.976 -16.128 -21.554  0.00  0.00    +0.031 C 
ATOM     10  C   UNL     1      34.502 -15.696 -20.318  0.00  0.00    +0.003 C 
ENDROOT
BRANCH   9  13
ATOM     11  N   UNL     1      35.957 -17.977 -22.891  0.00  0.00    -0.343 N 
ATOM     12  N   UNL     1      36.123 -17.990 -20.560  0.00  0.00    -0.285 NA
ATOM     13  C   UNL     1      35.700 -17.385 -21.656  0.00  0.00    +0.117 C 
ATOM     14  H   UNL     1      36.448 -18.828 -22.935  0.00  0.00    +0.144 HD
ATOM     15  H   UNL     1      35.646 -17.543 -23.718  0.00  0.00    +0.144 HD
ATOM     16  H   UNL     1      36.613 -18.841 -20.626  0.00  0.00    +0.188 HD
ENDBRANCH   9  13
BRANCH   3  19
ATOM     17  O   UNL     1      30.693 -10.478 -22.231  0.00  0.00    -0.270 OA
ATOM     18  N   UNL     1      32.719  -9.297 -22.293  0.00  0.00    -0.280 N 
ATOM     19  C   UNL     1      31.932 -10.457 -22.313  0.00  0.00    +0.249 C 
ATOM     20  H   UNL     1      33.691  -9.438 -22.368  0.00  0.00    +0.155 HD
BRANCH  18  21
ATOM     21  C   UNL     1      32.301  -7.948 -22.179  0.00  0.00    +0.051 C 
ATOM     22  C   UNL     1      31.482  -5.313 -21.955  0.00  0.00    -0.044 C 
ATOM     23  C   UNL     1      32.648  -7.226 -21.050  0.00  0.00    +0.014 C 
ATOM     24  C   UNL     1      31.552  -7.384 -23.198  0.00  0.00    +0.014 C 
ATOM     25  C   UNL     1      32.236  -5.897 -20.937  0.00  0.00    -0.005 C 
ATOM     26  C   UNL     1      31.140  -6.056 -23.085  0.00  0.00    -0.005 C 
BRANCH  22  27
ATOM     27  C   UNL     1      31.042  -3.893 -21.834  0.00  0.00    -0.059 C 
BRANCH  27  28
ATOM     28  N   UNL     1      29.640  -3.777 -21.429  0.00  0.00    +0.383 N 
ATOM     29  H   UNL     1      29.306  -4.681 -21.097  0.00  0.00    -0.089 HD
ATOM     30  H   UNL     1      29.079  -3.480 -22.227  0.00  0.00    -0.089 HD
ATOM     31  H   UNL     1      29.559  -3.088 -20.681  0.00  0.00    -0.089 HD
ENDBRANCH  27  28
ENDBRANCH  22  27
ENDBRANCH  18  21
ENDBRANCH   3  19
TORSDOF 5
ENDMDL
MODEL 8
REMARK VINA RESULT:      -9.6      7.264     13.253
REMARK  Name = 447733
REMARK  5 active torsions:
REMARK  status: ('A' for Active; 'I' for Inactive)
REMARK    1  A    between atoms: C_3  and  C_19
REMARK    2  A    between atoms: C_9  and  C_13
REMARK    3  A    between atoms: N_18  and  C_21
REMARK    4  A    between atoms: C_22  and  C_27
REMARK    5  A    between atoms: C_27  and  N_28
REMARK                            x       y       z     vdW  Elec       q    Type
REMARK                         _______ _______ _______ _____ _____    ______ ____
ROOT
ATOM      1  C   UNL     1      34.588 -15.316 -22.799  0.00  0.00    +0.000 C 
ATOM      2  C   UNL     1      34.648 -15.393 -21.387  0.00  0.00    +0.000 C 
ATOM      3  C   UNL     1      33.813 -13.017 -22.631  0.00  0.00    +0.054 C 
ATOM      4  C   UNL     1      34.168 -14.122 -23.406  0.00  0.00    +0.005 C 
ATOM      5  C   UNL     1      34.287 -14.271 -20.624  0.00  0.00    +0.000 C 
ATOM      6  C   UNL     1      35.068 -16.588 -20.782  0.00  0.00    +0.003 C 
ATOM      7  C   UNL     1      34.949 -16.438 -23.564  0.00  0.00    +0.000 C 
ATOM      8  C   UNL     1      33.872 -13.092 -21.243  0.00  0.00    +0.005 C 
ATOM      9  C   UNL     1      35.423 -17.693 -21.556  0.00  0.00    +0.031 C 
ATOM     10  C   UNL     1      35.364 -17.618 -22.945  0.00  0.00    +0.003 C 
ENDROOT
BRANCH   9  13
ATOM     11  N   UNL     1      35.064 -20.069 -20.932  0.00  0.00    -0.343 N 
ATOM     12  N   UNL     1      37.021 -18.966 -20.292  0.00  0.00    -0.285 NA
ATOM     13  C   UNL     1      35.856 -18.924 -20.914  0.00  0.00    +0.117 C 
ATOM     14  H   UNL     1      35.376 -20.891 -20.489  0.00  0.00    +0.144 HD
ATOM     15  H   UNL     1      34.190 -20.057 -21.387  0.00  0.00    +0.144 HD
ATOM     16  H   UNL     1      37.316 -19.797 -19.857  0.00  0.00    +0.188 HD
ENDBRANCH   9  13
BRANCH   3  19
ATOM     17  O   UNL     1      33.346 -11.733 -24.514  0.00  0.00    -0.270 OA
ATOM     18  N   UNL     1      33.005 -10.746 -22.413  0.00  0.00    -0.280 N 
ATOM     19  C   UNL     1      33.380 -11.787 -23.274  0.00  0.00    +0.249 C 
ATOM     20  H   UNL     1      33.087 -10.936 -21.451  0.00  0.00    +0.155 HD
BRANCH  18  21
ATOM     21  C   UNL     1      32.525  -9.455 -22.747  0.00  0.00    +0.051 C 
ATOM     22  C   UNL     1      31.586  -6.934 -23.399  0.00  0.00    -0.044 C 
ATOM     23  C   UNL     1      31.159  -9.239 -22.813  0.00  0.00    +0.014 C 
ATOM     24  C   UNL     1      33.433  -8.440 -23.000  0.00  0.00    +0.014 C 
ATOM     25  C   UNL     1      30.686  -7.968 -23.142  0.00  0.00    -0.005 C 
ATOM     26  C   UNL     1      32.960  -7.170 -23.328  0.00  0.00    -0.005 C 
BRANCH  22  27
ATOM     27  C   UNL     1      31.080  -5.576 -23.750  0.00  0.00    -0.059 C 
BRANCH  27  28
ATOM     28  N   UNL     1      30.401  -4.926 -22.628  0.00  0.00    +0.383 N 
ATOM     29  H   UNL     1      29.692  -5.555 -22.250  0.00  0.00    -0.089 HD
ATOM     30  H   UNL     1      29.956  -4.067 -22.951  0.00  0.00    -0.089 HD
ATOM     31  H   UNL     1      31.081  -4.704 -21.901  0.00  0.00    -0.089 HD
ENDBRANCH  27  28
ENDBRANCH  22  27
ENDBRANCH  18  21
ENDBRANCH   3  19
TORSDOF 5
ENDMDL
MODEL 9
REMARK VINA RESULT:      -9.4      9.050     14.865
REMARK  Name = 447733
REMARK  5 active torsions:
REMARK  status: ('A' for Active; 'I' for Inactive)
REMARK    1  A    between atoms: C_3  and  C_19
REMARK    2  A    between atoms: C_9  and  C_13
REMARK    3  A    between atoms: N_18  and  C_21
REMARK    4  A    between atoms: C_22  and  C_27
REMARK    5  A    between atoms: C_27  and  N_28
REMARK                            x       y       z     vdW  Elec       q    Type
REMARK                         _______ _______ _______ _____ _____    ______ ____
ROOT
ATOM      1  C   UNL     1      33.303 -12.855 -21.662  0.00  0.00    +0.000 C 
ATOM      2  C   UNL     1      33.936 -13.278 -22.856  0.00  0.00    +0.000 C 
ATOM      3  C   UNL     1      32.656 -10.781 -22.754  0.00  0.00    +0.054 C 
ATOM      4  C   UNL     1      32.668 -11.603 -21.627  0.00  0.00    +0.005 C 
ATOM      5  C   UNL     1      33.912 -12.437 -23.980  0.00  0.00    +0.000 C 
ATOM      6  C   UNL     1      34.571 -14.530 -22.890  0.00  0.00    +0.003 C 
ATOM      7  C   UNL     1      33.326 -13.697 -20.538  0.00  0.00    +0.000 C 
ATOM      8  C   UNL     1      33.277 -11.196 -23.927  0.00  0.00    +0.005 C 
ATOM      9  C   UNL     1      34.584 -15.354 -21.764  0.00  0.00    +0.031 C 
ATOM     10  C   UNL     1      33.962 -14.937 -20.590  0.00  0.00    +0.003 C 
ENDROOT
BRANCH   9  13
ATOM     11  N   UNL     1      35.437 -17.411 -20.666  0.00  0.00    -0.343 N 
ATOM     12  N   UNL     1      35.683 -17.116 -22.971  0.00  0.00    -0.285 NA
ATOM     13  C   UNL     1      35.246 -16.647 -21.816  0.00  0.00    +0.117 C 
ATOM     14  H   UNL     1      35.889 -18.284 -20.725  0.00  0.00    +0.144 HD
ATOM     15  H   UNL     1      35.121 -17.077 -19.795  0.00  0.00    +0.144 HD
ATOM     16  H   UNL     1      36.131 -17.992 -23.008  0.00  0.00    +0.188 HD
ENDBRANCH   9  13
BRANCH   3  19
ATOM     17  O   UNL     1      30.753  -9.441 -22.724  0.00  0.00    -0.270 OA
ATOM     18  N   UNL     1      32.838  -8.372 -22.602  0.00  0.00    -0.280 N 
ATOM     19  C   UNL     1      31.994  -9.487 -22.701  0.00  0.00    +0.249 C 
ATOM     20  H   UNL     1      33.803  -8.565 -22.595  0.00  0.00    +0.155 HD
BRANCH  18  21
ATOM     21  C   UNL     1      32.484  -7.002 -22.510  0.00  0.00    +0.051 C 
ATOM     22  C   UNL     1      31.794  -4.328 -22.332  0.00  0.00    -0.044 C 
ATOM     23  C   UNL     1      32.479  -6.228 -23.657  0.00  0.00    +0.014 C 
ATOM     24  C   UNL     1      32.153  -6.471 -21.275  0.00  0.00    +0.014 C 
ATOM     25  C   UNL     1      32.131  -4.880 -23.568  0.00  0.00    -0.005 C 
ATOM     26  C   UNL     1      31.805  -5.124 -21.186  0.00  0.00    -0.005 C 
BRANCH  22  27
ATOM     27  C   UNL     1      31.422  -2.887 -22.236  0.00  0.00    -0.059 C 
BRANCH  27  28
ATOM     28  N   UNL     1      30.073  -2.625 -22.739  0.00  0.00    +0.383 N 
ATOM     29  H   UNL     1      29.447  -3.372 -22.439  0.00  0.00    -0.089 HD
ATOM     30  H   UNL     1      30.091  -2.587 -23.758  0.00  0.00    -0.089 HD
ATOM     31  H   UNL     1      29.740  -1.734 -22.371  0.00  0.00    -0.089 HD
ENDBRANCH  27  28
ENDBRANCH  22  27
ENDBRANCH  18  21
ENDBRANCH   3  19
TORSDOF 5
ENDMDL
