MODEL 1
REMARK VINA RESULT:     -11.7      0.000      0.000
REMARK  Name = 24779724
REMARK  3 active torsions:
REMARK  status: ('A' for Active; 'I' for Inactive)
REMARK    1  A    between atoms: C_5  and  C_12
REMARK    2  A    between atoms: C_7  and  S_16
REMARK    3  A    between atoms: S_16  and  C_19
REMARK                            x       y       z     vdW  Elec       q    Type
REMARK                         _______ _______ _______ _____ _____    ______ ____
ROOT
ATOM      1  N   UNL     1      34.619 -21.723 -18.441  0.00  0.00    -0.186 N 
ATOM      2  N   UNL     1      35.639 -22.061 -17.613  0.00  0.00    -0.162 NA
ATOM      3  N   UNL     1      32.619 -21.563 -19.334  0.00  0.00    -0.126 NA
ATOM      4  N   UNL     1      33.501 -20.828 -20.100  0.00  0.00    -0.120 NA
ATOM      5  C   UNL     1      35.279 -22.822 -16.619  0.00  0.00    +0.104 C 
ATOM      6  C   UNL     1      33.300 -22.096 -18.341  0.00  0.00    +0.187 A 
ATOM      7  C   UNL     1      34.691 -20.936 -19.554  0.00  0.00    +0.217 A 
ATOM      8  C   UNL     1      33.883 -23.320 -16.394  0.00  0.00    +0.024 C 
ATOM      9  C   UNL     1      32.943 -22.934 -17.267  0.00  0.00    +0.042 C 
ENDROOT
BRANCH   5  12
ATOM     10  N   UNL     1      37.331 -24.284 -14.004  0.00  0.00    -0.208 N 
ATOM     11  N   UNL     1      38.263 -23.436 -14.473  0.00  0.00    -0.176 NA
ATOM     12  C   UNL     1      36.305 -23.257 -15.637  0.00  0.00    +0.056 C 
ATOM     13  C   UNL     1      36.141 -24.215 -14.667  0.00  0.00    +0.087 C 
ATOM     14  C   UNL     1      37.631 -22.812 -15.470  0.00  0.00    +0.121 C 
ATOM     15  C   UNL     1      37.645 -25.153 -12.895  0.00  0.00    +0.140 C 
ENDBRANCH   5  12
BRANCH   7  16
ATOM     16  S   UNL     1      36.205 -20.186 -20.136  0.00  0.00    -0.051 S 
BRANCH  16  19
ATOM     17  N   UNL     1      34.195 -16.905 -24.673  0.00  0.00    -0.248 NA
ATOM     18  C   UNL     1      35.075 -17.023 -22.433  0.00  0.00    -0.003 C 
ATOM     19  C   UNL     1      35.606 -19.195 -21.489  0.00  0.00    +0.011 C 
ATOM     20  C   UNL     1      34.654 -17.629 -23.635  0.00  0.00    +0.060 C 
ATOM     21  C   UNL     1      35.548 -17.809 -21.369  0.00  0.00    +0.060 C 
ATOM     22  C   UNL     1      35.192 -19.798 -22.669  0.00  0.00    -0.017 C 
ATOM     23  C   UNL     1      34.722 -19.017 -23.727  0.00  0.00    +0.072 C 
ATOM     24  C   UNL     1      35.007 -15.626 -22.340  0.00  0.00    -0.001 C 
ATOM     25  C   UNL     1      34.535 -14.877 -23.408  0.00  0.00    +0.020 C 
ATOM     26  C   UNL     1      34.145 -15.560 -24.542  0.00  0.00    +0.098 C 
ENDBRANCH  16  19
ENDBRANCH   7  16
TORSDOF 3
ENDMDL
MODEL 2
REMARK VINA RESULT:     -11.1      2.790      4.210
REMARK  Name = 24779724
REMARK  3 active torsions:
REMARK  status: ('A' for Active; 'I' for Inactive)
REMARK    1  A    between atoms: C_5  and  C_12
REMARK    2  A    between atoms: C_7  and  S_16
REMARK    3  A    between atoms: S_16  and  C_19
REMARK                            x       y       z     vdW  Elec       q    Type
REMARK                         _______ _______ _______ _____ _____    ______ ____
ROOT
ATOM      1  N   UNL     1      34.037 -23.781 -15.538  0.00  0.00    -0.186 N 
ATOM      2  N   UNL     1      35.176 -24.515 -15.589  0.00  0.00    -0.162 NA
ATOM      3  N   UNL     1      32.339 -22.608 -14.786  0.00  0.00    -0.126 NA
ATOM      4  N   UNL     1      32.238 -22.695 -16.160  0.00  0.00    -0.120 NA
ATOM      5  C   UNL     1      35.720 -24.723 -14.423  0.00  0.00    +0.104 C 
ATOM      6  C   UNL     1      33.422 -23.263 -14.423  0.00  0.00    +0.187 A 
ATOM      7  C   UNL     1      33.258 -23.401 -16.593  0.00  0.00    +0.217 A 
ATOM      8  C   UNL     1      35.153 -24.235 -13.123  0.00  0.00    +0.024 C 
ATOM      9  C   UNL     1      34.023 -23.519 -13.175  0.00  0.00    +0.042 C 
ENDROOT
BRANCH   5  12
ATOM     10  N   UNL     1      39.083 -26.073 -14.186  0.00  0.00    -0.208 N 
ATOM     11  N   UNL     1      38.451 -27.255 -14.290  0.00  0.00    -0.176 NA
ATOM     12  C   UNL     1      36.977 -25.510 -14.345  0.00  0.00    +0.056 C 
ATOM     13  C   UNL     1      38.245 -24.997 -14.214  0.00  0.00    +0.087 C 
ATOM     14  C   UNL     1      37.166 -26.905 -14.386  0.00  0.00    +0.121 C 
ATOM     15  C   UNL     1      40.520 -26.036 -14.059  0.00  0.00    +0.140 C 
ENDBRANCH   5  12
BRANCH   7  16
ATOM     16  S   UNL     1      33.620 -23.824 -18.290  0.00  0.00    -0.051 S 
BRANCH  16  19
ATOM     17  N   UNL     1      36.924 -19.166 -19.957  0.00  0.00    -0.248 NA
ATOM     18  C   UNL     1      34.937 -20.501 -20.235  0.00  0.00    -0.003 C 
ATOM     19  C   UNL     1      34.601 -22.426 -18.796  0.00  0.00    +0.011 C 
ATOM     20  C   UNL     1      36.161 -20.214 -19.595  0.00  0.00    +0.060 C 
ATOM     21  C   UNL     1      34.166 -21.604 -19.831  0.00  0.00    +0.060 C 
ATOM     22  C   UNL     1      35.805 -22.150 -18.162  0.00  0.00    -0.017 C 
ATOM     23  C   UNL     1      36.572 -21.054 -18.563  0.00  0.00    +0.072 C 
ATOM     24  C   UNL     1      34.523 -19.656 -21.274  0.00  0.00    -0.001 C 
ATOM     25  C   UNL     1      35.307 -18.575 -21.649  0.00  0.00    +0.020 C 
ATOM     26  C   UNL     1      36.489 -18.376 -20.964  0.00  0.00    +0.098 C 
ENDBRANCH  16  19
ENDBRANCH   7  16
TORSDOF 3
ENDMDL
MODEL 3
REMARK VINA RESULT:     -10.9      2.714      3.911
REMARK  Name = 24779724
REMARK  3 active torsions:
REMARK  status: ('A' for Active; 'I' for Inactive)
REMARK    1  A    between atoms: C_5  and  C_12
REMARK    2  A    between atoms: C_7  and  S_16
REMARK    3  A    between atoms: S_16  and  C_19
REMARK                            x       y       z     vdW  Elec       q    Type
REMARK                         _______ _______ _______ _____ _____    ______ ____
ROOT
ATOM      1  N   UNL     1      32.958 -23.385 -15.619  0.00  0.00    -0.186 N 
ATOM      2  N   UNL     1      34.026 -23.917 -14.975  0.00  0.00    -0.162 NA
ATOM      3  N   UNL     1      31.000 -22.474 -16.016  0.00  0.00    -0.126 NA
ATOM      4  N   UNL     1      31.650 -22.656 -17.219  0.00  0.00    -0.120 NA
ATOM      5  C   UNL     1      33.891 -23.963 -13.680  0.00  0.00    +0.104 C 
ATOM      6  C   UNL     1      31.793 -22.914 -15.062  0.00  0.00    +0.187 A 
ATOM      7  C   UNL     1      32.817 -23.203 -16.964  0.00  0.00    +0.217 A 
ATOM      8  C   UNL     1      32.672 -23.503 -12.938  0.00  0.00    +0.024 C 
ATOM      9  C   UNL     1      31.667 -22.992 -13.661  0.00  0.00    +0.042 C 
ENDROOT
BRANCH   5  12
ATOM     10  N   UNL     1      36.893 -25.413 -12.239  0.00  0.00    -0.208 N 
ATOM     11  N   UNL     1      36.244 -25.220 -11.078  0.00  0.00    -0.176 NA
ATOM     12  C   UNL     1      34.997 -24.520 -12.860  0.00  0.00    +0.056 C 
ATOM     13  C   UNL     1      36.188 -25.011 -13.337  0.00  0.00    +0.087 C 
ATOM     14  C   UNL     1      35.088 -24.674 -11.463  0.00  0.00    +0.121 C 
ATOM     15  C   UNL     1      38.211 -25.999 -12.236  0.00  0.00    +0.140 C 
ENDBRANCH   5  12
BRANCH   7  16
ATOM     16  S   UNL     1      34.067 -23.657 -18.157  0.00  0.00    -0.051 S 
BRANCH  16  19
ATOM     17  N   UNL     1      34.681 -18.557 -21.158  0.00  0.00    -0.248 NA
ATOM     18  C   UNL     1      35.693 -20.423 -20.017  0.00  0.00    -0.003 C 
ATOM     19  C   UNL     1      34.262 -22.132 -19.055  0.00  0.00    +0.011 C 
ATOM     20  C   UNL     1      34.565 -19.713 -20.478  0.00  0.00    +0.060 C 
ATOM     21  C   UNL     1      35.534 -21.627 -19.310  0.00  0.00    +0.060 C 
ATOM     22  C   UNL     1      33.146 -21.437 -19.506  0.00  0.00    -0.017 C 
ATOM     23  C   UNL     1      33.304 -20.241 -20.209  0.00  0.00    +0.072 C 
ATOM     24  C   UNL     1      36.961 -19.892 -20.287  0.00  0.00    -0.001 C 
ATOM     25  C   UNL     1      37.085 -18.702 -20.988  0.00  0.00    +0.020 C 
ATOM     26  C   UNL     1      35.923 -18.079 -21.398  0.00  0.00    +0.098 C 
ENDBRANCH  16  19
ENDBRANCH   7  16
TORSDOF 3
ENDMDL
MODEL 4
REMARK VINA RESULT:     -10.8      3.333      6.311
REMARK  Name = 24779724
REMARK  3 active torsions:
REMARK  status: ('A' for Active; 'I' for Inactive)
REMARK    1  A    between atoms: C_5  and  C_12
REMARK    2  A    between atoms: C_7  and  S_16
REMARK    3  A    between atoms: S_16  and  C_19
REMARK                            x       y       z     vdW  Elec       q    Type
REMARK                         _______ _______ _______ _____ _____    ______ ____
ROOT
ATOM      1  N   UNL     1      34.893 -17.231 -21.958  0.00  0.00    -0.186 N 
ATOM      2  N   UNL     1      34.882 -18.086 -20.906  0.00  0.00    -0.162 NA
ATOM      3  N   UNL     1      34.958 -16.440 -24.006  0.00  0.00    -0.126 NA
ATOM      4  N   UNL     1      34.853 -15.379 -23.130  0.00  0.00    -0.120 NA
ATOM      5  C   UNL     1      34.960 -19.341 -21.247  0.00  0.00    +0.104 C 
ATOM      6  C   UNL     1      34.982 -17.547 -23.294  0.00  0.00    +0.187 A 
ATOM      7  C   UNL     1      34.817 -15.869 -21.911  0.00  0.00    +0.217 A 
ATOM      8  C   UNL     1      35.079 -19.831 -22.659  0.00  0.00    +0.024 C 
ATOM      9  C   UNL     1      35.083 -18.911 -23.632  0.00  0.00    +0.042 C 
ENDROOT
BRANCH   5  12
ATOM     10  N   UNL     1      34.297 -21.855 -18.711  0.00  0.00    -0.208 N 
ATOM     11  N   UNL     1      35.636 -21.871 -18.595  0.00  0.00    -0.176 NA
ATOM     12  C   UNL     1      34.951 -20.378 -20.182  0.00  0.00    +0.056 C 
ATOM     13  C   UNL     1      33.836 -20.977 -19.648  0.00  0.00    +0.087 C 
ATOM     14  C   UNL     1      36.030 -20.967 -19.496  0.00  0.00    +0.121 C 
ATOM     15  C   UNL     1      33.495 -22.721 -17.881  0.00  0.00    +0.140 C 
ENDBRANCH   5  12
BRANCH   7  16
ATOM     16  S   UNL     1      34.687 -14.940 -20.391  0.00  0.00    -0.051 S 
BRANCH  16  19
ATOM     17  N   UNL     1      31.045 -10.522 -22.005  0.00  0.00    -0.248 NA
ATOM     18  C   UNL     1      33.071 -11.775 -22.373  0.00  0.00    -0.003 C 
ATOM     19  C   UNL     1      33.603 -13.616 -20.883  0.00  0.00    +0.011 C 
ATOM     20  C   UNL     1      31.883 -11.517 -21.657  0.00  0.00    +0.060 C 
ATOM     21  C   UNL     1      33.922 -12.821 -21.981  0.00  0.00    +0.060 C 
ATOM     22  C   UNL     1      32.435 -13.367 -20.174  0.00  0.00    -0.017 C 
ATOM     23  C   UNL     1      31.589 -12.326 -20.563  0.00  0.00    +0.072 C 
ATOM     24  C   UNL     1      33.367 -10.960 -23.474  0.00  0.00    -0.001 C 
ATOM     25  C   UNL     1      32.506  -9.934 -23.835  0.00  0.00    +0.020 C 
ATOM     26  C   UNL     1      31.368  -9.759 -23.074  0.00  0.00    +0.098 C 
ENDBRANCH  16  19
ENDBRANCH   7  16
TORSDOF 3
ENDMDL
MODEL 5
REMARK VINA RESULT:     -10.6      3.618      6.215
REMARK  Name = 24779724
REMARK  3 active torsions:
REMARK  status: ('A' for Active; 'I' for Inactive)
REMARK    1  A    between atoms: C_5  and  C_12
REMARK    2  A    between atoms: C_7  and  S_16
REMARK    3  A    between atoms: S_16  and  C_19
REMARK                            x       y       z     vdW  Elec       q    Type
REMARK                         _______ _______ _______ _____ _____    ______ ____
ROOT
ATOM      1  N   UNL     1      32.775 -23.204 -15.881  0.00  0.00    -0.186 N 
ATOM      2  N   UNL     1      31.489 -23.145 -16.307  0.00  0.00    -0.162 NA
ATOM      3  N   UNL     1      34.550 -23.202 -14.587  0.00  0.00    -0.126 NA
ATOM      4  N   UNL     1      34.958 -23.400 -15.890  0.00  0.00    -0.120 NA
ATOM      5  C   UNL     1      30.626 -22.959 -15.348  0.00  0.00    +0.104 C 
ATOM      6  C   UNL     1      33.239 -23.086 -14.592  0.00  0.00    +0.187 A 
ATOM      7  C   UNL     1      33.887 -23.397 -16.650  0.00  0.00    +0.217 A 
ATOM      8  C   UNL     1      30.987 -22.795 -13.902  0.00  0.00    +0.024 C 
ATOM      9  C   UNL     1      32.285 -22.867 -13.579  0.00  0.00    +0.042 C 
ENDROOT
BRANCH   5  12
ATOM     10  N   UNL     1      27.044 -22.435 -15.625  0.00  0.00    -0.208 N 
ATOM     11  N   UNL     1      27.183 -23.139 -16.761  0.00  0.00    -0.176 NA
ATOM     12  C   UNL     1      29.182 -22.881 -15.685  0.00  0.00    +0.056 C 
ATOM     13  C   UNL     1      28.211 -22.253 -14.943  0.00  0.00    +0.087 C 
ATOM     14  C   UNL     1      28.490 -23.409 -16.793  0.00  0.00    +0.121 C 
ATOM     15  C   UNL     1      25.740 -21.953 -15.235  0.00  0.00    +0.140 C 
ENDBRANCH   5  12
BRANCH   7  16
ATOM     16  S   UNL     1      33.835 -23.610 -18.423  0.00  0.00    -0.051 S 
BRANCH  16  19
ATOM     17  N   UNL     1      37.072 -18.958 -20.229  0.00  0.00    -0.248 NA
ATOM     18  C   UNL     1      35.101 -20.325 -20.463  0.00  0.00    -0.003 C 
ATOM     19  C   UNL     1      34.796 -22.215 -18.971  0.00  0.00    +0.011 C 
ATOM     20  C   UNL     1      36.324 -20.006 -19.836  0.00  0.00    +0.060 C 
ATOM     21  C   UNL     1      34.346 -21.427 -20.027  0.00  0.00    +0.060 C 
ATOM     22  C   UNL     1      35.999 -21.906 -18.349  0.00  0.00    -0.017 C 
ATOM     23  C   UNL     1      36.749 -20.811 -18.783  0.00  0.00    +0.072 C 
ATOM     24  C   UNL     1      34.673 -19.515 -21.523  0.00  0.00    -0.001 C 
ATOM     25  C   UNL     1      35.441 -18.434 -21.931  0.00  0.00    +0.020 C 
ATOM     26  C   UNL     1      36.622 -18.201 -21.256  0.00  0.00    +0.098 C 
ENDBRANCH  16  19
ENDBRANCH   7  16
TORSDOF 3
ENDMDL
MODEL 6
REMARK VINA RESULT:     -10.3      7.337     13.594
REMARK  Name = 24779724
REMARK  3 active torsions:
REMARK  status: ('A' for Active; 'I' for Inactive)
REMARK    1  A    between atoms: C_5  and  C_12
REMARK    2  A    between atoms: C_7  and  S_16
REMARK    3  A    between atoms: S_16  and  C_19
REMARK                            x       y       z     vdW  Elec       q    Type
REMARK                         _______ _______ _______ _____ _____    ______ ____
ROOT
ATOM      1  N   UNL     1      32.044  -8.905 -20.909  0.00  0.00    -0.186 N 
ATOM      2  N   UNL     1      32.315  -8.527 -22.183  0.00  0.00    -0.162 NA
ATOM      3  N   UNL     1      31.931  -8.927 -18.716  0.00  0.00    -0.126 NA
ATOM      4  N   UNL     1      31.305 -10.059 -19.198  0.00  0.00    -0.120 NA
ATOM      5  C   UNL     1      32.956  -7.396 -22.271  0.00  0.00    +0.104 C 
ATOM      6  C   UNL     1      32.371  -8.242 -19.750  0.00  0.00    +0.187 A 
ATOM      7  C   UNL     1      31.383 -10.031 -20.510  0.00  0.00    +0.217 A 
ATOM      8  C   UNL     1      33.392  -6.575 -21.095  0.00  0.00    +0.024 C 
ATOM      9  C   UNL     1      33.079  -7.030 -19.875  0.00  0.00    +0.042 C 
ENDROOT
BRANCH   5  12
ATOM     10  N   UNL     1      34.390  -5.987 -25.295  0.00  0.00    -0.208 N 
ATOM     11  N   UNL     1      33.179  -6.257 -25.812  0.00  0.00    -0.176 NA
ATOM     12  C   UNL     1      33.308  -6.871 -23.615  0.00  0.00    +0.056 C 
ATOM     13  C   UNL     1      34.518  -6.335 -23.982  0.00  0.00    +0.087 C 
ATOM     14  C   UNL     1      32.523  -6.797 -24.782  0.00  0.00    +0.121 C 
ATOM     15  C   UNL     1      35.405  -5.382 -26.124  0.00  0.00    +0.140 C 
ENDBRANCH   5  12
BRANCH   7  16
ATOM     16  S   UNL     1      30.739 -11.251 -21.643  0.00  0.00    -0.051 S 
BRANCH  16  19
ATOM     17  N   UNL     1      34.741 -15.609 -21.031  0.00  0.00    -0.248 NA
ATOM     18  C   UNL     1      33.446 -14.174 -22.470  0.00  0.00    -0.003 C 
ATOM     19  C   UNL     1      31.938 -12.556 -21.471  0.00  0.00    +0.011 C 
ATOM     20  C   UNL     1      33.838 -14.624 -21.192  0.00  0.00    +0.060 C 
ATOM     21  C   UNL     1      32.500 -13.144 -22.601  0.00  0.00    +0.060 C 
ATOM     22  C   UNL     1      32.319 -12.994 -20.210  0.00  0.00    -0.017 C 
ATOM     23  C   UNL     1      33.260 -14.019 -20.079  0.00  0.00    +0.072 C 
ATOM     24  C   UNL     1      34.028 -14.784 -23.590  0.00  0.00    -0.001 C 
ATOM     25  C   UNL     1      34.959 -15.799 -23.428  0.00  0.00    +0.020 C 
ATOM     26  C   UNL     1      35.279 -16.171 -22.138  0.00  0.00    +0.098 C 
ENDBRANCH  16  19
ENDBRANCH   7  16
TORSDOF 3
ENDMDL
MODEL 7
REMARK VINA RESULT:     -10.3      6.136     12.615
REMARK  Name = 24779724
REMARK  3 active torsions:
REMARK  status: ('A' for Active; 'I' for Inactive)
REMARK    1  A    between atoms: C_5  and  C_12
REMARK    2  A    between atoms: C_7  and  S_16
REMARK    3  A    between atoms: S_16  and  C_19
REMARK                            x       y       z     vdW  Elec       q    Type
REMARK                         _______ _______ _______ _____ _____    ______ ____
ROOT
ATOM      1  N   UNL     1      32.650 -10.845 -22.374  0.00  0.00    -0.186 N 
ATOM      2  N   UNL     1      33.360  -9.923 -23.071  0.00  0.00    -0.162 NA
ATOM      3  N   UNL     1      31.268 -11.769 -20.940  0.00  0.00    -0.126 NA
ATOM      4  N   UNL     1      31.856 -12.769 -21.688  0.00  0.00    -0.120 NA
ATOM      5  C   UNL     1      33.127  -8.694 -22.706  0.00  0.00    +0.104 C 
ATOM      6  C   UNL     1      31.751 -10.619 -21.359  0.00  0.00    +0.187 A 
ATOM      7  C   UNL     1      32.680 -12.200 -22.538  0.00  0.00    +0.217 A 
ATOM      8  C   UNL     1      32.188  -8.300 -21.605  0.00  0.00    +0.024 C 
ATOM      9  C   UNL     1      31.532  -9.281 -20.974  0.00  0.00    +0.042 C 
ENDROOT
BRANCH   5  12
ATOM     10  N   UNL     1      34.295  -5.861 -24.655  0.00  0.00    -0.208 N 
ATOM     11  N   UNL     1      35.483  -6.168 -24.105  0.00  0.00    -0.176 NA
ATOM     12  C   UNL     1      33.840  -7.590 -23.398  0.00  0.00    +0.056 C 
ATOM     13  C   UNL     1      33.279  -6.684 -24.264  0.00  0.00    +0.087 C 
ATOM     14  C   UNL     1      35.199  -7.224 -23.338  0.00  0.00    +0.121 C 
ATOM     15  C   UNL     1      34.193  -4.747 -25.567  0.00  0.00    +0.140 C 
ENDBRANCH   5  12
BRANCH   7  16
ATOM     16  S   UNL     1      33.703 -13.025 -23.748  0.00  0.00    -0.051 S 
BRANCH  16  19
ATOM     17  N   UNL     1      35.508 -17.775 -20.655  0.00  0.00    -0.248 NA
ATOM     18  C   UNL     1      34.823 -16.809 -22.753  0.00  0.00    -0.003 C 
ATOM     19  C   UNL     1      34.244 -14.453 -22.831  0.00  0.00    +0.011 C 
ATOM     20  C   UNL     1      35.099 -16.713 -21.373  0.00  0.00    +0.060 C 
ATOM     21  C   UNL     1      34.397 -15.679 -23.472  0.00  0.00    +0.060 C 
ATOM     22  C   UNL     1      34.514 -14.351 -21.473  0.00  0.00    -0.017 C 
ATOM     23  C   UNL     1      34.937 -15.474 -20.758  0.00  0.00    +0.072 C 
ATOM     24  C   UNL     1      34.986 -18.055 -23.373  0.00  0.00    -0.001 C 
ATOM     25  C   UNL     1      35.407 -19.152 -22.636  0.00  0.00    +0.020 C 
ATOM     26  C   UNL     1      35.653 -18.960 -21.291  0.00  0.00    +0.098 C 
ENDBRANCH  16  19
ENDBRANCH   7  16
TORSDOF 3
ENDMDL
MODEL 8
REMARK VINA RESULT:     -10.1      2.297      9.345
REMARK  Name = 24779724
REMARK  3 active torsions:
REMARK  status: ('A' for Active; 'I' for Inactive)
REMARK    1  A    between atoms: C_5  and  C_12
REMARK    2  A    between atoms: C_7  and  S_16
REMARK    3  A    between atoms: S_16  and  C_19
REMARK                            x       y       z     vdW  Elec       q    Type
REMARK                         _______ _______ _______ _____ _____    ______ ____
ROOT
ATOM      1  N   UNL     1      35.380 -20.183 -20.217  0.00  0.00    -0.186 N 
ATOM      2  N   UNL     1      34.702 -19.622 -21.249  0.00  0.00    -0.162 NA
ATOM      3  N   UNL     1      36.977 -20.691 -18.798  0.00  0.00    -0.126 NA
ATOM      4  N   UNL     1      35.845 -21.402 -18.456  0.00  0.00    -0.120 NA
ATOM      5  C   UNL     1      35.410 -18.780 -21.948  0.00  0.00    +0.104 C 
ATOM      6  C   UNL     1      36.688 -19.963 -19.856  0.00  0.00    +0.187 A 
ATOM      7  C   UNL     1      34.901 -21.088 -19.315  0.00  0.00    +0.217 A 
ATOM      8  C   UNL     1      36.849 -18.456 -21.682  0.00  0.00    +0.024 C 
ATOM      9  C   UNL     1      37.434 -19.061 -20.641  0.00  0.00    +0.042 C 
ENDROOT
BRANCH   5  12
ATOM     10  N   UNL     1      34.078 -16.563 -24.498  0.00  0.00    -0.208 N 
ATOM     11  N   UNL     1      33.639 -17.708 -25.048  0.00  0.00    -0.176 NA
ATOM     12  C   UNL     1      34.777 -18.095 -23.104  0.00  0.00    +0.056 C 
ATOM     13  C   UNL     1      34.765 -16.740 -23.332  0.00  0.00    +0.087 C 
ATOM     14  C   UNL     1      34.069 -18.640 -24.193  0.00  0.00    +0.121 C 
ATOM     15  C   UNL     1      33.803 -15.304 -25.147  0.00  0.00    +0.140 C 
ENDBRANCH   5  12
BRANCH   7  16
ATOM     16  S   UNL     1      33.230 -21.717 -19.341  0.00  0.00    -0.051 S 
BRANCH  16  19
ATOM     17  N   UNL     1      32.853 -24.157 -13.929  0.00  0.00    -0.248 NA
ATOM     18  C   UNL     1      31.781 -23.040 -15.775  0.00  0.00    -0.003 C 
ATOM     19  C   UNL     1      33.106 -22.446 -17.721  0.00  0.00    +0.011 C 
ATOM     20  C   UNL     1      32.916 -23.601 -15.153  0.00  0.00    +0.060 C 
ATOM     21  C   UNL     1      31.884 -22.467 -17.054  0.00  0.00    +0.060 C 
ATOM     22  C   UNL     1      34.227 -22.996 -17.113  0.00  0.00    -0.017 C 
ATOM     23  C   UNL     1      34.126 -23.566 -15.842  0.00  0.00    +0.072 C 
ATOM     24  C   UNL     1      30.564 -23.075 -15.082  0.00  0.00    -0.001 C 
ATOM     25  C   UNL     1      30.495 -23.648 -13.820  0.00  0.00    +0.020 C 
ATOM     26  C   UNL     1      31.659 -24.171 -13.293  0.00  0.00    +0.098 C 
ENDBRANCH  16  19
ENDBRANCH   7  16
TORSDOF 3
ENDMDL
MODEL 9
REMARK VINA RESULT:     -10.1      3.176     10.078
REMARK  Name = 24779724
REMARK  3 active torsions:
REMARK  status: ('A' for Active; 'I' for Inactive)
REMARK    1  A    between atoms: C_5  and  C_12
REMARK    2  A    between atoms: C_7  and  S_16
REMARK    3  A    between atoms: S_16  and  C_19
REMARK                            x       y       z     vdW  Elec       q    Type
REMARK                         _______ _______ _______ _____ _____    ______ ____
ROOT
ATOM      1  N   UNL     1      34.387 -15.867 -23.580  0.00  0.00    -0.186 N 
ATOM      2  N   UNL     1      34.306 -14.590 -23.132  0.00  0.00    -0.162 NA
ATOM      3  N   UNL     1      34.152 -17.665 -24.819  0.00  0.00    -0.126 NA
ATOM      4  N   UNL     1      34.892 -17.997 -23.702  0.00  0.00    -0.120 NA
ATOM      5  C   UNL     1      33.642 -13.796 -23.924  0.00  0.00    +0.104 C 
ATOM      6  C   UNL     1      33.854 -16.386 -24.737  0.00  0.00    +0.187 A 
ATOM      7  C   UNL     1      35.022 -16.912 -22.972  0.00  0.00    +0.217 A 
ATOM      8  C   UNL     1      32.992 -14.226 -25.205  0.00  0.00    +0.024 C 
ATOM      9  C   UNL     1      33.126 -15.509 -25.564  0.00  0.00    +0.042 C 
ENDROOT
BRANCH   5  12
ATOM     10  N   UNL     1      32.760 -10.510 -22.654  0.00  0.00    -0.208 N 
ATOM     11  N   UNL     1      33.814 -10.112 -23.388  0.00  0.00    -0.176 NA
ATOM     12  C   UNL     1      33.487 -12.368 -23.546  0.00  0.00    +0.056 C 
ATOM     13  C   UNL     1      32.522 -11.852 -22.716  0.00  0.00    +0.087 C 
ATOM     14  C   UNL     1      34.254 -11.251 -23.930  0.00  0.00    +0.121 C 
ATOM     15  C   UNL     1      32.004  -9.539 -21.901  0.00  0.00    +0.140 C 
ENDBRANCH   5  12
BRANCH   7  16
ATOM     16  S   UNL     1      35.888 -16.770 -21.416  0.00  0.00    -0.051 S 
BRANCH  16  19
ATOM     17  N   UNL     1      35.403 -22.301 -19.280  0.00  0.00    -0.248 NA
ATOM     18  C   UNL     1      34.344 -20.265 -20.016  0.00  0.00    -0.003 C 
ATOM     19  C   UNL     1      35.731 -18.425 -20.777  0.00  0.00    +0.011 C 
ATOM     20  C   UNL     1      35.491 -21.048 -19.764  0.00  0.00    +0.060 C 
ATOM     21  C   UNL     1      34.473 -18.961 -20.521  0.00  0.00    +0.060 C 
ATOM     22  C   UNL     1      36.865 -19.190 -20.531  0.00  0.00    -0.017 C 
ATOM     23  C   UNL     1      36.737 -20.487 -20.029  0.00  0.00    +0.072 C 
ATOM     24  C   UNL     1      33.090 -20.829 -19.749  0.00  0.00    -0.001 C 
ATOM     25  C   UNL     1      32.996 -22.121 -19.250  0.00  0.00    +0.020 C 
ATOM     26  C   UNL     1      34.174 -22.808 -19.035  0.00  0.00    +0.098 C 
ENDBRANCH  16  19
ENDBRANCH   7  16
TORSDOF 3
ENDMDL
