MODEL 1
REMARK VINA RESULT:     -10.9      0.000      0.000
REMARK  Name = 9892540
REMARK  6 active torsions:
REMARK  status: ('A' for Active; 'I' for Inactive)
REMARK    1  A    between atoms: C_1  and  N_2
REMARK    2  A    between atoms: C_1  and  C_16
REMARK    3  A    between atoms: N_3  and  C_10
REMARK    4  A    between atoms: C_16  and  C_17
REMARK    5  A    between atoms: C_17  and  N_19
REMARK    6  A    between atoms: C_26  and  O_29
REMARK                            x       y       z     vdW  Elec       q    Type
REMARK                         _______ _______ _______ _____ _____    ______ ____
ROOT
ATOM      1  C   UNL     1      35.069 -16.186 -24.197  0.00  0.00    -0.075 C 
ENDROOT
BRANCH   1   2
ATOM      2  N   UNL     1      35.362 -17.332 -23.337  0.00  0.00    +0.389 N 
ATOM      3  N   UNL     1      34.841 -19.257 -21.291  0.00  0.00    -0.312 N 
ATOM      4  C   UNL     1      35.353 -16.931 -21.925  0.00  0.00    -0.055 C 
ATOM      5  C   UNL     1      34.383 -18.404 -23.556  0.00  0.00    -0.055 C 
ATOM      6  C   UNL     1      35.715 -18.109 -21.017  0.00  0.00    +0.068 C 
ATOM      7  C   UNL     1      34.711 -19.632 -22.702  0.00  0.00    +0.068 C 
ATOM      8  H   UNL     1      36.291 -17.681 -23.575  0.00  0.00    -0.080 HD
BRANCH   3  10
ATOM      9 CL   UNL     1      37.048 -22.074 -17.593  0.00  0.00    -0.082 Cl
ATOM     10  C   UNL     1      34.709 -20.234 -20.298  0.00  0.00    +0.049 C 
ATOM     11  C   UNL     1      35.814 -20.633 -19.520  0.00  0.00    +0.026 C 
ATOM     12  C   UNL     1      33.466 -20.850 -20.047  0.00  0.00    +0.015 C 
ATOM     13  C   UNL     1      35.682 -21.606 -18.530  0.00  0.00    +0.059 C 
ATOM     14  C   UNL     1      33.334 -21.823 -19.057  0.00  0.00    +0.002 C 
ATOM     15  C   UNL     1      34.441 -22.201 -18.298  0.00  0.00    +0.011 C 
ENDBRANCH   3  10
ENDBRANCH   1   2
BRANCH   1  16
ATOM     16  C   UNL     1      34.031 -15.251 -23.570  0.00  0.00    -0.001 C 
BRANCH  16  17
ATOM     17  C   UNL     1      34.624 -14.110 -22.747  0.00  0.00    +0.096 C 
BRANCH  17  19
ATOM     18  O   UNL     1      33.503 -14.887 -20.273  0.00  0.00    -0.275 OA
ATOM     19  N   UNL     1      33.606 -13.351 -22.028  0.00  0.00    -0.259 N 
ATOM     20  C   UNL     1      33.161 -12.100 -22.569  0.00  0.00    +0.053 C 
ATOM     21  C   UNL     1      32.371 -11.246 -21.779  0.00  0.00    +0.026 C 
ATOM     22  C   UNL     1      32.053 -11.626 -20.363  0.00  0.00    +0.040 C 
ATOM     23  C   UNL     1      31.901 -13.128 -20.258  0.00  0.00    +0.090 C 
ATOM     24  C   UNL     1      33.098 -13.861 -20.826  0.00  0.00    +0.230 C 
ATOM     25  C   UNL     1      33.512 -11.681 -23.863  0.00  0.00    +0.015 C 
ATOM     26  C   UNL     1      31.953 -10.005 -22.278  0.00  0.00    +0.136 C 
ATOM     27  C   UNL     1      33.079 -10.449 -24.358  0.00  0.00    +0.004 C 
ATOM     28  C   UNL     1      32.300  -9.611 -23.567  0.00  0.00    +0.037 C 
BRANCH  26  29
ATOM     29  O   UNL     1      31.190  -9.160 -21.525  0.00  0.00    -0.472 OA
ATOM     30  C   UNL     1      31.548  -7.780 -21.538  0.00  0.00    +0.252 C 
ENDBRANCH  26  29
ENDBRANCH  17  19
ENDBRANCH  16  17
ENDBRANCH   1  16
TORSDOF 6
ENDMDL
MODEL 2
REMARK VINA RESULT:     -10.9      1.626      2.428
REMARK  Name = 9892540
REMARK  6 active torsions:
REMARK  status: ('A' for Active; 'I' for Inactive)
REMARK    1  A    between atoms: C_1  and  N_2
REMARK    2  A    between atoms: C_1  and  C_16
REMARK    3  A    between atoms: N_3  and  C_10
REMARK    4  A    between atoms: C_16  and  C_17
REMARK    5  A    between atoms: C_17  and  N_19
REMARK    6  A    between atoms: C_26  and  O_29
REMARK                            x       y       z     vdW  Elec       q    Type
REMARK                         _______ _______ _______ _____ _____    ______ ____
ROOT
ATOM      1  C   UNL     1      34.226 -14.122 -23.846  0.00  0.00    -0.075 C 
ENDROOT
BRANCH   1   2
ATOM      2  N   UNL     1      34.915 -15.211 -23.154  0.00  0.00    +0.389 N 
ATOM      3  N   UNL     1      35.115 -17.640 -21.663  0.00  0.00    -0.312 N 
ATOM      4  C   UNL     1      34.528 -15.248 -21.738  0.00  0.00    -0.055 C 
ATOM      5  C   UNL     1      34.609 -16.499 -23.787  0.00  0.00    -0.055 C 
ATOM      6  C   UNL     1      35.286 -16.347 -20.989  0.00  0.00    +0.068 C 
ATOM      7  C   UNL     1      35.368 -17.642 -23.106  0.00  0.00    +0.068 C 
ATOM      8  H   UNL     1      35.919 -15.044 -23.216  0.00  0.00    -0.080 HD
BRANCH   3  10
ATOM      9 CL   UNL     1      33.165 -21.822 -19.385  0.00  0.00    -0.082 Cl
ATOM     10  C   UNL     1      35.336 -18.804 -20.918  0.00  0.00    +0.049 C 
ATOM     11  C   UNL     1      34.268 -19.648 -20.555  0.00  0.00    +0.026 C 
ATOM     12  C   UNL     1      36.635 -19.168 -20.508  0.00  0.00    +0.015 C 
ATOM     13  C   UNL     1      34.488 -20.808 -19.814  0.00  0.00    +0.059 C 
ATOM     14  C   UNL     1      36.856 -20.328 -19.766  0.00  0.00    +0.002 C 
ATOM     15  C   UNL     1      35.783 -21.149 -19.420  0.00  0.00    +0.011 C 
ENDBRANCH   3  10
ENDBRANCH   1   2
BRANCH   1  16
ATOM     16  C   UNL     1      33.871 -12.975 -22.895  0.00  0.00    -0.001 C 
BRANCH  16  17
ATOM     17  C   UNL     1      32.392 -12.594 -22.891  0.00  0.00    +0.096 C 
BRANCH  17  19
ATOM     18  O   UNL     1      31.842 -13.203 -20.188  0.00  0.00    -0.275 OA
ATOM     19  N   UNL     1      32.074 -11.601 -21.870  0.00  0.00    -0.259 N 
ATOM     20  C   UNL     1      32.079 -10.212 -22.226  0.00  0.00    +0.053 C 
ATOM     21  C   UNL     1      32.017  -9.238 -21.213  0.00  0.00    +0.026 C 
ATOM     22  C   UNL     1      32.006  -9.661 -19.774  0.00  0.00    +0.040 C 
ATOM     23  C   UNL     1      31.254 -10.967 -19.631  0.00  0.00    +0.090 C 
ATOM     24  C   UNL     1      31.780 -12.032 -20.570  0.00  0.00    +0.230 C 
ATOM     25  C   UNL     1      32.173  -9.785 -23.561  0.00  0.00    +0.015 C 
ATOM     26  C   UNL     1      32.053  -7.875 -21.539  0.00  0.00    +0.136 C 
ATOM     27  C   UNL     1      32.194  -8.425 -23.878  0.00  0.00    +0.004 C 
ATOM     28  C   UNL     1      32.134  -7.470 -22.868  0.00  0.00    +0.037 C 
BRANCH  26  29
ATOM     29  O   UNL     1      31.999  -6.915 -20.570  0.00  0.00    -0.472 OA
ATOM     30  C   UNL     1      32.481  -5.618 -20.917  0.00  0.00    +0.252 C 
ENDBRANCH  26  29
ENDBRANCH  17  19
ENDBRANCH  16  17
ENDBRANCH   1  16
TORSDOF 6
ENDMDL
MODEL 3
REMARK VINA RESULT:     -10.9      3.751      9.878
REMARK  Name = 9892540
REMARK  6 active torsions:
REMARK  status: ('A' for Active; 'I' for Inactive)
REMARK    1  A    between atoms: C_1  and  N_2
REMARK    2  A    between atoms: C_1  and  C_16
REMARK    3  A    between atoms: N_3  and  C_10
REMARK    4  A    between atoms: C_16  and  C_17
REMARK    5  A    between atoms: C_17  and  N_19
REMARK    6  A    between atoms: C_26  and  O_29
REMARK                            x       y       z     vdW  Elec       q    Type
REMARK                         _______ _______ _______ _____ _____    ______ ____
ROOT
ATOM      1  C   UNL     1      36.090 -18.070 -22.063  0.00  0.00    -0.075 C 
ENDROOT
BRANCH   1   2
ATOM      2  N   UNL     1      35.703 -16.662 -21.981  0.00  0.00    +0.389 N 
ATOM      3  N   UNL     1      33.886 -14.461 -21.844  0.00  0.00    -0.312 N 
ATOM      4  C   UNL     1      34.912 -16.276 -23.157  0.00  0.00    -0.055 C 
ATOM      5  C   UNL     1      34.931 -16.410 -20.758  0.00  0.00    -0.055 C 
ATOM      6  C   UNL     1      34.549 -14.790 -23.111  0.00  0.00    +0.068 C 
ATOM      7  C   UNL     1      34.567 -14.928 -20.632  0.00  0.00    +0.068 C 
ATOM      8  H   UNL     1      36.552 -16.098 -21.957  0.00  0.00    -0.080 HD
BRANCH   3  10
ATOM      9 CL   UNL     1      32.548  -9.974 -23.978  0.00  0.00    -0.082 Cl
ATOM     10  C   UNL     1      33.097 -13.306 -21.794  0.00  0.00    +0.049 C 
ATOM     11  C   UNL     1      33.195 -12.317 -22.793  0.00  0.00    +0.026 C 
ATOM     12  C   UNL     1      32.181 -13.097 -20.744  0.00  0.00    +0.015 C 
ATOM     13  C   UNL     1      32.408 -11.167 -22.745  0.00  0.00    +0.059 C 
ATOM     14  C   UNL     1      31.394 -11.947 -20.695  0.00  0.00    +0.002 C 
ATOM     15  C   UNL     1      31.507 -10.982 -21.696  0.00  0.00    +0.011 C 
ENDBRANCH   3  10
ENDBRANCH   1   2
BRANCH   1  16
ATOM     16  C   UNL     1      36.430 -18.650 -20.687  0.00  0.00    -0.001 C 
BRANCH  16  17
ATOM     17  C   UNL     1      36.396 -20.175 -20.619  0.00  0.00    +0.096 C 
BRANCH  17  19
ATOM     18  O   UNL     1      33.692 -20.001 -21.418  0.00  0.00    -0.275 OA
ATOM     19  N   UNL     1      35.270 -20.675 -19.835  0.00  0.00    -0.259 N 
ATOM     20  C   UNL     1      35.530 -21.345 -18.595  0.00  0.00    +0.053 C 
ATOM     21  C   UNL     1      34.490 -22.041 -17.954  0.00  0.00    +0.026 C 
ATOM     22  C   UNL     1      33.140 -22.125 -18.602  0.00  0.00    +0.040 C 
ATOM     23  C   UNL     1      32.855 -20.844 -19.357  0.00  0.00    +0.090 C 
ATOM     24  C   UNL     1      33.969 -20.494 -20.322  0.00  0.00    +0.230 C 
ATOM     25  C   UNL     1      36.805 -21.354 -18.005  0.00  0.00    +0.015 C 
ATOM     26  C   UNL     1      34.732 -22.729 -16.756  0.00  0.00    +0.136 C 
ATOM     27  C   UNL     1      37.034 -22.029 -16.805  0.00  0.00    +0.004 C 
ATOM     28  C   UNL     1      35.998 -22.717 -16.180  0.00  0.00    +0.037 C 
BRANCH  26  29
ATOM     29  O   UNL     1      33.737 -23.414 -16.121  0.00  0.00    -0.472 OA
ATOM     30  C   UNL     1      33.704 -23.336 -14.698  0.00  0.00    +0.252 C 
ENDBRANCH  26  29
ENDBRANCH  17  19
ENDBRANCH  16  17
ENDBRANCH   1  16
TORSDOF 6
ENDMDL
MODEL 4
REMARK VINA RESULT:     -10.8      4.904     11.305
REMARK  Name = 9892540
REMARK  6 active torsions:
REMARK  status: ('A' for Active; 'I' for Inactive)
REMARK    1  A    between atoms: C_1  and  N_2
REMARK    2  A    between atoms: C_1  and  C_16
REMARK    3  A    between atoms: N_3  and  C_10
REMARK    4  A    between atoms: C_16  and  C_17
REMARK    5  A    between atoms: C_17  and  N_19
REMARK    6  A    between atoms: C_26  and  O_29
REMARK                            x       y       z     vdW  Elec       q    Type
REMARK                         _______ _______ _______ _____ _____    ______ ____
ROOT
ATOM      1  C   UNL     1      35.519 -21.998 -18.681  0.00  0.00    -0.075 C 
ENDROOT
BRANCH   1   2
ATOM      2  N   UNL     1      35.518 -21.130 -19.859  0.00  0.00    +0.389 N 
ATOM      3  N   UNL     1      35.188 -18.681 -21.293  0.00  0.00    -0.312 N 
ATOM      4  C   UNL     1      34.176 -20.580 -20.092  0.00  0.00    -0.055 C 
ATOM      5  C   UNL     1      36.482 -20.036 -19.694  0.00  0.00    -0.055 C 
ATOM      6  C   UNL     1      34.149 -19.716 -21.355  0.00  0.00    +0.068 C 
ATOM      7  C   UNL     1      36.531 -19.152 -20.943  0.00  0.00    +0.068 C 
ATOM      8  H   UNL     1      35.789 -21.690 -20.667  0.00  0.00    -0.080 HD
BRANCH   3  10
ATOM      9 CL   UNL     1      34.637 -13.576 -21.630  0.00  0.00    -0.082 Cl
ATOM     10  C   UNL     1      35.039 -17.550 -22.103  0.00  0.00    +0.049 C 
ATOM     11  C   UNL     1      34.923 -16.264 -21.539  0.00  0.00    +0.026 C 
ATOM     12  C   UNL     1      34.999 -17.662 -23.507  0.00  0.00    +0.015 C 
ATOM     13  C   UNL     1      34.775 -15.136 -22.345  0.00  0.00    +0.059 C 
ATOM     14  C   UNL     1      34.850 -16.535 -24.314  0.00  0.00    +0.002 C 
ATOM     15  C   UNL     1      34.740 -15.271 -23.734  0.00  0.00    +0.011 C 
ENDBRANCH   3  10
ENDBRANCH   1   2
BRANCH   1  16
ATOM     16  C   UNL     1      34.127 -22.111 -18.054  0.00  0.00    -0.001 C 
BRANCH  16  17
ATOM     17  C   UNL     1      33.810 -23.484 -17.465  0.00  0.00    +0.096 C 
BRANCH  17  19
ATOM     18  O   UNL     1      31.226 -22.854 -16.516  0.00  0.00    -0.275 OA
ATOM     19  N   UNL     1      33.443 -23.417 -16.054  0.00  0.00    -0.259 N 
ATOM     20  C   UNL     1      34.431 -23.733 -15.063  0.00  0.00    +0.053 C 
ATOM     21  C   UNL     1      34.036 -23.910 -13.725  0.00  0.00    +0.026 C 
ATOM     22  C   UNL     1      32.584 -23.826 -13.361  0.00  0.00    +0.040 C 
ATOM     23  C   UNL     1      31.895 -22.799 -14.234  0.00  0.00    +0.090 C 
ATOM     24  C   UNL     1      32.135 -23.054 -15.707  0.00  0.00    +0.230 C 
ATOM     25  C   UNL     1      35.787 -23.899 -15.389  0.00  0.00    +0.015 C 
ATOM     26  C   UNL     1      34.982 -24.250 -12.747  0.00  0.00    +0.136 C 
ATOM     27  C   UNL     1      36.725 -24.224 -14.407  0.00  0.00    +0.004 C 
ATOM     28  C   UNL     1      36.323 -24.399 -13.087  0.00  0.00    +0.037 C 
BRANCH  26  29
ATOM     29  O   UNL     1      34.618 -24.432 -11.445  0.00  0.00    -0.472 OA
ATOM     30  C   UNL     1      35.670 -24.534 -10.488  0.00  0.00    +0.252 C 
ENDBRANCH  26  29
ENDBRANCH  17  19
ENDBRANCH  16  17
ENDBRANCH   1  16
TORSDOF 6
ENDMDL
MODEL 5
REMARK VINA RESULT:     -10.7      3.859     10.356
REMARK  Name = 9892540
REMARK  6 active torsions:
REMARK  status: ('A' for Active; 'I' for Inactive)
REMARK    1  A    between atoms: C_1  and  N_2
REMARK    2  A    between atoms: C_1  and  C_16
REMARK    3  A    between atoms: N_3  and  C_10
REMARK    4  A    between atoms: C_16  and  C_17
REMARK    5  A    between atoms: C_17  and  N_19
REMARK    6  A    between atoms: C_26  and  O_29
REMARK                            x       y       z     vdW  Elec       q    Type
REMARK                         _______ _______ _______ _____ _____    ______ ____
ROOT
ATOM      1  C   UNL     1      35.690 -19.562 -21.687  0.00  0.00    -0.075 C 
ENDROOT
BRANCH   1   2
ATOM      2  N   UNL     1      35.636 -18.115 -21.892  0.00  0.00    +0.389 N 
ATOM      3  N   UNL     1      34.374 -15.581 -22.276  0.00  0.00    -0.312 N 
ATOM      4  C   UNL     1      34.973 -17.800 -23.164  0.00  0.00    -0.055 C 
ATOM      5  C   UNL     1      34.925 -17.464 -20.786  0.00  0.00    -0.055 C 
ATOM      6  C   UNL     1      34.962 -16.291 -23.418  0.00  0.00    +0.068 C 
ATOM      7  C   UNL     1      34.910 -15.943 -20.960  0.00  0.00    +0.068 C 
ATOM      8  H   UNL     1      36.592 -17.762 -21.923  0.00  0.00    -0.080 HD
BRANCH   3  10
ATOM      9 CL   UNL     1      31.412 -11.706 -20.637  0.00  0.00    -0.082 Cl
ATOM     10  C   UNL     1      33.871 -14.293 -22.490  0.00  0.00    +0.049 C 
ATOM     11  C   UNL     1      32.988 -13.696 -21.568  0.00  0.00    +0.026 C 
ATOM     12  C   UNL     1      34.232 -13.553 -23.633  0.00  0.00    +0.015 C 
ATOM     13  C   UNL     1      32.488 -12.412 -21.780  0.00  0.00    +0.059 C 
ATOM     14  C   UNL     1      33.732 -12.269 -23.847  0.00  0.00    +0.002 C 
ATOM     15  C   UNL     1      32.860 -11.697 -22.919  0.00  0.00    +0.011 C 
ENDBRANCH   3  10
ENDBRANCH   1   2
BRANCH   1  16
ATOM     16  C   UNL     1      35.247 -19.956 -20.275  0.00  0.00    -0.001 C 
BRANCH  16  17
ATOM     17  C   UNL     1      35.580 -21.395 -19.886  0.00  0.00    +0.096 C 
BRANCH  17  19
ATOM     18  O   UNL     1      32.796 -21.873 -19.901  0.00  0.00    -0.275 OA
ATOM     19  N   UNL     1      34.816 -21.853 -18.730  0.00  0.00    -0.259 N 
ATOM     20  C   UNL     1      35.508 -22.132 -17.506  0.00  0.00    +0.053 C 
ATOM     21  C   UNL     1      34.835 -22.801 -16.468  0.00  0.00    +0.026 C 
ATOM     22  C   UNL     1      33.424 -23.266 -16.674  0.00  0.00    +0.040 C 
ATOM     23  C   UNL     1      32.687 -22.285 -17.561  0.00  0.00    +0.090 C 
ATOM     24  C   UNL     1      33.430 -22.017 -18.852  0.00  0.00    +0.230 C 
ATOM     25  C   UNL     1      36.854 -21.782 -17.315  0.00  0.00    +0.015 C 
ATOM     26  C   UNL     1      35.504 -23.110 -15.275  0.00  0.00    +0.136 C 
ATOM     27  C   UNL     1      37.510 -22.081 -16.118  0.00  0.00    +0.004 C 
ATOM     28  C   UNL     1      36.835 -22.744 -15.098  0.00  0.00    +0.037 C 
BRANCH  26  29
ATOM     29  O   UNL     1      34.870 -23.762 -14.258  0.00  0.00    -0.472 OA
ATOM     30  C   UNL     1      35.657 -24.652 -13.469  0.00  0.00    +0.252 C 
ENDBRANCH  26  29
ENDBRANCH  17  19
ENDBRANCH  16  17
ENDBRANCH   1  16
TORSDOF 6
ENDMDL
MODEL 6
REMARK VINA RESULT:     -10.4      4.535      7.651
REMARK  Name = 9892540
REMARK  6 active torsions:
REMARK  status: ('A' for Active; 'I' for Inactive)
REMARK    1  A    between atoms: C_1  and  N_2
REMARK    2  A    between atoms: C_1  and  C_16
REMARK    3  A    between atoms: N_3  and  C_10
REMARK    4  A    between atoms: C_16  and  C_17
REMARK    5  A    between atoms: C_17  and  N_19
REMARK    6  A    between atoms: C_26  and  O_29
REMARK                            x       y       z     vdW  Elec       q    Type
REMARK                         _______ _______ _______ _____ _____    ______ ____
ROOT
ATOM      1  C   UNL     1      31.521  -8.584 -21.988  0.00  0.00    -0.075 C 
ENDROOT
BRANCH   1   2
ATOM      2  N   UNL     1      32.321  -9.802 -22.110  0.00  0.00    +0.389 N 
ATOM      3  N   UNL     1      33.013 -12.374 -23.142  0.00  0.00    -0.312 N 
ATOM      4  C   UNL     1      31.519 -10.982 -21.763  0.00  0.00    -0.055 C 
ATOM      5  C   UNL     1      32.845  -9.939 -23.474  0.00  0.00    -0.055 C 
ATOM      6  C   UNL     1      32.362 -12.258 -21.831  0.00  0.00    +0.068 C 
ATOM      7  C   UNL     1      33.731 -11.182 -23.602  0.00  0.00    +0.068 C 
ATOM      8  H   UNL     1      33.106  -9.734 -21.462  0.00  0.00    -0.080 HD
BRANCH   3  10
ATOM      9 CL   UNL     1      35.535 -16.722 -22.039  0.00  0.00    -0.082 Cl
ATOM     10  C   UNL     1      33.439 -13.642 -23.554  0.00  0.00    +0.049 C 
ATOM     11  C   UNL     1      34.193 -14.469 -22.697  0.00  0.00    +0.026 C 
ATOM     12  C   UNL     1      33.128 -14.131 -24.839  0.00  0.00    +0.015 C 
ATOM     13  C   UNL     1      34.616 -15.732 -23.107  0.00  0.00    +0.059 C 
ATOM     14  C   UNL     1      33.552 -15.394 -25.249  0.00  0.00    +0.002 C 
ATOM     15  C   UNL     1      34.295 -16.196 -24.383  0.00  0.00    +0.011 C 
ENDBRANCH   3  10
ENDBRANCH   1   2
BRANCH   1  16
ATOM     16  C   UNL     1      31.786  -7.855 -20.667  0.00  0.00    -0.001 C 
BRANCH  16  17
ATOM     17  C   UNL     1      32.274  -6.417 -20.826  0.00  0.00    +0.096 C 
BRANCH  17  19
ATOM     18  O   UNL     1      29.885  -5.224 -21.747  0.00  0.00    -0.275 OA
ATOM     19  N   UNL     1      32.076  -5.905 -22.178  0.00  0.00    -0.259 N 
ATOM     20  C   UNL     1      33.166  -5.957 -23.108  0.00  0.00    +0.053 C 
ATOM     21  C   UNL     1      33.073  -5.254 -24.323  0.00  0.00    +0.026 C 
ATOM     22  C   UNL     1      31.864  -4.414 -24.606  0.00  0.00    +0.040 C 
ATOM     23  C   UNL     1      30.638  -5.060 -23.997  0.00  0.00    +0.090 C 
ATOM     24  C   UNL     1      30.829  -5.370 -22.527  0.00  0.00    +0.230 C 
ATOM     25  C   UNL     1      34.345  -6.668 -22.834  0.00  0.00    +0.015 C 
ATOM     26  C   UNL     1      34.142  -5.267 -25.231  0.00  0.00    +0.136 C 
ATOM     27  C   UNL     1      35.400  -6.687 -23.750  0.00  0.00    +0.004 C 
ATOM     28  C   UNL     1      35.298  -5.987 -24.948  0.00  0.00    +0.037 C 
BRANCH  26  29
ATOM     29  O   UNL     1      34.072  -4.588 -26.413  0.00  0.00    -0.472 OA
ATOM     30  C   UNL     1      33.910  -5.365 -27.597  0.00  0.00    +0.252 C 
ENDBRANCH  26  29
ENDBRANCH  17  19
ENDBRANCH  16  17
ENDBRANCH   1  16
TORSDOF 6
ENDMDL
MODEL 7
REMARK VINA RESULT:     -10.3      2.338      4.071
REMARK  Name = 9892540
REMARK  6 active torsions:
REMARK  status: ('A' for Active; 'I' for Inactive)
REMARK    1  A    between atoms: C_1  and  N_2
REMARK    2  A    between atoms: C_1  and  C_16
REMARK    3  A    between atoms: N_3  and  C_10
REMARK    4  A    between atoms: C_16  and  C_17
REMARK    5  A    between atoms: C_17  and  N_19
REMARK    6  A    between atoms: C_26  and  O_29
REMARK                            x       y       z     vdW  Elec       q    Type
REMARK                         _______ _______ _______ _____ _____    ______ ____
ROOT
ATOM      1  C   UNL     1      35.857 -19.700 -21.431  0.00  0.00    -0.075 C 
ENDROOT
BRANCH   1   2
ATOM      2  N   UNL     1      35.190 -20.727 -20.631  0.00  0.00    +0.389 N 
ATOM      3  N   UNL     1      34.027 -21.851 -18.276  0.00  0.00    -0.312 N 
ATOM      4  C   UNL     1      36.039 -21.133 -19.505  0.00  0.00    -0.055 C 
ATOM      5  C   UNL     1      33.901 -20.234 -20.131  0.00  0.00    -0.055 C 
ATOM      6  C   UNL     1      35.377 -22.249 -18.693  0.00  0.00    +0.068 C 
ATOM      7  C   UNL     1      33.167 -21.319 -19.338  0.00  0.00    +0.068 C 
ATOM      8  H   UNL     1      35.024 -21.537 -21.228  0.00  0.00    -0.080 HD
BRANCH   3  10
ATOM      9 CL   UNL     1      34.687 -24.594 -13.973  0.00  0.00    -0.082 Cl
ATOM     10  C   UNL     1      33.452 -22.512 -17.185  0.00  0.00    +0.049 C 
ATOM     11  C   UNL     1      34.255 -23.157 -16.223  0.00  0.00    +0.026 C 
ATOM     12  C   UNL     1      32.054 -22.555 -17.016  0.00  0.00    +0.015 C 
ATOM     13  C   UNL     1      33.683 -23.815 -15.135  0.00  0.00    +0.059 C 
ATOM     14  C   UNL     1      31.482 -23.214 -15.928  0.00  0.00    +0.002 C 
ATOM     15  C   UNL     1      32.296 -23.843 -14.987  0.00  0.00    +0.011 C 
ENDBRANCH   3  10
ENDBRANCH   1   2
BRANCH   1  16
ATOM     16  C   UNL     1      34.872 -18.946 -22.329  0.00  0.00    -0.001 C 
BRANCH  16  17
ATOM     17  C   UNL     1      35.457 -17.709 -23.009  0.00  0.00    +0.096 C 
BRANCH  17  19
ATOM     18  O   UNL     1      35.696 -16.947 -20.300  0.00  0.00    -0.275 OA
ATOM     19  N   UNL     1      34.933 -16.466 -22.453  0.00  0.00    -0.259 N 
ATOM     20  C   UNL     1      34.292 -15.529 -23.328  0.00  0.00    +0.053 C 
ATOM     21  C   UNL     1      34.003 -14.233 -22.863  0.00  0.00    +0.026 C 
ATOM     22  C   UNL     1      34.423 -13.828 -21.481  0.00  0.00    +0.040 C 
ATOM     23  C   UNL     1      34.328 -15.017 -20.549  0.00  0.00    +0.090 C 
ATOM     24  C   UNL     1      35.081 -16.218 -21.082  0.00  0.00    +0.230 C 
ATOM     25  C   UNL     1      33.961 -15.853 -24.654  0.00  0.00    +0.015 C 
ATOM     26  C   UNL     1      33.404 -13.293 -23.714  0.00  0.00    +0.136 C 
ATOM     27  C   UNL     1      33.352 -14.916 -25.491  0.00  0.00    +0.004 C 
ATOM     28  C   UNL     1      33.073 -13.636 -25.021  0.00  0.00    +0.037 C 
BRANCH  26  29
ATOM     29  O   UNL     1      33.121 -12.030 -23.282  0.00  0.00    -0.472 OA
ATOM     30  C   UNL     1      33.976 -10.984 -23.738  0.00  0.00    +0.252 C 
ENDBRANCH  26  29
ENDBRANCH  17  19
ENDBRANCH  16  17
ENDBRANCH   1  16
TORSDOF 6
ENDMDL
MODEL 8
REMARK VINA RESULT:     -10.2      2.670      4.591
REMARK  Name = 9892540
REMARK  6 active torsions:
REMARK  status: ('A' for Active; 'I' for Inactive)
REMARK    1  A    between atoms: C_1  and  N_2
REMARK    2  A    between atoms: C_1  and  C_16
REMARK    3  A    between atoms: N_3  and  C_10
REMARK    4  A    between atoms: C_16  and  C_17
REMARK    5  A    between atoms: C_17  and  N_19
REMARK    6  A    between atoms: C_26  and  O_29
REMARK                            x       y       z     vdW  Elec       q    Type
REMARK                         _______ _______ _______ _____ _____    ______ ____
ROOT
ATOM      1  C   UNL     1      33.058 -11.677 -24.001  0.00  0.00    -0.075 C 
ENDROOT
BRANCH   1   2
ATOM      2  N   UNL     1      33.814 -12.929 -24.027  0.00  0.00    +0.389 N 
ATOM      3  N   UNL     1      34.300 -15.692 -23.491  0.00  0.00    -0.312 N 
ATOM      4  C   UNL     1      34.110 -13.379 -22.661  0.00  0.00    -0.055 C 
ATOM      5  C   UNL     1      33.065 -13.968 -24.744  0.00  0.00    -0.055 C 
ATOM      6  C   UNL     1      34.950 -14.659 -22.675  0.00  0.00    +0.068 C 
ATOM      7  C   UNL     1      33.869 -15.268 -24.826  0.00  0.00    +0.068 C 
ATOM      8  H   UNL     1      34.693 -12.760 -24.516  0.00  0.00    -0.080 HD
BRANCH   3  10
ATOM      9 CL   UNL     1      36.820 -19.132 -20.611  0.00  0.00    -0.082 Cl
ATOM     10  C   UNL     1      34.657 -17.027 -23.269  0.00  0.00    +0.049 C 
ATOM     11  C   UNL     1      35.470 -17.388 -22.176  0.00  0.00    +0.026 C 
ATOM     12  C   UNL     1      34.215 -18.050 -24.131  0.00  0.00    +0.015 C 
ATOM     13  C   UNL     1      35.826 -18.718 -21.954  0.00  0.00    +0.059 C 
ATOM     14  C   UNL     1      34.571 -19.380 -23.910  0.00  0.00    +0.002 C 
ATOM     15  C   UNL     1      35.375 -19.715 -22.820  0.00  0.00    +0.011 C 
ENDBRANCH   3  10
ENDBRANCH   1   2
BRANCH   1  16
ATOM     16  C   UNL     1      32.953 -11.101 -22.586  0.00  0.00    -0.001 C 
BRANCH  16  17
ATOM     17  C   UNL     1      31.567 -10.578 -22.218  0.00  0.00    +0.096 C 
BRANCH  17  19
ATOM     18  O   UNL     1      32.105 -10.323 -19.458  0.00  0.00    -0.275 OA
ATOM     19  N   UNL     1      31.620  -9.307 -21.503  0.00  0.00    -0.259 N 
ATOM     20  C   UNL     1      31.437  -8.088 -22.236  0.00  0.00    +0.053 C 
ATOM     21  C   UNL     1      31.725  -6.859 -21.617  0.00  0.00    +0.026 C 
ATOM     22  C   UNL     1      32.276  -6.839 -20.221  0.00  0.00    +0.040 C 
ATOM     23  C   UNL     1      31.685  -7.981 -19.422  0.00  0.00    +0.090 C 
ATOM     24  C   UNL     1      31.858  -9.313 -20.122  0.00  0.00    +0.230 C 
ATOM     25  C   UNL     1      31.002  -8.080 -23.571  0.00  0.00    +0.015 C 
ATOM     26  C   UNL     1      31.583  -5.658 -22.327  0.00  0.00    +0.136 C 
ATOM     27  C   UNL     1      30.849  -6.879 -24.267  0.00  0.00    +0.004 C 
ATOM     28  C   UNL     1      31.139  -5.668 -23.645  0.00  0.00    +0.037 C 
BRANCH  26  29
ATOM     29  O   UNL     1      31.862  -4.456 -21.745  0.00  0.00    -0.472 OA
ATOM     30  C   UNL     1      30.765  -3.571 -21.530  0.00  0.00    +0.252 C 
ENDBRANCH  26  29
ENDBRANCH  17  19
ENDBRANCH  16  17
ENDBRANCH   1  16
TORSDOF 6
ENDMDL
MODEL 9
REMARK VINA RESULT:     -10.2      4.136      7.338
REMARK  Name = 9892540
REMARK  6 active torsions:
REMARK  status: ('A' for Active; 'I' for Inactive)
REMARK    1  A    between atoms: C_1  and  N_2
REMARK    2  A    between atoms: C_1  and  C_16
REMARK    3  A    between atoms: N_3  and  C_10
REMARK    4  A    between atoms: C_16  and  C_17
REMARK    5  A    between atoms: C_17  and  N_19
REMARK    6  A    between atoms: C_26  and  O_29
REMARK                            x       y       z     vdW  Elec       q    Type
REMARK                         _______ _______ _______ _____ _____    ______ ____
ROOT
ATOM      1  C   UNL     1      31.615  -8.937 -22.094  0.00  0.00    -0.075 C 
ENDROOT
BRANCH   1   2
ATOM      2  N   UNL     1      32.446 -10.135 -22.217  0.00  0.00    +0.389 N 
ATOM      3  N   UNL     1      33.140 -12.741 -23.160  0.00  0.00    -0.312 N 
ATOM      4  C   UNL     1      31.720 -11.317 -21.735  0.00  0.00    -0.055 C 
ATOM      5  C   UNL     1      32.855 -10.336 -23.612  0.00  0.00    -0.055 C 
ATOM      6  C   UNL     1      32.599 -12.567 -21.806  0.00  0.00    +0.068 C 
ATOM      7  C   UNL     1      33.771 -11.556 -23.747  0.00  0.00    +0.068 C 
ATOM      8  H   UNL     1      33.280 -10.005 -21.645  0.00  0.00    -0.080 HD
BRANCH   3  10
ATOM      9 CL   UNL     1      35.713 -17.028 -21.945  0.00  0.00    -0.082 Cl
ATOM     10  C   UNL     1      33.574 -14.017 -23.536  0.00  0.00    +0.049 C 
ATOM     11  C   UNL     1      34.343 -14.809 -22.660  0.00  0.00    +0.026 C 
ATOM     12  C   UNL     1      33.257 -14.548 -24.802  0.00  0.00    +0.015 C 
ATOM     13  C   UNL     1      34.776 -16.081 -23.035  0.00  0.00    +0.059 C 
ATOM     14  C   UNL     1      33.690 -15.819 -25.177  0.00  0.00    +0.002 C 
ATOM     15  C   UNL     1      34.448 -16.587 -24.293  0.00  0.00    +0.011 C 
ENDBRANCH   3  10
ENDBRANCH   1   2
BRANCH   1  16
ATOM     16  C   UNL     1      31.982  -8.111 -20.858  0.00  0.00    -0.001 C 
BRANCH  16  17
ATOM     17  C   UNL     1      33.365  -7.464 -20.920  0.00  0.00    +0.096 C 
BRANCH  17  19
ATOM     18  O   UNL     1      35.282  -8.114 -22.889  0.00  0.00    -0.275 OA
ATOM     19  N   UNL     1      33.574  -6.706 -22.149  0.00  0.00    -0.259 N 
ATOM     20  C   UNL     1      32.731  -5.579 -22.423  0.00  0.00    +0.053 C 
ATOM     21  C   UNL     1      32.753  -4.992 -23.700  0.00  0.00    +0.026 C 
ATOM     22  C   UNL     1      33.612  -5.587 -24.777  0.00  0.00    +0.040 C 
ATOM     23  C   UNL     1      34.878  -6.150 -24.169  0.00  0.00    +0.090 C 
ATOM     24  C   UNL     1      34.585  -7.107 -23.032  0.00  0.00    +0.230 C 
ATOM     25  C   UNL     1      31.856  -5.052 -21.459  0.00  0.00    +0.015 C 
ATOM     26  C   UNL     1      31.914  -3.909 -23.996  0.00  0.00    +0.136 C 
ATOM     27  C   UNL     1      31.033  -3.964 -21.757  0.00  0.00    +0.004 C 
ATOM     28  C   UNL     1      31.062  -3.392 -23.025  0.00  0.00    +0.037 C 
BRANCH  26  29
ATOM     29  O   UNL     1      31.918  -3.329 -25.232  0.00  0.00    -0.472 OA
ATOM     30  C   UNL     1      32.495  -2.029 -25.334  0.00  0.00    +0.252 C 
ENDBRANCH  26  29
ENDBRANCH  17  19
ENDBRANCH  16  17
ENDBRANCH   1  16
TORSDOF 6
ENDMDL
