MODEL 1
REMARK VINA RESULT:      -9.0      0.000      0.000
REMARK  Name = 446744
REMARK  2 active torsions:
REMARK  status: ('A' for Active; 'I' for Inactive)
REMARK    1  A    between atoms: C_1  and  C_8
REMARK    2  A    between atoms: C_1  and  N_18
REMARK                            x       y       z     vdW  Elec       q    Type
REMARK                         _______ _______ _______ _____ _____    ______ ____
ROOT
ATOM      1  C   UNL     1      32.011  -9.183 -24.086  0.00  0.00    +0.152 C 
ENDROOT
BRANCH   1   8
ATOM      2  N   UNL     1      32.187 -11.114 -22.630  0.00  0.00    -0.392 NA
ATOM      3  N   UNL     1      34.419 -12.032 -23.983  0.00  0.00    -0.200 NA
ATOM      4  N   UNL     1      34.545 -13.859 -22.566  0.00  0.00    -0.271 NA
ATOM      5  N   UNL     1      32.953 -14.159 -20.797  0.00  0.00    -0.310 NA
ATOM      6  N   UNL     1      31.231 -12.570 -20.493  0.00  0.00    -0.329 N 
ATOM      7  N   UNL     1      34.674 -15.711 -21.131  0.00  0.00    -0.283 N 
ATOM      8  C   UNL     1      32.694 -10.447 -23.674  0.00  0.00    +0.133 C 
ATOM      9  C   UNL     1      33.794 -10.896 -24.344  0.00  0.00    +0.193 C 
ATOM     10  C   UNL     1      32.813 -12.250 -22.270  0.00  0.00    +0.248 C 
ATOM     11  C   UNL     1      33.940 -12.726 -22.943  0.00  0.00    +0.131 C 
ATOM     12  C   UNL     1      32.374 -13.016 -21.207  0.00  0.00    +0.231 C 
ATOM     13  C   UNL     1      34.024 -14.519 -21.514  0.00  0.00    +0.207 C 
ATOM     14  H   UNL     1      30.892 -13.094 -19.731  0.00  0.00    +0.145 HD
ATOM     15  H   UNL     1      30.777 -11.739 -20.761  0.00  0.00    +0.145 HD
ATOM     16  H   UNL     1      35.467 -16.021 -21.625  0.00  0.00    +0.156 HD
ATOM     17  H   UNL     1      34.335 -16.233 -20.368  0.00  0.00    +0.156 HD
ENDBRANCH   1   8
BRANCH   1  18
ATOM     18  N   UNL     1      32.803  -8.033 -23.628  0.00  0.00    -0.280 N 
ATOM     19  C   UNL     1      32.760  -7.750 -22.241  0.00  0.00    +0.052 C 
ATOM     20  C   UNL     1      33.296  -7.165 -24.636  0.00  0.00    +0.052 C 
ATOM     21  C   UNL     1      33.855  -7.199 -21.544  0.00  0.00    +0.014 C 
ATOM     22  C   UNL     1      34.519  -6.475 -24.512  0.00  0.00    +0.014 C 
ATOM     23  C   UNL     1      35.179  -6.984 -22.137  0.00  0.00    +0.001 C 
ATOM     24  C   UNL     1      35.463  -6.673 -23.406  0.00  0.00    +0.001 C 
ATOM     25  C   UNL     1      31.576  -7.992 -21.503  0.00  0.00    +0.015 C 
ATOM     26  C   UNL     1      32.540  -6.941 -25.812  0.00  0.00    +0.015 C 
ATOM     27  C   UNL     1      33.744  -6.927 -20.164  0.00  0.00    +0.001 C 
ATOM     28  C   UNL     1      34.948  -5.615 -25.543  0.00  0.00    +0.001 C 
ATOM     29  C   UNL     1      31.478  -7.708 -20.140  0.00  0.00    +0.001 C 
ATOM     30  C   UNL     1      32.973  -6.079 -26.821  0.00  0.00    +0.001 C 
ATOM     31  C   UNL     1      32.564  -7.172 -19.469  0.00  0.00    +0.000 C 
ATOM     32  C   UNL     1      34.179  -5.412 -26.685  0.00  0.00    +0.000 C 
ENDBRANCH   1  18
TORSDOF 2
ENDMDL
MODEL 2
REMARK VINA RESULT:      -9.0      2.875      4.232
REMARK  Name = 446744
REMARK  2 active torsions:
REMARK  status: ('A' for Active; 'I' for Inactive)
REMARK    1  A    between atoms: C_1  and  C_8
REMARK    2  A    between atoms: C_1  and  N_18
REMARK                            x       y       z     vdW  Elec       q    Type
REMARK                         _______ _______ _______ _____ _____    ______ ____
ROOT
ATOM      1  C   UNL     1      31.335  -6.179 -21.181  0.00  0.00    +0.152 C 
ENDROOT
BRANCH   1   8
ATOM      2  N   UNL     1      31.716  -8.393 -20.268  0.00  0.00    -0.392 NA
ATOM      3  N   UNL     1      31.153  -9.582 -22.702  0.00  0.00    -0.200 NA
ATOM      4  N   UNL     1      31.528 -11.675 -21.783  0.00  0.00    -0.271 NA
ATOM      5  N   UNL     1      32.148 -11.916 -19.478  0.00  0.00    -0.310 NA
ATOM      6  N   UNL     1      32.380  -9.994 -18.124  0.00  0.00    -0.329 N 
ATOM      7  N   UNL     1      31.907 -13.796 -20.853  0.00  0.00    -0.283 N 
ATOM      8  C   UNL     1      31.387  -7.664 -21.342  0.00  0.00    +0.133 C 
ATOM      9  C   UNL     1      31.109  -8.246 -22.544  0.00  0.00    +0.193 C 
ATOM     10  C   UNL     1      31.759  -9.729 -20.427  0.00  0.00    +0.248 C 
ATOM     11  C   UNL     1      31.478 -10.343 -21.649  0.00  0.00    +0.131 C 
ATOM     12  C   UNL     1      32.086 -10.575 -19.385  0.00  0.00    +0.231 C 
ATOM     13  C   UNL     1      31.859 -12.394 -20.694  0.00  0.00    +0.207 C 
ATOM     14  H   UNL     1      32.616 -10.569 -17.360  0.00  0.00    +0.145 HD
ATOM     15  H   UNL     1      32.347  -9.016 -18.013  0.00  0.00    +0.145 HD
ATOM     16  H   UNL     1      31.703 -14.199 -21.727  0.00  0.00    +0.156 HD
ATOM     17  H   UNL     1      32.144 -14.370 -20.089  0.00  0.00    +0.156 HD
ENDBRANCH   1   8
BRANCH   1  18
ATOM     18  N   UNL     1      31.828  -5.542 -22.410  0.00  0.00    -0.280 N 
ATOM     19  C   UNL     1      33.022  -6.071 -22.960  0.00  0.00    +0.052 C 
ATOM     20  C   UNL     1      31.231  -4.304 -22.763  0.00  0.00    +0.052 C 
ATOM     21  C   UNL     1      33.277  -6.087 -24.347  0.00  0.00    +0.014 C 
ATOM     22  C   UNL     1      31.058  -3.899 -24.101  0.00  0.00    +0.014 C 
ATOM     23  C   UNL     1      32.300  -5.686 -25.365  0.00  0.00    +0.001 C 
ATOM     24  C   UNL     1      31.352  -4.750 -25.261  0.00  0.00    +0.001 C 
ATOM     25  C   UNL     1      34.029  -6.586 -22.108  0.00  0.00    +0.015 C 
ATOM     26  C   UNL     1      30.807  -3.408 -21.752  0.00  0.00    +0.015 C 
ATOM     27  C   UNL     1      34.492  -6.616 -24.831  0.00  0.00    +0.001 C 
ATOM     28  C   UNL     1      30.471  -2.649 -24.387  0.00  0.00    +0.001 C 
ATOM     29  C   UNL     1      35.231  -7.096 -22.601  0.00  0.00    +0.001 C 
ATOM     30  C   UNL     1      30.236  -2.169 -22.049  0.00  0.00    +0.001 C 
ATOM     31  C   UNL     1      35.464  -7.109 -23.966  0.00  0.00    +0.000 C 
ATOM     32  C   UNL     1      30.069  -1.788 -23.370  0.00  0.00    +0.000 C 
ENDBRANCH   1  18
TORSDOF 2
ENDMDL
MODEL 3
REMARK VINA RESULT:      -8.7     14.755     17.311
REMARK  Name = 446744
REMARK  2 active torsions:
REMARK  status: ('A' for Active; 'I' for Inactive)
REMARK    1  A    between atoms: C_1  and  C_8
REMARK    2  A    between atoms: C_1  and  N_18
REMARK                            x       y       z     vdW  Elec       q    Type
REMARK                         _______ _______ _______ _____ _____    ______ ____
ROOT
ATOM      1  C   UNL     1      34.088 -24.154 -13.599  0.00  0.00    +0.152 C 
ENDROOT
BRANCH   1   8
ATOM      2  N   UNL     1      36.419 -24.508 -13.034  0.00  0.00    -0.392 NA
ATOM      3  N   UNL     1      36.705 -26.388 -15.044  0.00  0.00    -0.200 NA
ATOM      4  N   UNL     1      38.927 -26.691 -14.466  0.00  0.00    -0.271 NA
ATOM      5  N   UNL     1      39.910 -25.455 -12.661  0.00  0.00    -0.310 NA
ATOM      6  N   UNL     1      38.596 -23.907 -11.452  0.00  0.00    -0.329 N 
ATOM      7  N   UNL     1      41.179 -26.999 -13.881  0.00  0.00    -0.283 N 
ATOM      8  C   UNL     1      35.396 -24.839 -13.832  0.00  0.00    +0.133 C 
ATOM      9  C   UNL     1      35.532 -25.765 -14.824  0.00  0.00    +0.193 C 
ATOM     10  C   UNL     1      37.592 -25.133 -13.256  0.00  0.00    +0.248 C 
ATOM     11  C   UNL     1      37.751 -26.083 -14.265  0.00  0.00    +0.131 C 
ATOM     12  C   UNL     1      38.712 -24.868 -12.492  0.00  0.00    +0.231 C 
ATOM     13  C   UNL     1      39.947 -26.348 -13.656  0.00  0.00    +0.207 C 
ATOM     14  H   UNL     1      39.375 -23.696 -10.889  0.00  0.00    +0.145 HD
ATOM     15  H   UNL     1      37.737 -23.454 -11.295  0.00  0.00    +0.145 HD
ATOM     16  H   UNL     1      41.260 -27.664 -14.601  0.00  0.00    +0.156 HD
ATOM     17  H   UNL     1      41.958 -26.786 -13.318  0.00  0.00    +0.156 HD
ENDBRANCH   1   8
BRANCH   1  18
ATOM     18  N   UNL     1      33.711 -23.409 -14.808  0.00  0.00    -0.280 N 
ATOM     19  C   UNL     1      34.768 -22.803 -15.532  0.00  0.00    +0.052 C 
ATOM     20  C   UNL     1      32.329 -23.132 -14.974  0.00  0.00    +0.052 C 
ATOM     21  C   UNL     1      34.738 -22.649 -16.934  0.00  0.00    +0.014 C 
ATOM     22  C   UNL     1      31.717 -23.057 -16.241  0.00  0.00    +0.014 C 
ATOM     23  C   UNL     1      33.690 -23.204 -17.796  0.00  0.00    +0.001 C 
ATOM     24  C   UNL     1      32.398 -23.378 -17.501  0.00  0.00    +0.001 C 
ATOM     25  C   UNL     1      35.900 -22.299 -14.847  0.00  0.00    +0.015 C 
ATOM     26  C   UNL     1      31.513 -22.891 -13.842  0.00  0.00    +0.015 C 
ATOM     27  C   UNL     1      35.817 -22.026 -17.595  0.00  0.00    +0.001 C 
ATOM     28  C   UNL     1      30.341 -22.765 -16.340  0.00  0.00    +0.001 C 
ATOM     29  C   UNL     1      36.955 -21.675 -15.514  0.00  0.00    +0.001 C 
ATOM     30  C   UNL     1      30.154 -22.593 -13.956  0.00  0.00    +0.001 C 
ATOM     31  C   UNL     1      36.913 -21.536 -16.891  0.00  0.00    +0.000 C 
ATOM     32  C   UNL     1      29.567 -22.528 -15.208  0.00  0.00    +0.000 C 
ENDBRANCH   1  18
TORSDOF 2
ENDMDL
MODEL 4
REMARK VINA RESULT:      -8.6      1.851      4.350
REMARK  Name = 446744
REMARK  2 active torsions:
REMARK  status: ('A' for Active; 'I' for Inactive)
REMARK    1  A    between atoms: C_1  and  C_8
REMARK    2  A    between atoms: C_1  and  N_18
REMARK                            x       y       z     vdW  Elec       q    Type
REMARK                         _______ _______ _______ _____ _____    ______ ____
ROOT
ATOM      1  C   UNL     1      31.761 -10.540 -22.875  0.00  0.00    +0.152 C 
ENDROOT
BRANCH   1   8
ATOM      2  N   UNL     1      32.650 -12.555 -21.860  0.00  0.00    -0.392 NA
ATOM      3  N   UNL     1      34.234 -13.066 -24.071  0.00  0.00    -0.200 NA
ATOM      4  N   UNL     1      35.053 -14.981 -23.060  0.00  0.00    -0.271 NA
ATOM      5  N   UNL     1      34.316 -15.632 -20.872  0.00  0.00    -0.310 NA
ATOM      6  N   UNL     1      32.732 -14.302 -19.729  0.00  0.00    -0.329 N 
ATOM      7  N   UNL     1      35.884 -16.923 -22.037  0.00  0.00    -0.283 N 
ATOM      8  C   UNL     1      32.650 -11.740 -22.923  0.00  0.00    +0.133 C 
ATOM      9  C   UNL     1      33.429 -11.988 -24.015  0.00  0.00    +0.193 C 
ATOM     10  C   UNL     1      33.456 -13.632 -21.918  0.00  0.00    +0.248 C 
ATOM     11  C   UNL     1      34.260 -13.903 -23.026  0.00  0.00    +0.131 C 
ATOM     12  C   UNL     1      33.533 -14.538 -20.878  0.00  0.00    +0.231 C 
ATOM     13  C   UNL     1      35.042 -15.791 -21.984  0.00  0.00    +0.207 C 
ATOM     14  H   UNL     1      32.764 -14.929 -18.971  0.00  0.00    +0.145 HD
ATOM     15  H   UNL     1      32.146 -13.513 -19.692  0.00  0.00    +0.145 HD
ATOM     16  H   UNL     1      36.439 -17.087 -22.832  0.00  0.00    +0.156 HD
ATOM     17  H   UNL     1      35.915 -17.549 -21.277  0.00  0.00    +0.156 HD
ENDBRANCH   1   8
BRANCH   1  18
ATOM     18  N   UNL     1      32.355  -9.533 -21.983  0.00  0.00    -0.280 N 
ATOM     19  C   UNL     1      33.387  -8.733 -22.534  0.00  0.00    +0.052 C 
ATOM     20  C   UNL     1      32.044  -9.649 -20.604  0.00  0.00    +0.052 C 
ATOM     21  C   UNL     1      33.599  -7.394 -22.144  0.00  0.00    +0.014 C 
ATOM     22  C   UNL     1      31.935  -8.530 -19.755  0.00  0.00    +0.014 C 
ATOM     23  C   UNL     1      32.713  -6.654 -21.240  0.00  0.00    +0.001 C 
ATOM     24  C   UNL     1      32.002  -7.139 -20.217  0.00  0.00    +0.001 C 
ATOM     25  C   UNL     1      34.273  -9.278 -23.495  0.00  0.00    +0.015 C 
ATOM     26  C   UNL     1      31.856 -10.927 -20.024  0.00  0.00    +0.015 C 
ATOM     27  C   UNL     1      34.652  -6.654 -22.720  0.00  0.00    +0.001 C 
ATOM     28  C   UNL     1      31.636  -8.712 -18.388  0.00  0.00    +0.001 C 
ATOM     29  C   UNL     1      35.317  -8.536 -24.049  0.00  0.00    +0.001 C 
ATOM     30  C   UNL     1      31.571 -11.093 -18.668  0.00  0.00    +0.001 C 
ATOM     31  C   UNL     1      35.509  -7.221 -23.659  0.00  0.00    +0.000 C 
ATOM     32  C   UNL     1      31.462  -9.982 -17.847  0.00  0.00    +0.000 C 
ENDBRANCH   1  18
TORSDOF 2
ENDMDL
MODEL 5
REMARK VINA RESULT:      -8.5      1.778      2.107
REMARK  Name = 446744
REMARK  2 active torsions:
REMARK  status: ('A' for Active; 'I' for Inactive)
REMARK    1  A    between atoms: C_1  and  C_8
REMARK    2  A    between atoms: C_1  and  N_18
REMARK                            x       y       z     vdW  Elec       q    Type
REMARK                         _______ _______ _______ _____ _____    ______ ____
ROOT
ATOM      1  C   UNL     1      31.281  -9.779 -23.309  0.00  0.00    +0.152 C 
ENDROOT
BRANCH   1   8
ATOM      2  N   UNL     1      32.003 -11.825 -22.227  0.00  0.00    -0.392 NA
ATOM      3  N   UNL     1      34.183 -12.045 -23.916  0.00  0.00    -0.200 NA
ATOM      4  N   UNL     1      34.832 -13.996 -22.850  0.00  0.00    -0.271 NA
ATOM      5  N   UNL     1      33.560 -14.882 -21.020  0.00  0.00    -0.310 NA
ATOM      6  N   UNL     1      31.617 -13.751 -20.292  0.00  0.00    -0.329 N 
ATOM      7  N   UNL     1      35.490 -15.973 -21.771  0.00  0.00    -0.283 N 
ATOM      8  C   UNL     1      32.239 -10.919 -23.184  0.00  0.00    +0.133 C 
ATOM      9  C   UNL     1      33.312 -11.024 -24.019  0.00  0.00    +0.193 C 
ATOM     10  C   UNL     1      32.875 -12.847 -22.125  0.00  0.00    +0.248 C 
ATOM     11  C   UNL     1      33.979 -12.971 -22.971  0.00  0.00    +0.131 C 
ATOM     12  C   UNL     1      32.726 -13.837 -21.174  0.00  0.00    +0.231 C 
ATOM     13  C   UNL     1      34.581 -14.899 -21.883  0.00  0.00    +0.207 C 
ATOM     14  H   UNL     1      31.482 -14.441 -19.603  0.00  0.00    +0.145 HD
ATOM     15  H   UNL     1      30.983 -13.002 -20.370  0.00  0.00    +0.145 HD
ATOM     16  H   UNL     1      36.260 -16.033 -22.381  0.00  0.00    +0.156 HD
ATOM     17  H   UNL     1      35.355 -16.662 -21.081  0.00  0.00    +0.156 HD
ENDBRANCH   1   8
BRANCH   1  18
ATOM     18  N   UNL     1      31.664  -8.719 -22.366  0.00  0.00    -0.280 N 
ATOM     19  C   UNL     1      31.691  -9.074 -20.995  0.00  0.00    +0.052 C 
ATOM     20  C   UNL     1      31.693  -7.397 -22.880  0.00  0.00    +0.052 C 
ATOM     21  C   UNL     1      32.597  -8.498 -20.079  0.00  0.00    +0.014 C 
ATOM     22  C   UNL     1      32.598  -6.422 -22.416  0.00  0.00    +0.014 C 
ATOM     23  C   UNL     1      33.677  -7.583 -20.461  0.00  0.00    +0.001 C 
ATOM     24  C   UNL     1      33.677  -6.694 -21.460  0.00  0.00    +0.001 C 
ATOM     25  C   UNL     1      30.768 -10.020 -20.487  0.00  0.00    +0.015 C 
ATOM     26  C   UNL     1      30.771  -7.005 -23.881  0.00  0.00    +0.015 C 
ATOM     27  C   UNL     1      32.564  -8.884 -18.723  0.00  0.00    +0.001 C 
ATOM     28  C   UNL     1      32.567  -5.120 -22.958  0.00  0.00    +0.001 C 
ATOM     29  C   UNL     1      30.741 -10.385 -19.140  0.00  0.00    +0.001 C 
ATOM     30  C   UNL     1      30.745  -5.710 -24.401  0.00  0.00    +0.001 C 
ATOM     31  C   UNL     1      31.640  -9.814 -18.256  0.00  0.00    +0.000 C 
ATOM     32  C   UNL     1      31.645  -4.765 -23.937  0.00  0.00    +0.000 C 
ENDBRANCH   1  18
TORSDOF 2
ENDMDL
MODEL 6
REMARK VINA RESULT:      -8.2      3.552      6.799
REMARK  Name = 446744
REMARK  2 active torsions:
REMARK  status: ('A' for Active; 'I' for Inactive)
REMARK    1  A    between atoms: C_1  and  C_8
REMARK    2  A    between atoms: C_1  and  N_18
REMARK                            x       y       z     vdW  Elec       q    Type
REMARK                         _______ _______ _______ _____ _____    ______ ____
ROOT
ATOM      1  C   UNL     1      32.205  -7.737 -24.402  0.00  0.00    +0.152 C 
ENDROOT
BRANCH   1   8
ATOM      2  N   UNL     1      33.163  -6.301 -26.106  0.00  0.00    -0.392 NA
ATOM      3  N   UNL     1      35.483  -5.969 -24.636  0.00  0.00    -0.200 NA
ATOM      4  N   UNL     1      36.355  -4.604 -26.291  0.00  0.00    -0.271 NA
ATOM      5  N   UNL     1      35.098  -4.117 -28.275  0.00  0.00    -0.310 NA
ATOM      6  N   UNL     1      32.940  -5.041 -28.547  0.00  0.00    -0.329 N 
ATOM      7  N   UNL     1      37.239  -3.221 -27.968  0.00  0.00    -0.283 N 
ATOM      8  C   UNL     1      33.325  -6.890 -24.914  0.00  0.00    +0.133 C 
ATOM      9  C   UNL     1      34.467  -6.729 -24.186  0.00  0.00    +0.193 C 
ATOM     10  C   UNL     1      34.180  -5.542 -26.554  0.00  0.00    +0.248 C 
ATOM     11  C   UNL     1      35.357  -5.365 -25.824  0.00  0.00    +0.131 C 
ATOM     12  C   UNL     1      34.119  -4.889 -27.770  0.00  0.00    +0.231 C 
ATOM     13  C   UNL     1      36.177  -4.019 -27.491  0.00  0.00    +0.207 C 
ATOM     14  H   UNL     1      32.864  -4.588 -29.418  0.00  0.00    +0.145 HD
ATOM     15  H   UNL     1      32.199  -5.597 -28.215  0.00  0.00    +0.145 HD
ATOM     16  H   UNL     1      38.056  -3.115 -27.430  0.00  0.00    +0.156 HD
ATOM     17  H   UNL     1      37.162  -2.769 -28.839  0.00  0.00    +0.156 HD
ENDBRANCH   1   8
BRANCH   1  18
ATOM     18  N   UNL     1      31.898  -7.348 -23.019  0.00  0.00    -0.280 N 
ATOM     19  C   UNL     1      31.711  -8.404 -22.093  0.00  0.00    +0.052 C 
ATOM     20  C   UNL     1      31.545  -5.990 -22.808  0.00  0.00    +0.052 C 
ATOM     21  C   UNL     1      32.061  -8.292 -20.731  0.00  0.00    +0.014 C 
ATOM     22  C   UNL     1      31.855  -5.301 -21.618  0.00  0.00    +0.014 C 
ATOM     23  C   UNL     1      32.764  -7.139 -20.159  0.00  0.00    +0.001 C 
ATOM     24  C   UNL     1      32.675  -5.860 -20.537  0.00  0.00    +0.001 C 
ATOM     25  C   UNL     1      31.128  -9.624 -22.515  0.00  0.00    +0.015 C 
ATOM     26  C   UNL     1      30.828  -5.281 -23.802  0.00  0.00    +0.015 C 
ATOM     27  C   UNL     1      31.838  -9.376 -19.857  0.00  0.00    +0.001 C 
ATOM     28  C   UNL     1      31.464  -3.955 -21.464  0.00  0.00    +0.001 C 
ATOM     29  C   UNL     1      30.903 -10.684 -21.635  0.00  0.00    +0.001 C 
ATOM     30  C   UNL     1      30.439  -3.952 -23.631  0.00  0.00    +0.001 C 
ATOM     31  C   UNL     1      31.257 -10.559 -20.303  0.00  0.00    +0.000 C 
ATOM     32  C   UNL     1      30.756  -3.287 -22.458  0.00  0.00    +0.000 C 
ENDBRANCH   1  18
TORSDOF 2
ENDMDL
MODEL 7
REMARK VINA RESULT:      -8.2      2.545      7.197
REMARK  Name = 446744
REMARK  2 active torsions:
REMARK  status: ('A' for Active; 'I' for Inactive)
REMARK    1  A    between atoms: C_1  and  C_8
REMARK    2  A    between atoms: C_1  and  N_18
REMARK                            x       y       z     vdW  Elec       q    Type
REMARK                         _______ _______ _______ _____ _____    ______ ____
ROOT
ATOM      1  C   UNL     1      32.783  -9.225 -24.246  0.00  0.00    +0.152 C 
ENDROOT
BRANCH   1   8
ATOM      2  N   UNL     1      32.808  -6.850 -24.734  0.00  0.00    -0.392 NA
ATOM      3  N   UNL     1      30.205  -6.557 -23.841  0.00  0.00    -0.200 NA
ATOM      4  N   UNL     1      30.278  -4.293 -24.324  0.00  0.00    -0.271 NA
ATOM      5  N   UNL     1      32.253  -3.293 -25.248  0.00  0.00    -0.310 NA
ATOM      6  N   UNL     1      34.152  -4.633 -25.673  0.00  0.00    -0.329 N 
ATOM      7  N   UNL     1      30.351  -1.999 -24.813  0.00  0.00    -0.283 N 
ATOM      8  C   UNL     1      32.108  -7.892 -24.268  0.00  0.00    +0.133 C 
ATOM      9  C   UNL     1      30.825  -7.752 -23.827  0.00  0.00    +0.193 C 
ATOM     10  C   UNL     1      32.187  -5.655 -24.748  0.00  0.00    +0.248 C 
ATOM     11  C   UNL     1      30.874  -5.492 -24.301  0.00  0.00    +0.131 C 
ATOM     12  C   UNL     1      32.816  -4.515 -25.208  0.00  0.00    +0.231 C 
ATOM     13  C   UNL     1      30.995  -3.255 -24.796  0.00  0.00    +0.207 C 
ATOM     14  H   UNL     1      34.629  -3.840 -26.008  0.00  0.00    +0.145 HD
ATOM     15  H   UNL     1      34.601  -5.509 -25.661  0.00  0.00    +0.145 HD
ATOM     16  H   UNL     1      29.425  -1.916 -24.491  0.00  0.00    +0.156 HD
ATOM     17  H   UNL     1      30.829  -1.206 -25.148  0.00  0.00    +0.156 HD
ENDBRANCH   1   8
BRANCH   1  18
ATOM     18  N   UNL     1      32.683  -9.796 -22.896  0.00  0.00    -0.280 N 
ATOM     19  C   UNL     1      32.755  -8.880 -21.817  0.00  0.00    +0.052 C 
ATOM     20  C   UNL     1      32.807 -11.205 -22.795  0.00  0.00    +0.052 C 
ATOM     21  C   UNL     1      32.063  -9.079 -20.604  0.00  0.00    +0.014 C 
ATOM     22  C   UNL     1      32.128 -11.959 -21.817  0.00  0.00    +0.014 C 
ATOM     23  C   UNL     1      31.107 -10.166 -20.376  0.00  0.00    +0.001 C 
ATOM     24  C   UNL     1      31.134 -11.399 -20.894  0.00  0.00    +0.001 C 
ATOM     25  C   UNL     1      33.567  -7.724 -21.919  0.00  0.00    +0.015 C 
ATOM     26  C   UNL     1      33.661 -11.907 -23.680  0.00  0.00    +0.015 C 
ATOM     27  C   UNL     1      32.187  -8.136 -19.562  0.00  0.00    +0.001 C 
ATOM     28  C   UNL     1      32.304 -13.357 -21.760  0.00  0.00    +0.001 C 
ATOM     29  C   UNL     1      33.688  -6.805 -20.875  0.00  0.00    +0.001 C 
ATOM     30  C   UNL     1      33.834 -13.290 -23.606  0.00  0.00    +0.001 C 
ATOM     31  C   UNL     1      32.998  -7.013 -19.693  0.00  0.00    +0.000 C 
ATOM     32  C   UNL     1      33.154 -14.017 -22.642  0.00  0.00    +0.000 C 
ENDBRANCH   1  18
TORSDOF 2
ENDMDL
MODEL 8
REMARK VINA RESULT:      -8.1     10.254     15.227
REMARK  Name = 446744
REMARK  2 active torsions:
REMARK  status: ('A' for Active; 'I' for Inactive)
REMARK    1  A    between atoms: C_1  and  C_8
REMARK    2  A    between atoms: C_1  and  N_18
REMARK                            x       y       z     vdW  Elec       q    Type
REMARK                         _______ _______ _______ _____ _____    ______ ____
ROOT
ATOM      1  C   UNL     1      33.647 -23.914 -17.597  0.00  0.00    +0.152 C 
ENDROOT
BRANCH   1   8
ATOM      2  N   UNL     1      34.978 -22.246 -18.747  0.00  0.00    -0.392 NA
ATOM      3  N   UNL     1      32.724 -20.780 -19.401  0.00  0.00    -0.200 NA
ATOM      4  N   UNL     1      34.039 -19.214 -20.487  0.00  0.00    -0.271 NA
ATOM      5  N   UNL     1      36.423 -19.461 -20.586  0.00  0.00    -0.310 NA
ATOM      6  N   UNL     1      37.447 -21.327 -19.561  0.00  0.00    -0.329 N 
ATOM      7  N   UNL     1      35.370 -17.626 -21.589  0.00  0.00    -0.283 N 
ATOM      8  C   UNL     1      33.755 -22.645 -18.378  0.00  0.00    +0.133 C 
ATOM      9  C   UNL     1      32.641 -21.926 -18.698  0.00  0.00    +0.193 C 
ATOM     10  C   UNL     1      35.060 -21.100 -19.450  0.00  0.00    +0.248 C 
ATOM     11  C   UNL     1      33.932 -20.350 -19.788  0.00  0.00    +0.131 C 
ATOM     12  C   UNL     1      36.272 -20.597 -19.882  0.00  0.00    +0.231 C 
ATOM     13  C   UNL     1      35.276 -18.826 -20.852  0.00  0.00    +0.207 C 
ATOM     14  H   UNL     1      38.327 -20.996 -19.854  0.00  0.00    +0.145 HD
ATOM     15  H   UNL     1      37.382 -22.164 -19.047  0.00  0.00    +0.145 HD
ATOM     16  H   UNL     1      34.556 -17.119 -21.811  0.00  0.00    +0.156 HD
ATOM     17  H   UNL     1      36.250 -17.296 -21.881  0.00  0.00    +0.156 HD
ENDBRANCH   1   8
BRANCH   1  18
ATOM     18  N   UNL     1      33.602 -23.597 -16.163  0.00  0.00    -0.280 N 
ATOM     19  C   UNL     1      32.318 -23.370 -15.607  0.00  0.00    +0.052 C 
ATOM     20  C   UNL     1      34.839 -23.277 -15.548  0.00  0.00    +0.052 C 
ATOM     21  C   UNL     1      31.998 -23.702 -14.274  0.00  0.00    +0.014 C 
ATOM     22  C   UNL     1      35.121 -23.588 -14.202  0.00  0.00    +0.014 C 
ATOM     23  C   UNL     1      32.898 -24.427 -13.372  0.00  0.00    +0.001 C 
ATOM     24  C   UNL     1      34.234 -24.378 -13.340  0.00  0.00    +0.001 C 
ATOM     25  C   UNL     1      31.305 -22.760 -16.386  0.00  0.00    +0.015 C 
ATOM     26  C   UNL     1      35.840 -22.595 -16.281  0.00  0.00    +0.015 C 
ATOM     27  C   UNL     1      30.705 -23.438 -13.776  0.00  0.00    +0.001 C 
ATOM     28  C   UNL     1      36.366 -23.231 -13.644  0.00  0.00    +0.001 C 
ATOM     29  C   UNL     1      30.033 -22.495 -15.876  0.00  0.00    +0.001 C 
ATOM     30  C   UNL     1      37.064 -22.238 -15.712  0.00  0.00    +0.001 C 
ATOM     31  C   UNL     1      29.733 -22.833 -14.567  0.00  0.00    +0.000 C 
ATOM     32  C   UNL     1      37.327 -22.555 -14.390  0.00  0.00    +0.000 C 
ENDBRANCH   1  18
TORSDOF 2
ENDMDL
MODEL 9
REMARK VINA RESULT:      -7.9      2.720      6.741
REMARK  Name = 446744
REMARK  2 active torsions:
REMARK  status: ('A' for Active; 'I' for Inactive)
REMARK    1  A    between atoms: C_1  and  C_8
REMARK    2  A    between atoms: C_1  and  N_18
REMARK                            x       y       z     vdW  Elec       q    Type
REMARK                         _______ _______ _______ _____ _____    ______ ____
ROOT
ATOM      1  C   UNL     1      31.170  -8.960 -21.648  0.00  0.00    +0.152 C 
ENDROOT
BRANCH   1   8
ATOM      2  N   UNL     1      30.994  -6.572 -22.025  0.00  0.00    -0.392 NA
ATOM      3  N   UNL     1      30.762  -6.939 -24.758  0.00  0.00    -0.200 NA
ATOM      4  N   UNL     1      30.598  -4.649 -25.067  0.00  0.00    -0.271 NA
ATOM      5  N   UNL     1      30.683  -3.145 -23.201  0.00  0.00    -0.310 NA
ATOM      6  N   UNL     1      30.937  -4.007 -21.015  0.00  0.00    -0.329 N 
ATOM      7  N   UNL     1      30.433  -2.330 -25.381  0.00  0.00    -0.283 N 
ATOM      8  C   UNL     1      31.016  -7.794 -22.570  0.00  0.00    +0.133 C 
ATOM      9  C   UNL     1      30.902  -7.980 -23.916  0.00  0.00    +0.193 C 
ATOM     10  C   UNL     1      30.854  -5.530 -22.868  0.00  0.00    +0.248 C 
ATOM     11  C   UNL     1      30.736  -5.700 -24.249  0.00  0.00    +0.131 C 
ATOM     12  C   UNL     1      30.820  -4.227 -22.413  0.00  0.00    +0.231 C 
ATOM     13  C   UNL     1      30.579  -3.426 -24.504  0.00  0.00    +0.207 C 
ATOM     14  H   UNL     1      30.917  -3.089 -20.659  0.00  0.00    +0.145 HD
ATOM     15  H   UNL     1      31.038  -4.771 -20.404  0.00  0.00    +0.145 HD
ATOM     16  H   UNL     1      30.351  -2.482 -26.350  0.00  0.00    +0.156 HD
ATOM     17  H   UNL     1      30.412  -1.413 -25.024  0.00  0.00    +0.156 HD
ENDBRANCH   1   8
BRANCH   1  18
ATOM     18  N   UNL     1      32.363  -9.727 -22.033  0.00  0.00    -0.280 N 
ATOM     19  C   UNL     1      32.381 -11.095 -21.662  0.00  0.00    +0.052 C 
ATOM     20  C   UNL     1      33.480  -8.976 -22.478  0.00  0.00    +0.052 C 
ATOM     21  C   UNL     1      33.020 -12.084 -22.437  0.00  0.00    +0.014 C 
ATOM     22  C   UNL     1      34.381  -9.458 -23.449  0.00  0.00    +0.014 C 
ATOM     23  C   UNL     1      33.613 -11.835 -23.755  0.00  0.00    +0.001 C 
ATOM     24  C   UNL     1      34.197 -10.712 -24.188  0.00  0.00    +0.001 C 
ATOM     25  C   UNL     1      31.765 -11.512 -20.457  0.00  0.00    +0.015 C 
ATOM     26  C   UNL     1      33.742  -7.698 -21.926  0.00  0.00    +0.015 C 
ATOM     27  C   UNL     1      33.014 -13.427 -22.006  0.00  0.00    +0.001 C 
ATOM     28  C   UNL     1      35.482  -8.667 -23.840  0.00  0.00    +0.001 C 
ATOM     29  C   UNL     1      31.776 -12.843 -20.038  0.00  0.00    +0.001 C 
ATOM     30  C   UNL     1      34.841  -6.932 -22.315  0.00  0.00    +0.001 C 
ATOM     31  C   UNL     1      32.404 -13.803 -20.814  0.00  0.00    +0.000 C 
ATOM     32  C   UNL     1      35.714  -7.418 -23.273  0.00  0.00    +0.000 C 
ENDBRANCH   1  18
TORSDOF 2
ENDMDL
