MODEL 1
REMARK VINA RESULT:     -11.7      0.000      0.000
REMARK  Name = 118161062
REMARK  4 active torsions:
REMARK  status: ('A' for Active; 'I' for Inactive)
REMARK    1  A    between atoms: N_1  and  C_26
REMARK    2  A    between atoms: C_7  and  C_15
REMARK    3  A    between atoms: C_21  and  N_28
REMARK    4  A    between atoms: N_27  and  C_35
REMARK                            x       y       z     vdW  Elec       q    Type
REMARK                         _______ _______ _______ _____ _____    ______ ____
ROOT
ATOM      1  N   UNL     1      36.241 -23.062 -15.887  0.00  0.00    -0.286 N 
ATOM      2  N   UNL     1      34.734 -23.912 -12.616  0.00  0.00    -0.260 N 
ATOM      3  N   UNL     1      34.032 -23.494 -15.260  0.00  0.00    -0.384 NA
ATOM      4  N   UNL     1      36.891 -23.533 -13.034  0.00  0.00    -0.224 NA
ATOM      5  C   UNL     1      35.304 -23.380 -14.932  0.00  0.00    +0.216 C 
ATOM      6  C   UNL     1      35.686 -23.600 -13.550  0.00  0.00    +0.180 C 
ATOM      7  C   UNL     1      33.091 -23.820 -14.284  0.00  0.00    +0.162 C 
ATOM      8  C   UNL     1      33.410 -24.021 -12.986  0.00  0.00    +0.159 C 
ATOM      9  C   UNL     1      35.375 -24.053 -11.417  0.00  0.00    +0.088 C 
ATOM     10  C   UNL     1      36.704 -23.815 -11.702  0.00  0.00    +0.117 C 
ATOM     11  H   UNL     1      37.147 -23.418 -15.743  0.00  0.00    +0.155 HD
ENDROOT
BRANCH   7  15
ATOM     12  N   UNL     1      30.905 -24.812 -14.069  0.00  0.00    -0.386 NA
ATOM     13  N   UNL     1      29.904 -23.204 -16.138  0.00  0.00    -0.257 NA
ATOM     14  N   UNL     1      28.742 -25.801 -13.851  0.00  0.00    -0.335 N 
ATOM     15  C   UNL     1      31.678 -23.917 -14.715  0.00  0.00    +0.178 C 
ATOM     16  C   UNL     1      31.187 -23.127 -15.731  0.00  0.00    +0.128 C 
ATOM     17  C   UNL     1      29.622 -24.888 -14.475  0.00  0.00    +0.179 C 
ATOM     18  C   UNL     1      29.130 -24.098 -15.491  0.00  0.00    +0.199 C 
ATOM     19  H   UNL     1      29.067 -26.377 -13.122  0.00  0.00    +0.144 HD
ATOM     20  H   UNL     1      27.804 -25.860 -14.144  0.00  0.00    +0.144 HD
ENDBRANCH   7  15
BRANCH   1  26
ATOM     21  C   UNL     1      35.688 -20.745 -19.347  0.00  0.00    +0.048 C 
ATOM     22  C   UNL     1      36.832 -20.574 -18.568  0.00  0.00    +0.016 C 
ATOM     23  C   UNL     1      34.727 -21.686 -18.976  0.00  0.00    +0.016 C 
ATOM     24  C   UNL     1      37.017 -21.344 -17.420  0.00  0.00    +0.016 C 
ATOM     25  C   UNL     1      34.912 -22.456 -17.828  0.00  0.00    +0.016 C 
ATOM     26  C   UNL     1      36.056 -22.285 -17.050  0.00  0.00    +0.050 C 
BRANCH  21  28
ATOM     27  N   UNL     1      35.059 -18.196 -22.687  0.00  0.00    +0.394 N 
ATOM     28  N   UNL     1      35.503 -19.972 -20.499  0.00  0.00    -0.312 N 
ATOM     29  C   UNL     1      36.422 -18.445 -22.201  0.00  0.00    -0.055 C 
ATOM     30  C   UNL     1      34.248 -19.410 -22.543  0.00  0.00    -0.055 C 
ATOM     31  C   UNL     1      36.409 -18.839 -20.722  0.00  0.00    +0.068 C 
ATOM     32  C   UNL     1      34.161 -19.837 -21.076  0.00  0.00    +0.068 C 
ATOM     33  H   UNL     1      34.640 -17.445 -22.139  0.00  0.00    -0.079 HD
BRANCH  27  35
ATOM     34  O   UNL     1      33.549 -16.721 -25.069  0.00  0.00    -0.358 OA
ATOM     35  C   UNL     1      35.111 -17.811 -24.108  0.00  0.00    +0.002 C 
ATOM     36  C   UNL     1      33.765 -18.122 -24.761  0.00  0.00    +0.124 C 
ATOM     37  C   UNL     1      34.681 -16.349 -24.242  0.00  0.00    +0.124 C 
ENDBRANCH  27  35
ENDBRANCH  21  28
ENDBRANCH   1  26
TORSDOF 4
ENDMDL
MODEL 2
REMARK VINA RESULT:     -11.1      1.437      1.994
REMARK  Name = 118161062
REMARK  4 active torsions:
REMARK  status: ('A' for Active; 'I' for Inactive)
REMARK    1  A    between atoms: N_1  and  C_26
REMARK    2  A    between atoms: C_7  and  C_15
REMARK    3  A    between atoms: C_21  and  N_28
REMARK    4  A    between atoms: N_27  and  C_35
REMARK                            x       y       z     vdW  Elec       q    Type
REMARK                         _______ _______ _______ _____ _____    ______ ____
ROOT
ATOM      1  N   UNL     1      36.723 -22.371 -17.523  0.00  0.00    -0.286 N 
ATOM      2  N   UNL     1      35.766 -23.640 -14.180  0.00  0.00    -0.260 N 
ATOM      3  N   UNL     1      34.639 -22.850 -16.582  0.00  0.00    -0.384 NA
ATOM      4  N   UNL     1      37.833 -23.241 -14.916  0.00  0.00    -0.224 NA
ATOM      5  C   UNL     1      35.952 -22.803 -16.470  0.00  0.00    +0.216 C 
ATOM      6  C   UNL     1      36.556 -23.217 -15.217  0.00  0.00    +0.180 C 
ATOM      7  C   UNL     1      33.867 -23.293 -15.508  0.00  0.00    +0.162 C 
ATOM      8  C   UNL     1      34.395 -23.677 -14.325  0.00  0.00    +0.159 C 
ATOM      9  C   UNL     1      36.597 -23.955 -13.142  0.00  0.00    +0.088 C 
ATOM     10  C   UNL     1      37.866 -23.701 -13.621  0.00  0.00    +0.117 C 
ATOM     11  H   UNL     1      37.625 -22.757 -17.587  0.00  0.00    +0.155 HD
ENDROOT
BRANCH   7  15
ATOM     12  N   UNL     1      31.689 -24.112 -14.878  0.00  0.00    -0.386 NA
ATOM     13  N   UNL     1      30.460 -22.537 -16.846  0.00  0.00    -0.257 NA
ATOM     14  N   UNL     1      29.535 -24.929 -14.249  0.00  0.00    -0.335 N 
ATOM     15  C   UNL     1      32.398 -23.308 -15.695  0.00  0.00    +0.178 C 
ATOM     16  C   UNL     1      31.795 -22.534 -16.661  0.00  0.00    +0.128 C 
ATOM     17  C   UNL     1      30.354 -24.114 -15.063  0.00  0.00    +0.179 C 
ATOM     18  C   UNL     1      29.750 -23.340 -16.029  0.00  0.00    +0.199 C 
ATOM     19  H   UNL     1      29.941 -25.493 -13.551  0.00  0.00    +0.144 HD
ATOM     20  H   UNL     1      28.560 -24.934 -14.381  0.00  0.00    +0.144 HD
ENDBRANCH   7  15
BRANCH   1  26
ATOM     21  C   UNL     1      35.680 -19.596 -20.499  0.00  0.00    +0.048 C 
ATOM     22  C   UNL     1      34.744 -20.533 -20.059  0.00  0.00    +0.016 C 
ATOM     23  C   UNL     1      36.963 -19.583 -19.950  0.00  0.00    +0.016 C 
ATOM     24  C   UNL     1      35.089 -21.453 -19.070  0.00  0.00    +0.016 C 
ATOM     25  C   UNL     1      37.308 -20.503 -18.961  0.00  0.00    +0.016 C 
ATOM     26  C   UNL     1      36.372 -21.439 -18.521  0.00  0.00    +0.050 C 
BRANCH  21  28
ATOM     27  N   UNL     1      34.385 -16.782 -23.406  0.00  0.00    +0.394 N 
ATOM     28  N   UNL     1      35.333 -18.673 -21.491  0.00  0.00    -0.312 N 
ATOM     29  C   UNL     1      35.183 -16.335 -22.258  0.00  0.00    -0.055 C 
ATOM     30  C   UNL     1      34.831 -18.112 -23.837  0.00  0.00    -0.055 C 
ATOM     31  C   UNL     1      35.026 -17.298 -21.078  0.00  0.00    +0.068 C 
ATOM     32  C   UNL     1      34.663 -19.135 -22.712  0.00  0.00    +0.068 C 
ATOM     33  H   UNL     1      33.403 -16.829 -23.134  0.00  0.00    -0.079 HD
BRANCH  27  35
ATOM     34  O   UNL     1      33.227 -14.187 -24.841  0.00  0.00    -0.358 OA
ATOM     35  C   UNL     1      34.552 -15.829 -24.516  0.00  0.00    +0.002 C 
ATOM     36  C   UNL     1      33.197 -15.596 -25.185  0.00  0.00    +0.124 C 
ATOM     37  C   UNL     1      34.375 -14.407 -23.981  0.00  0.00    +0.124 C 
ENDBRANCH  27  35
ENDBRANCH  21  28
ENDBRANCH   1  26
TORSDOF 4
ENDMDL
MODEL 3
REMARK VINA RESULT:      -9.7      9.320     16.740
REMARK  Name = 118161062
REMARK  4 active torsions:
REMARK  status: ('A' for Active; 'I' for Inactive)
REMARK    1  A    between atoms: N_1  and  C_26
REMARK    2  A    between atoms: C_7  and  C_15
REMARK    3  A    between atoms: C_21  and  N_28
REMARK    4  A    between atoms: N_27  and  C_35
REMARK                            x       y       z     vdW  Elec       q    Type
REMARK                         _______ _______ _______ _____ _____    ______ ____
ROOT
ATOM      1  N   UNL     1      31.041  -8.025 -22.823  0.00  0.00    -0.286 N 
ATOM      2  N   UNL     1      31.781  -4.420 -23.210  0.00  0.00    -0.260 N 
ATOM      3  N   UNL     1      32.335  -6.865 -24.384  0.00  0.00    -0.384 NA
ATOM      4  N   UNL     1      30.504  -5.360 -21.643  0.00  0.00    -0.224 NA
ATOM      5  C   UNL     1      31.554  -6.851 -23.321  0.00  0.00    +0.216 C 
ATOM      6  C   UNL     1      31.254  -5.576 -22.698  0.00  0.00    +0.180 C 
ATOM      7  C   UNL     1      32.848  -5.668 -24.882  0.00  0.00    +0.162 C 
ATOM      8  C   UNL     1      32.597  -4.464 -24.322  0.00  0.00    +0.159 C 
ATOM      9  C   UNL     1      31.338  -3.392 -22.426  0.00  0.00    +0.088 C 
ATOM     10  C   UNL     1      30.552  -3.997 -21.468  0.00  0.00    +0.117 C 
ATOM     11  H   UNL     1      30.168  -7.961 -22.374  0.00  0.00    +0.155 HD
ENDROOT
BRANCH   7  15
ATOM     12  N   UNL     1      33.133  -5.982 -27.255  0.00  0.00    -0.386 NA
ATOM     13  N   UNL     1      35.912  -5.683 -27.024  0.00  0.00    -0.257 NA
ATOM     14  N   UNL     1      33.406  -6.296 -29.606  0.00  0.00    -0.335 N 
ATOM     15  C   UNL     1      33.729  -5.753 -26.069  0.00  0.00    +0.178 C 
ATOM     16  C   UNL     1      35.094  -5.606 -25.955  0.00  0.00    +0.128 C 
ATOM     17  C   UNL     1      33.950  -6.058 -28.324  0.00  0.00    +0.179 C 
ATOM     18  C   UNL     1      35.315  -5.911 -28.211  0.00  0.00    +0.199 C 
ATOM     19  H   UNL     1      32.434  -6.405 -29.716  0.00  0.00    +0.144 HD
ATOM     20  H   UNL     1      34.000  -6.352 -30.390  0.00  0.00    +0.144 HD
ENDBRANCH   7  15
BRANCH   1  26
ATOM     21  C   UNL     1      32.759 -11.854 -22.995  0.00  0.00    +0.048 C 
ATOM     22  C   UNL     1      33.271 -10.824 -23.784  0.00  0.00    +0.016 C 
ATOM     23  C   UNL     1      31.676 -11.613 -22.149  0.00  0.00    +0.016 C 
ATOM     24  C   UNL     1      32.701  -9.552 -23.726  0.00  0.00    +0.016 C 
ATOM     25  C   UNL     1      31.106 -10.341 -22.092  0.00  0.00    +0.016 C 
ATOM     26  C   UNL     1      31.618  -9.310 -22.880  0.00  0.00    +0.050 C 
BRANCH  21  28
ATOM     27  N   UNL     1      34.251 -15.829 -23.141  0.00  0.00    +0.394 N 
ATOM     28  N   UNL     1      33.330 -13.130 -23.053  0.00  0.00    -0.312 N 
ATOM     29  C   UNL     1      34.052 -15.075 -24.385  0.00  0.00    -0.055 C 
ATOM     30  C   UNL     1      34.705 -14.927 -22.077  0.00  0.00    -0.055 C 
ATOM     31  C   UNL     1      32.993 -13.987 -24.197  0.00  0.00    +0.068 C 
ATOM     32  C   UNL     1      33.668 -13.833 -21.811  0.00  0.00    +0.068 C 
ATOM     33  H   UNL     1      33.369 -16.259 -22.865  0.00  0.00    -0.079 HD
BRANCH  27  35
ATOM     34  O   UNL     1      35.136 -18.818 -22.498  0.00  0.00    -0.358 OA
ATOM     35  C   UNL     1      35.268 -16.872 -23.362  0.00  0.00    +0.002 C 
ATOM     36  C   UNL     1      35.609 -17.531 -22.026  0.00  0.00    +0.124 C 
ATOM     37  C   UNL     1      34.565 -18.193 -23.676  0.00  0.00    +0.124 C 
ENDBRANCH  27  35
ENDBRANCH  21  28
ENDBRANCH   1  26
TORSDOF 4
ENDMDL
MODEL 4
REMARK VINA RESULT:      -8.8     10.156     17.494
REMARK  Name = 118161062
REMARK  4 active torsions:
REMARK  status: ('A' for Active; 'I' for Inactive)
REMARK    1  A    between atoms: N_1  and  C_26
REMARK    2  A    between atoms: C_7  and  C_15
REMARK    3  A    between atoms: C_21  and  N_28
REMARK    4  A    between atoms: N_27  and  C_35
REMARK                            x       y       z     vdW  Elec       q    Type
REMARK                         _______ _______ _______ _____ _____    ______ ____
ROOT
ATOM      1  N   UNL     1      30.729  -6.968 -22.740  0.00  0.00    -0.286 N 
ATOM      2  N   UNL     1      31.280  -3.381 -23.464  0.00  0.00    -0.260 N 
ATOM      3  N   UNL     1      31.789  -5.888 -24.520  0.00  0.00    -0.384 NA
ATOM      4  N   UNL     1      30.230  -4.240 -21.694  0.00  0.00    -0.224 NA
ATOM      5  C   UNL     1      31.136  -5.820 -23.376  0.00  0.00    +0.216 C 
ATOM      6  C   UNL     1      30.861  -4.511 -22.813  0.00  0.00    +0.180 C 
ATOM      7  C   UNL     1      32.194  -4.717 -25.158  0.00  0.00    +0.162 C 
ATOM      8  C   UNL     1      31.963  -3.482 -24.658  0.00  0.00    +0.159 C 
ATOM      9  C   UNL     1      30.892  -2.311 -22.707  0.00  0.00    +0.088 C 
ATOM     10  C   UNL     1      30.245  -2.867 -21.622  0.00  0.00    +0.117 C 
ATOM     11  H   UNL     1      29.912  -6.897 -22.196  0.00  0.00    +0.155 HD
ENDROOT
BRANCH   7  15
ATOM     12  N   UNL     1      34.118  -5.506 -26.378  0.00  0.00    -0.386 NA
ATOM     13  N   UNL     1      33.091  -4.485 -28.779  0.00  0.00    -0.257 NA
ATOM     14  N   UNL     1      36.027  -6.291 -27.579  0.00  0.00    -0.335 N 
ATOM     15  C   UNL     1      32.935  -4.864 -26.432  0.00  0.00    +0.178 C 
ATOM     16  C   UNL     1      32.430  -4.362 -27.611  0.00  0.00    +0.128 C 
ATOM     17  C   UNL     1      34.778  -5.630 -27.546  0.00  0.00    +0.179 C 
ATOM     18  C   UNL     1      34.274  -5.129 -28.726  0.00  0.00    +0.199 C 
ATOM     19  H   UNL     1      36.411  -6.659 -26.750  0.00  0.00    +0.144 HD
ATOM     20  H   UNL     1      36.513  -6.383 -28.430  0.00  0.00    +0.144 HD
ENDBRANCH   7  15
BRANCH   1  26
ATOM     21  C   UNL     1      32.562 -10.746 -22.842  0.00  0.00    +0.048 C 
ATOM     22  C   UNL     1      32.476  -9.981 -24.005  0.00  0.00    +0.016 C 
ATOM     23  C   UNL     1      32.039 -10.257 -21.645  0.00  0.00    +0.016 C 
ATOM     24  C   UNL     1      31.869  -8.726 -23.971  0.00  0.00    +0.016 C 
ATOM     25  C   UNL     1      31.432  -9.002 -21.611  0.00  0.00    +0.016 C 
ATOM     26  C   UNL     1      31.346  -8.236 -22.774  0.00  0.00    +0.050 C 
BRANCH  21  28
ATOM     27  N   UNL     1      34.174 -14.674 -22.997  0.00  0.00    +0.394 N 
ATOM     28  N   UNL     1      33.172 -12.005 -22.876  0.00  0.00    -0.312 N 
ATOM     29  C   UNL     1      34.304 -13.782 -24.156  0.00  0.00    -0.055 C 
ATOM     30  C   UNL     1      34.280 -13.899 -21.756  0.00  0.00    -0.055 C 
ATOM     31  C   UNL     1      33.197 -12.725 -24.156  0.00  0.00    +0.068 C 
ATOM     32  C   UNL     1      33.173 -12.846 -21.674  0.00  0.00    +0.068 C 
ATOM     33  H   UNL     1      33.265 -15.135 -23.029  0.00  0.00    -0.079 HD
BRANCH  27  35
ATOM     34  O   UNL     1      34.903 -17.755 -22.664  0.00  0.00    -0.358 OA
ATOM     35  C   UNL     1      35.248 -15.682 -23.035  0.00  0.00    +0.002 C 
ATOM     36  C   UNL     1      35.120 -16.597 -21.817  0.00  0.00    +0.124 C 
ATOM     37  C   UNL     1      34.761 -16.897 -23.825  0.00  0.00    +0.124 C 
ENDBRANCH  27  35
ENDBRANCH  21  28
ENDBRANCH   1  26
TORSDOF 4
ENDMDL
