MODEL 1
REMARK VINA RESULT:     -11.5      0.000      0.000
REMARK  Name = 213049
REMARK  9 active torsions:
REMARK  status: ('A' for Active; 'I' for Inactive)
REMARK    1  A    between atoms: C_3  and  C_13
REMARK    2  A    between atoms: C_4  and  N_25
REMARK    3  A    between atoms: C_16  and  C_17
REMARK    4  A    between atoms: C_17  and  O_18
REMARK    5  A    between atoms: C_17  and  C_20
REMARK    6  A    between atoms: C_20  and  O_21
REMARK    7  A    between atoms: C_26  and  C_29
REMARK    8  A    between atoms: C_29  and  O_30
REMARK    9  A    between atoms: O_30  and  C_33
REMARK                            x       y       z     vdW  Elec       q    Type
REMARK                         _______ _______ _______ _____ _____    ______ ____
ROOT
ATOM      1  F   UNL     1      32.371 -20.068 -20.559  0.00  0.00    -0.204 F 
ATOM      2  F   UNL     1      37.116 -19.903 -20.293  0.00  0.00    -0.204 F 
ATOM      3  C   UNL     1      34.745 -19.957 -20.456  0.00  0.00    +0.051 C 
ATOM      4  C   UNL     1      34.690 -21.797 -18.360  0.00  0.00    +0.062 C 
ATOM      5  C   UNL     1      33.526 -20.459 -19.999  0.00  0.00    +0.143 C 
ATOM      6  C   UNL     1      35.937 -20.375 -19.864  0.00  0.00    +0.143 C 
ATOM      7  C   UNL     1      33.498 -21.379 -18.952  0.00  0.00    +0.045 C 
ATOM      8  C   UNL     1      35.910 -21.295 -18.816  0.00  0.00    +0.045 C 
ENDROOT
BRANCH   3  13
ATOM      9  O   UNL     1      33.393 -16.481 -25.570  0.00  0.00    -0.272 OA
ATOM     10  N   UNL     1      34.630 -17.103 -23.700  0.00  0.00    -0.273 N 
ATOM     11  C   UNL     1      34.074 -19.345 -22.856  0.00  0.00    +0.048 C 
ATOM     12  C   UNL     1      34.596 -18.526 -24.033  0.00  0.00    +0.098 C 
ATOM     13  C   UNL     1      34.773 -18.979 -21.569  0.00  0.00    -0.019 C 
ATOM     14  C   UNL     1      35.423 -16.735 -22.520  0.00  0.00    +0.120 C 
ATOM     15  C   UNL     1      35.386 -17.786 -21.447  0.00  0.00    -0.009 C 
ATOM     16  C   UNL     1      34.059 -16.178 -24.578  0.00  0.00    +0.255 C 
BRANCH  16  17
ATOM     17  C   UNL     1      34.285 -14.721 -24.255  0.00  0.00    +0.217 C 
BRANCH  17  18
ATOM     18  O   UNL     1      33.536 -14.001 -25.212  0.00  0.00    -0.374 OA
ATOM     19  H   UNL     1      34.059 -13.896 -26.022  0.00  0.00    +0.211 HD
ENDBRANCH  17  18
BRANCH  17  20
ATOM     20  C   UNL     1      33.775 -14.397 -22.868  0.00  0.00    +0.176 C 
BRANCH  20  21
ATOM     21  O   UNL     1      34.544 -13.341 -22.310  0.00  0.00    -0.379 OA
ATOM     22  H   UNL     1      34.558 -12.591 -22.925  0.00  0.00    +0.211 HD
ENDBRANCH  20  21
ENDBRANCH  17  20
ENDBRANCH  16  17
ENDBRANCH   3  13
BRANCH   4  25
ATOM     23  O   UNL     1      35.197 -23.907 -15.436  0.00  0.00    -0.432 OA
ATOM     24  O   UNL     1      36.619 -22.250 -16.051  0.00  0.00    -0.226 OA
ATOM     25  N   UNL     1      34.663 -22.738 -17.291  0.00  0.00    -0.221 N 
ATOM     26  C   UNL     1      33.869 -24.315 -15.795  0.00  0.00    +0.234 C 
ATOM     27  C   UNL     1      33.682 -23.785 -17.200  0.00  0.00    +0.149 C 
ATOM     28  C   UNL     1      35.588 -22.875 -16.260  0.00  0.00    +0.409 C 
BRANCH  26  29
ATOM     29  C   UNL     1      32.886 -23.723 -14.795  0.00  0.00    +0.252 C 
BRANCH  29  30
ATOM     30  O   UNL     1      32.068 -22.780 -15.466  0.00  0.00    -0.454 OA
BRANCH  30  33
ATOM     31  O   UNL     1      28.833 -23.123 -16.656  0.00  0.00    -0.347 OA
ATOM     32  N   UNL     1      30.082 -22.513 -16.650  0.00  0.00    -0.039 NA
ATOM     33  C   UNL     1      30.777 -23.159 -15.710  0.00  0.00    +0.264 C 
ATOM     34  C   UNL     1      30.027 -24.177 -15.096  0.00  0.00    +0.104 C 
ATOM     35  C   UNL     1      28.812 -24.113 -15.726  0.00  0.00    +0.217 C 
ENDBRANCH  30  33
ENDBRANCH  29  30
ENDBRANCH  26  29
ENDBRANCH   4  25
TORSDOF 9
ENDMDL
MODEL 2
REMARK VINA RESULT:     -11.4      0.042      1.442
REMARK  Name = 213049
REMARK  9 active torsions:
REMARK  status: ('A' for Active; 'I' for Inactive)
REMARK    1  A    between atoms: C_3  and  C_13
REMARK    2  A    between atoms: C_4  and  N_25
REMARK    3  A    between atoms: C_16  and  C_17
REMARK    4  A    between atoms: C_17  and  O_18
REMARK    5  A    between atoms: C_17  and  C_20
REMARK    6  A    between atoms: C_20  and  O_21
REMARK    7  A    between atoms: C_26  and  C_29
REMARK    8  A    between atoms: C_29  and  O_30
REMARK    9  A    between atoms: O_30  and  C_33
REMARK                            x       y       z     vdW  Elec       q    Type
REMARK                         _______ _______ _______ _____ _____    ______ ____
ROOT
ATOM      1  F   UNL     1      37.109 -19.893 -20.255  0.00  0.00    -0.204 F 
ATOM      2  F   UNL     1      32.365 -20.053 -20.548  0.00  0.00    -0.204 F 
ATOM      3  C   UNL     1      34.737 -19.946 -20.433  0.00  0.00    +0.051 C 
ATOM      4  C   UNL     1      34.671 -21.795 -18.345  0.00  0.00    +0.062 C 
ATOM      5  C   UNL     1      35.925 -20.368 -19.836  0.00  0.00    +0.143 C 
ATOM      6  C   UNL     1      33.516 -20.449 -19.986  0.00  0.00    +0.143 C 
ATOM      7  C   UNL     1      35.893 -21.292 -18.792  0.00  0.00    +0.045 C 
ATOM      8  C   UNL     1      33.482 -21.373 -18.942  0.00  0.00    +0.045 C 
ENDROOT
BRANCH   3  13
ATOM      9  O   UNL     1      33.422 -16.461 -25.551  0.00  0.00    -0.272 OA
ATOM     10  N   UNL     1      34.643 -17.083 -23.669  0.00  0.00    -0.273 N 
ATOM     11  C   UNL     1      34.089 -19.331 -22.838  0.00  0.00    +0.048 C 
ATOM     12  C   UNL     1      34.619 -18.505 -24.007  0.00  0.00    +0.098 C 
ATOM     13  C   UNL     1      34.773 -18.965 -21.543  0.00  0.00    -0.019 C 
ATOM     14  C   UNL     1      35.421 -16.714 -22.480  0.00  0.00    +0.120 C 
ATOM     15  C   UNL     1      35.377 -17.769 -21.411  0.00  0.00    -0.009 C 
ATOM     16  C   UNL     1      34.076 -16.158 -24.550  0.00  0.00    +0.255 C 
BRANCH  16  17
ATOM     17  C   UNL     1      34.292 -14.701 -24.220  0.00  0.00    +0.217 C 
BRANCH  17  18
ATOM     18  O   UNL     1      33.530 -13.982 -25.169  0.00  0.00    -0.374 OA
ATOM     19  H   UNL     1      32.624 -14.329 -25.187  0.00  0.00    +0.211 HD
ENDBRANCH  17  18
BRANCH  17  20
ATOM     20  C   UNL     1      33.787 -14.389 -22.829  0.00  0.00    +0.176 C 
BRANCH  20  21
ATOM     21  O   UNL     1      34.547 -13.327 -22.271  0.00  0.00    -0.379 OA
ATOM     22  H   UNL     1      34.537 -12.570 -22.876  0.00  0.00    +0.211 HD
ENDBRANCH  20  21
ENDBRANCH  17  20
ENDBRANCH  16  17
ENDBRANCH   3  13
BRANCH   4  25
ATOM     23  O   UNL     1      35.156 -23.903 -15.416  0.00  0.00    -0.432 OA
ATOM     24  O   UNL     1      36.571 -22.233 -16.009  0.00  0.00    -0.226 OA
ATOM     25  N   UNL     1      34.638 -22.737 -17.277  0.00  0.00    -0.221 N 
ATOM     26  C   UNL     1      33.837 -24.323 -15.794  0.00  0.00    +0.234 C 
ATOM     27  C   UNL     1      33.665 -23.794 -17.201  0.00  0.00    +0.149 C 
ATOM     28  C   UNL     1      35.550 -22.866 -16.233  0.00  0.00    +0.409 C 
BRANCH  26  29
ATOM     29  C   UNL     1      32.835 -23.741 -14.807  0.00  0.00    +0.252 C 
BRANCH  29  30
ATOM     30  O   UNL     1      32.025 -22.796 -15.486  0.00  0.00    -0.454 OA
BRANCH  30  33
ATOM     31  O   UNL     1      28.782 -23.105 -16.664  0.00  0.00    -0.347 OA
ATOM     32  N   UNL     1      30.032 -22.497 -16.650  0.00  0.00    -0.039 NA
ATOM     33  C   UNL     1      30.732 -23.167 -15.731  0.00  0.00    +0.264 C 
ATOM     34  C   UNL     1      29.985 -24.200 -15.138  0.00  0.00    +0.104 C 
ATOM     35  C   UNL     1      28.766 -24.118 -15.759  0.00  0.00    +0.217 C 
ENDBRANCH  30  33
ENDBRANCH  29  30
ENDBRANCH  26  29
ENDBRANCH   4  25
TORSDOF 9
ENDMDL
MODEL 3
REMARK VINA RESULT:     -11.4      3.338     10.580
REMARK  Name = 213049
REMARK  9 active torsions:
REMARK  status: ('A' for Active; 'I' for Inactive)
REMARK    1  A    between atoms: C_3  and  C_13
REMARK    2  A    between atoms: C_4  and  N_25
REMARK    3  A    between atoms: C_16  and  C_17
REMARK    4  A    between atoms: C_17  and  O_18
REMARK    5  A    between atoms: C_17  and  C_20
REMARK    6  A    between atoms: C_20  and  O_21
REMARK    7  A    between atoms: C_26  and  C_29
REMARK    8  A    between atoms: C_29  and  O_30
REMARK    9  A    between atoms: O_30  and  C_33
REMARK                            x       y       z     vdW  Elec       q    Type
REMARK                         _______ _______ _______ _____ _____    ______ ____
ROOT
ATOM      1  F   UNL     1      32.860 -23.413 -16.832  0.00  0.00    -0.204 F 
ATOM      2  F   UNL     1      37.355 -21.908 -16.448  0.00  0.00    -0.204 F 
ATOM      3  C   UNL     1      35.112 -22.682 -16.605  0.00  0.00    +0.051 C 
ATOM      4  C   UNL     1      34.853 -21.295 -19.012  0.00  0.00    +0.062 C 
ATOM      5  C   UNL     1      33.906 -22.718 -17.304  0.00  0.00    +0.143 C 
ATOM      6  C   UNL     1      36.189 -21.953 -17.109  0.00  0.00    +0.143 C 
ATOM      7  C   UNL     1      33.776 -22.024 -18.507  0.00  0.00    +0.045 C 
ATOM      8  C   UNL     1      36.060 -21.260 -18.312  0.00  0.00    +0.045 C 
ENDROOT
BRANCH   3  13
ATOM      9  O   UNL     1      37.321 -25.781 -11.547  0.00  0.00    -0.272 OA
ATOM     10  N   UNL     1      35.695 -24.755 -12.857  0.00  0.00    -0.273 N 
ATOM     11  C   UNL     1      36.393 -24.395 -15.188  0.00  0.00    +0.048 C 
ATOM     12  C   UNL     1      36.131 -25.417 -14.086  0.00  0.00    +0.098 C 
ATOM     13  C   UNL     1      35.250 -23.419 -15.327  0.00  0.00    -0.019 C 
ATOM     14  C   UNL     1      34.499 -23.909 -12.969  0.00  0.00    +0.120 C 
ATOM     15  C   UNL     1      34.399 -23.224 -14.302  0.00  0.00    -0.009 C 
ATOM     16  C   UNL     1      36.318 -25.071 -11.647  0.00  0.00    +0.255 C 
BRANCH  16  17
ATOM     17  C   UNL     1      35.702 -24.481 -10.402  0.00  0.00    +0.217 C 
BRANCH  17  18
ATOM     18  O   UNL     1      35.415 -25.582  -9.564  0.00  0.00    -0.374 OA
ATOM     19  H   UNL     1      36.244 -25.970  -9.243  0.00  0.00    +0.211 HD
ENDBRANCH  17  18
BRANCH  17  20
ATOM     20  C   UNL     1      36.681 -23.561  -9.707  0.00  0.00    +0.176 C 
BRANCH  20  21
ATOM     21  O   UNL     1      37.403 -22.812 -10.675  0.00  0.00    -0.379 OA
ATOM     22  H   UNL     1      38.354 -22.894 -10.504  0.00  0.00    +0.211 HD
ENDBRANCH  20  21
ENDBRANCH  17  20
ENDBRANCH  16  17
ENDBRANCH   3  13
BRANCH   4  25
ATOM     23  O   UNL     1      33.850 -19.583 -22.065  0.00  0.00    -0.432 OA
ATOM     24  O   UNL     1      32.385 -20.546 -20.625  0.00  0.00    -0.226 OA
ATOM     25  N   UNL     1      34.720 -20.586 -20.239  0.00  0.00    -0.221 N 
ATOM     26  C   UNL     1      35.241 -19.231 -22.041  0.00  0.00    +0.234 C 
ATOM     27  C   UNL     1      35.849 -20.176 -21.029  0.00  0.00    +0.149 C 
ATOM     28  C   UNL     1      33.542 -20.273 -20.913  0.00  0.00    +0.409 C 
BRANCH  26  29
ATOM     29  C   UNL     1      35.369 -17.766 -21.648  0.00  0.00    +0.252 C 
BRANCH  29  30
ATOM     30  O   UNL     1      35.916 -17.048 -22.742  0.00  0.00    -0.454 OA
BRANCH  30  33
ATOM     31  O   UNL     1      33.803 -15.981 -25.271  0.00  0.00    -0.347 OA
ATOM     32  N   UNL     1      34.711 -16.881 -24.727  0.00  0.00    -0.039 NA
ATOM     33  C   UNL     1      35.026 -16.374 -23.532  0.00  0.00    +0.264 C 
ATOM     34  C   UNL     1      34.354 -15.167 -23.269  0.00  0.00    +0.104 C 
ATOM     35  C   UNL     1      33.598 -14.964 -24.394  0.00  0.00    +0.217 C 
ENDBRANCH  30  33
ENDBRANCH  29  30
ENDBRANCH  26  29
ENDBRANCH   4  25
TORSDOF 9
ENDMDL
MODEL 4
REMARK VINA RESULT:     -11.3      2.105      9.723
REMARK  Name = 213049
REMARK  9 active torsions:
REMARK  status: ('A' for Active; 'I' for Inactive)
REMARK    1  A    between atoms: C_3  and  C_13
REMARK    2  A    between atoms: C_4  and  N_25
REMARK    3  A    between atoms: C_16  and  C_17
REMARK    4  A    between atoms: C_17  and  O_18
REMARK    5  A    between atoms: C_17  and  C_20
REMARK    6  A    between atoms: C_20  and  O_21
REMARK    7  A    between atoms: C_26  and  C_29
REMARK    8  A    between atoms: C_29  and  O_30
REMARK    9  A    between atoms: O_30  and  C_33
REMARK                            x       y       z     vdW  Elec       q    Type
REMARK                         _______ _______ _______ _____ _____    ______ ____
ROOT
ATOM      1  F   UNL     1      37.040 -21.262 -19.510  0.00  0.00    -0.204 F 
ATOM      2  F   UNL     1      32.334 -20.622 -19.254  0.00  0.00    -0.204 F 
ATOM      3  C   UNL     1      34.685 -20.966 -19.348  0.00  0.00    +0.051 C 
ATOM      4  C   UNL     1      34.796 -19.272 -21.562  0.00  0.00    +0.062 C 
ATOM      5  C   UNL     1      35.908 -20.705 -19.967  0.00  0.00    +0.143 C 
ATOM      6  C   UNL     1      33.517 -20.380 -19.836  0.00  0.00    +0.143 C 
ATOM      7  C   UNL     1      35.963 -19.859 -21.074  0.00  0.00    +0.045 C 
ATOM      8  C   UNL     1      33.572 -19.533 -20.943  0.00  0.00    +0.045 C 
ENDROOT
BRANCH   3  13
ATOM      9  O   UNL     1      35.197 -23.520 -13.579  0.00  0.00    -0.272 OA
ATOM     10  N   UNL     1      34.511 -23.430 -15.801  0.00  0.00    -0.273 N 
ATOM     11  C   UNL     1      35.717 -21.751 -17.134  0.00  0.00    +0.048 C 
ATOM     12  C   UNL     1      35.826 -23.017 -16.289  0.00  0.00    +0.098 C 
ATOM     13  C   UNL     1      34.627 -21.866 -18.172  0.00  0.00    -0.019 C 
ATOM     14  C   UNL     1      33.487 -23.670 -16.827  0.00  0.00    +0.120 C 
ATOM     15  C   UNL     1      33.628 -22.754 -18.009  0.00  0.00    -0.009 C 
ATOM     16  C   UNL     1      34.341 -23.719 -14.444  0.00  0.00    +0.255 C 
BRANCH  16  17
ATOM     17  C   UNL     1      33.007 -24.303 -14.046  0.00  0.00    +0.217 C 
BRANCH  17  18
ATOM     18  O   UNL     1      33.285 -25.185 -12.978  0.00  0.00    -0.374 OA
ATOM     19  H   UNL     1      33.212 -24.709 -12.137  0.00  0.00    +0.211 HD
ENDBRANCH  17  18
BRANCH  17  20
ATOM     20  C   UNL     1      32.070 -23.216 -13.571  0.00  0.00    +0.176 C 
BRANCH  20  21
ATOM     21  O   UNL     1      32.423 -22.823 -12.252  0.00  0.00    -0.379 OA
ATOM     22  H   UNL     1      32.492 -23.608 -11.688  0.00  0.00    +0.211 HD
ENDBRANCH  20  21
ENDBRANCH  17  20
ENDBRANCH  16  17
ENDBRANCH   3  13
BRANCH   4  25
ATOM     23  O   UNL     1      34.563 -17.539 -24.756  0.00  0.00    -0.432 OA
ATOM     24  O   UNL     1      33.603 -19.553 -24.347  0.00  0.00    -0.226 OA
ATOM     25  N   UNL     1      34.852 -18.409 -22.693  0.00  0.00    -0.221 N 
ATOM     26  C   UNL     1      35.166 -16.503 -23.967  0.00  0.00    +0.234 C 
ATOM     27  C   UNL     1      35.650 -17.213 -22.722  0.00  0.00    +0.149 C 
ATOM     28  C   UNL     1      34.265 -18.609 -23.940  0.00  0.00    +0.409 C 
BRANCH  26  29
ATOM     29  C   UNL     1      34.121 -15.434 -23.680  0.00  0.00    +0.252 C 
BRANCH  29  30
ATOM     30  O   UNL     1      34.584 -14.621 -22.615  0.00  0.00    -0.454 OA
BRANCH  30  33
ATOM     31  O   UNL     1      31.863 -13.281 -20.941  0.00  0.00    -0.347 OA
ATOM     32  N   UNL     1      32.614 -13.497 -22.090  0.00  0.00    -0.039 NA
ATOM     33  C   UNL     1      33.651 -14.238 -21.691  0.00  0.00    +0.264 C 
ATOM     34  C   UNL     1      33.608 -14.520 -20.314  0.00  0.00    +0.104 C 
ATOM     35  C   UNL     1      32.465 -13.895 -19.890  0.00  0.00    +0.217 C 
ENDBRANCH  30  33
ENDBRANCH  29  30
ENDBRANCH  26  29
ENDBRANCH   4  25
TORSDOF 9
ENDMDL
MODEL 5
REMARK VINA RESULT:     -11.3      2.390      4.350
REMARK  Name = 213049
REMARK  9 active torsions:
REMARK  status: ('A' for Active; 'I' for Inactive)
REMARK    1  A    between atoms: C_3  and  C_13
REMARK    2  A    between atoms: C_4  and  N_25
REMARK    3  A    between atoms: C_16  and  C_17
REMARK    4  A    between atoms: C_17  and  O_18
REMARK    5  A    between atoms: C_17  and  C_20
REMARK    6  A    between atoms: C_20  and  O_21
REMARK    7  A    between atoms: C_26  and  C_29
REMARK    8  A    between atoms: C_29  and  O_30
REMARK    9  A    between atoms: O_30  and  C_33
REMARK                            x       y       z     vdW  Elec       q    Type
REMARK                         _______ _______ _______ _____ _____    ______ ____
ROOT
ATOM      1  F   UNL     1      32.456 -20.468 -20.081  0.00  0.00    -0.204 F 
ATOM      2  F   UNL     1      37.206 -20.401 -19.849  0.00  0.00    -0.204 F 
ATOM      3  C   UNL     1      34.833 -20.409 -19.998  0.00  0.00    +0.051 C 
ATOM      4  C   UNL     1      34.745 -22.032 -17.730  0.00  0.00    +0.062 C 
ATOM      5  C   UNL     1      33.605 -20.832 -19.490  0.00  0.00    +0.143 C 
ATOM      6  C   UNL     1      36.017 -20.797 -19.372  0.00  0.00    +0.143 C 
ATOM      7  C   UNL     1      33.560 -21.644 -18.356  0.00  0.00    +0.045 C 
ATOM      8  C   UNL     1      35.974 -21.608 -18.239  0.00  0.00    +0.045 C 
ENDROOT
BRANCH   3  13
ATOM      9  O   UNL     1      33.462 -17.271 -25.321  0.00  0.00    -0.272 OA
ATOM     10  N   UNL     1      34.773 -17.868 -23.494  0.00  0.00    -0.273 N 
ATOM     11  C   UNL     1      34.037 -19.940 -22.391  0.00  0.00    +0.048 C 
ATOM     12  C   UNL     1      34.548 -19.301 -23.679  0.00  0.00    +0.098 C 
ATOM     13  C   UNL     1      34.879 -19.547 -21.202  0.00  0.00    -0.019 C 
ATOM     14  C   UNL     1      35.700 -17.494 -22.417  0.00  0.00    +0.120 C 
ATOM     15  C   UNL     1      35.632 -18.431 -21.245  0.00  0.00    -0.009 C 
ATOM     16  C   UNL     1      34.240 -16.963 -24.415  0.00  0.00    +0.255 C 
BRANCH  16  17
ATOM     17  C   UNL     1      34.657 -15.521 -24.257  0.00  0.00    +0.217 C 
BRANCH  17  18
ATOM     18  O   UNL     1      34.162 -14.857 -25.401  0.00  0.00    -0.374 OA
ATOM     19  H   UNL     1      33.779 -14.005 -25.140  0.00  0.00    +0.211 HD
ENDBRANCH  17  18
BRANCH  17  20
ATOM     20  C   UNL     1      34.036 -14.920 -23.016  0.00  0.00    +0.176 C 
BRANCH  20  21
ATOM     21  O   UNL     1      34.899 -13.926 -22.482  0.00  0.00    -0.379 OA
ATOM     22  H   UNL     1      34.419 -13.087 -22.409  0.00  0.00    +0.211 HD
ENDBRANCH  20  21
ENDBRANCH  17  20
ENDBRANCH  16  17
ENDBRANCH   3  13
BRANCH   4  25
ATOM     23  O   UNL     1      33.988 -24.262 -14.953  0.00  0.00    -0.432 OA
ATOM     24  O   UNL     1      32.481 -23.684 -16.547  0.00  0.00    -0.226 OA
ATOM     25  N   UNL     1      34.700 -22.862 -16.574  0.00  0.00    -0.221 N 
ATOM     26  C   UNL     1      35.408 -24.146 -14.784  0.00  0.00    +0.234 C 
ATOM     27  C   UNL     1      35.792 -22.963 -15.644  0.00  0.00    +0.149 C 
ATOM     28  C   UNL     1      33.616 -23.598 -16.102  0.00  0.00    +0.409 C 
BRANCH  26  29
ATOM     29  C   UNL     1      36.062 -25.448 -15.226  0.00  0.00    +0.252 C 
BRANCH  29  30
ATOM     30  O   UNL     1      36.721 -26.026 -14.112  0.00  0.00    -0.454 OA
BRANCH  30  33
ATOM     31  O   UNL     1      40.079 -26.863 -14.262  0.00  0.00    -0.347 OA
ATOM     32  N   UNL     1      38.729 -27.194 -14.249  0.00  0.00    -0.039 NA
ATOM     33  C   UNL     1      38.088 -26.027 -14.148  0.00  0.00    +0.264 C 
ATOM     34  C   UNL     1      38.972 -24.935 -14.095  0.00  0.00    +0.104 C 
ATOM     35  C   UNL     1      40.211 -25.514 -14.170  0.00  0.00    +0.217 C 
ENDBRANCH  30  33
ENDBRANCH  29  30
ENDBRANCH  26  29
ENDBRANCH   4  25
TORSDOF 9
ENDMDL
MODEL 6
REMARK VINA RESULT:     -11.1      2.136      3.212
REMARK  Name = 213049
REMARK  9 active torsions:
REMARK  status: ('A' for Active; 'I' for Inactive)
REMARK    1  A    between atoms: C_3  and  C_13
REMARK    2  A    between atoms: C_4  and  N_25
REMARK    3  A    between atoms: C_16  and  C_17
REMARK    4  A    between atoms: C_17  and  O_18
REMARK    5  A    between atoms: C_17  and  C_20
REMARK    6  A    between atoms: C_20  and  O_21
REMARK    7  A    between atoms: C_26  and  C_29
REMARK    8  A    between atoms: C_29  and  O_30
REMARK    9  A    between atoms: O_30  and  C_33
REMARK                            x       y       z     vdW  Elec       q    Type
REMARK                         _______ _______ _______ _____ _____    ______ ____
ROOT
ATOM      1  F   UNL     1      32.721 -20.338 -20.369  0.00  0.00    -0.204 F 
ATOM      2  F   UNL     1      37.434 -19.719 -20.227  0.00  0.00    -0.204 F 
ATOM      3  C   UNL     1      35.076 -20.001 -20.330  0.00  0.00    +0.051 C 
ATOM      4  C   UNL     1      35.240 -21.749 -18.161  0.00  0.00    +0.062 C 
ATOM      5  C   UNL     1      33.920 -20.596 -19.823  0.00  0.00    +0.143 C 
ATOM      6  C   UNL     1      36.314 -20.281 -19.751  0.00  0.00    +0.143 C 
ATOM      7  C   UNL     1      34.001 -21.470 -18.739  0.00  0.00    +0.045 C 
ATOM      8  C   UNL     1      36.396 -21.154 -18.667  0.00  0.00    +0.045 C 
ENDROOT
BRANCH   3  13
ATOM      9  O   UNL     1      33.196 -16.738 -25.416  0.00  0.00    -0.272 OA
ATOM     10  N   UNL     1      34.625 -17.289 -23.664  0.00  0.00    -0.273 N 
ATOM     11  C   UNL     1      34.154 -19.488 -22.668  0.00  0.00    +0.048 C 
ATOM     12  C   UNL     1      34.548 -18.725 -23.929  0.00  0.00    +0.098 C 
ATOM     13  C   UNL     1      34.988 -19.073 -21.481  0.00  0.00    -0.019 C 
ATOM     14  C   UNL     1      35.542 -16.877 -22.593  0.00  0.00    +0.120 C 
ATOM     15  C   UNL     1      35.615 -17.881 -21.478  0.00  0.00    -0.009 C 
ATOM     16  C   UNL     1      33.966 -16.398 -24.515  0.00  0.00    +0.255 C 
BRANCH  16  17
ATOM     17  C   UNL     1      34.232 -14.930 -24.283  0.00  0.00    +0.217 C 
BRANCH  17  18
ATOM     18  O   UNL     1      33.521 -14.252 -25.299  0.00  0.00    -0.374 OA
ATOM     19  H   UNL     1      33.003 -13.532 -24.907  0.00  0.00    +0.211 HD
ENDBRANCH  17  18
BRANCH  17  20
ATOM     20  C   UNL     1      33.708 -14.502 -22.930  0.00  0.00    +0.176 C 
BRANCH  20  21
ATOM     21  O   UNL     1      34.529 -13.469 -22.404  0.00  0.00    -0.379 OA
ATOM     22  H   UNL     1      35.435 -13.799 -22.298  0.00  0.00    +0.211 HD
ENDBRANCH  20  21
ENDBRANCH  17  20
ENDBRANCH  16  17
ENDBRANCH   3  13
BRANCH   4  25
ATOM     23  O   UNL     1      36.102 -23.842 -15.309  0.00  0.00    -0.432 OA
ATOM     24  O   UNL     1      37.581 -22.484 -16.363  0.00  0.00    -0.226 OA
ATOM     25  N   UNL     1      35.324 -22.643 -17.056  0.00  0.00    -0.221 N 
ATOM     26  C   UNL     1      34.677 -24.013 -15.306  0.00  0.00    +0.234 C 
ATOM     27  C   UNL     1      34.235 -23.494 -16.657  0.00  0.00    +0.149 C 
ATOM     28  C   UNL     1      36.442 -22.918 -16.272  0.00  0.00    +0.409 C 
BRANCH  26  29
ATOM     29  C   UNL     1      34.091 -23.229 -14.141  0.00  0.00    +0.252 C 
BRANCH  29  30
ATOM     30  O   UNL     1      33.955 -24.100 -13.030  0.00  0.00    -0.454 OA
BRANCH  30  33
ATOM     31  O   UNL     1      36.088 -24.684 -10.364  0.00  0.00    -0.347 OA
ATOM     32  N   UNL     1      34.935 -24.944 -11.095  0.00  0.00    -0.039 NA
ATOM     33  C   UNL     1      34.974 -24.086 -12.118  0.00  0.00    +0.264 C 
ATOM     34  C   UNL     1      36.116 -23.267 -12.086  0.00  0.00    +0.104 C 
ATOM     35  C   UNL     1      36.784 -23.683 -10.964  0.00  0.00    +0.217 C 
ENDBRANCH  30  33
ENDBRANCH  29  30
ENDBRANCH  26  29
ENDBRANCH   4  25
TORSDOF 9
ENDMDL
MODEL 7
REMARK VINA RESULT:     -11.0      3.901      6.033
REMARK  Name = 213049
REMARK  9 active torsions:
REMARK  status: ('A' for Active; 'I' for Inactive)
REMARK    1  A    between atoms: C_3  and  C_13
REMARK    2  A    between atoms: C_4  and  N_25
REMARK    3  A    between atoms: C_16  and  C_17
REMARK    4  A    between atoms: C_17  and  O_18
REMARK    5  A    between atoms: C_17  and  C_20
REMARK    6  A    between atoms: C_20  and  O_21
REMARK    7  A    between atoms: C_26  and  C_29
REMARK    8  A    between atoms: C_29  and  O_30
REMARK    9  A    between atoms: O_30  and  C_33
REMARK                            x       y       z     vdW  Elec       q    Type
REMARK                         _______ _______ _______ _____ _____    ______ ____
ROOT
ATOM      1  F   UNL     1      34.256 -14.204 -19.872  0.00  0.00    -0.204 F 
ATOM      2  F   UNL     1      34.254 -15.312 -24.497  0.00  0.00    -0.204 F 
ATOM      3  C   UNL     1      34.242 -14.720 -22.194  0.00  0.00    +0.051 C 
ATOM      4  C   UNL     1      35.203 -17.267 -21.583  0.00  0.00    +0.062 C 
ATOM      5  C   UNL     1      34.483 -15.076 -20.867  0.00  0.00    +0.143 C 
ATOM      6  C   UNL     1      34.482 -15.638 -23.216  0.00  0.00    +0.143 C 
ATOM      7  C   UNL     1      34.963 -16.349 -20.561  0.00  0.00    +0.045 C 
ATOM      8  C   UNL     1      34.963 -16.911 -22.912  0.00  0.00    +0.045 C 
ENDROOT
BRANCH   3  13
ATOM      9  O   UNL     1      31.578  -8.983 -21.980  0.00  0.00    -0.272 OA
ATOM     10  N   UNL     1      32.778 -10.724 -22.950  0.00  0.00    -0.273 N 
ATOM     11  C   UNL     1      32.512 -12.872 -21.781  0.00  0.00    +0.048 C 
ATOM     12  C   UNL     1      31.815 -11.744 -22.537  0.00  0.00    +0.098 C 
ATOM     13  C   UNL     1      33.732 -13.367 -22.518  0.00  0.00    -0.019 C 
ATOM     14  C   UNL     1      33.896 -11.190 -23.781  0.00  0.00    +0.120 C 
ATOM     15  C   UNL     1      34.337 -12.582 -23.429  0.00  0.00    -0.009 C 
ATOM     16  C   UNL     1      32.515  -9.379 -22.677  0.00  0.00    +0.255 C 
BRANCH  16  17
ATOM     17  C   UNL     1      33.464  -8.374 -23.283  0.00  0.00    +0.217 C 
BRANCH  17  18
ATOM     18  O   UNL     1      32.720  -7.707 -24.282  0.00  0.00    -0.374 OA
ATOM     19  H   UNL     1      32.417  -8.348 -24.943  0.00  0.00    +0.211 HD
ENDBRANCH  17  18
BRANCH  17  20
ATOM     20  C   UNL     1      33.919  -7.376 -22.242  0.00  0.00    +0.176 C 
BRANCH  20  21
ATOM     21  O   UNL     1      32.910  -6.395 -22.046  0.00  0.00    -0.379 OA
ATOM     22  H   UNL     1      32.123  -6.634 -22.561  0.00  0.00    +0.211 HD
ENDBRANCH  20  21
ENDBRANCH  17  20
ENDBRANCH  16  17
ENDBRANCH   3  13
BRANCH   4  25
ATOM     23  O   UNL     1      37.063 -20.299 -20.804  0.00  0.00    -0.432 OA
ATOM     24  O   UNL     1      38.040 -18.284 -21.165  0.00  0.00    -0.226 OA
ATOM     25  N   UNL     1      35.692 -18.567 -21.272  0.00  0.00    -0.221 N 
ATOM     26  C   UNL     1      35.729 -20.773 -20.573  0.00  0.00    +0.234 C 
ATOM     27  C   UNL     1      34.843 -19.726 -21.211  0.00  0.00    +0.149 C 
ATOM     28  C   UNL     1      37.018 -18.951 -21.086  0.00  0.00    +0.409 C 
BRANCH  26  29
ATOM     29  C   UNL     1      35.510 -20.910 -19.073  0.00  0.00    +0.252 C 
BRANCH  29  30
ATOM     30  O   UNL     1      35.202 -22.263 -18.781  0.00  0.00    -0.454 OA
BRANCH  30  33
ATOM     31  O   UNL     1      31.946 -22.419 -17.610  0.00  0.00    -0.347 OA
ATOM     32  N   UNL     1      32.897 -22.041 -18.550  0.00  0.00    -0.039 NA
ATOM     33  C   UNL     1      34.059 -22.486 -18.065  0.00  0.00    +0.264 C 
ATOM     34  C   UNL     1      33.905 -23.148 -16.834  0.00  0.00    +0.104 C 
ATOM     35  C   UNL     1      32.558 -23.078 -16.592  0.00  0.00    +0.217 C 
ENDBRANCH  30  33
ENDBRANCH  29  30
ENDBRANCH  26  29
ENDBRANCH   4  25
TORSDOF 9
ENDMDL
MODEL 8
REMARK VINA RESULT:     -10.9      2.711      9.845
REMARK  Name = 213049
REMARK  9 active torsions:
REMARK  status: ('A' for Active; 'I' for Inactive)
REMARK    1  A    between atoms: C_3  and  C_13
REMARK    2  A    between atoms: C_4  and  N_25
REMARK    3  A    between atoms: C_16  and  C_17
REMARK    4  A    between atoms: C_17  and  O_18
REMARK    5  A    between atoms: C_17  and  C_20
REMARK    6  A    between atoms: C_20  and  O_21
REMARK    7  A    between atoms: C_26  and  C_29
REMARK    8  A    between atoms: C_29  and  O_30
REMARK    9  A    between atoms: O_30  and  C_33
REMARK                            x       y       z     vdW  Elec       q    Type
REMARK                         _______ _______ _______ _____ _____    ______ ____
ROOT
ATOM      1  F   UNL     1      37.776 -19.807 -19.275  0.00  0.00    -0.204 F 
ATOM      2  F   UNL     1      33.252 -21.248 -19.540  0.00  0.00    -0.204 F 
ATOM      3  C   UNL     1      35.518 -20.550 -19.373  0.00  0.00    +0.051 C 
ATOM      4  C   UNL     1      35.166 -19.018 -21.677  0.00  0.00    +0.062 C 
ATOM      5  C   UNL     1      36.579 -19.801 -19.882  0.00  0.00    +0.143 C 
ATOM      6  C   UNL     1      34.281 -20.533 -20.016  0.00  0.00    +0.143 C 
ATOM      7  C   UNL     1      36.404 -19.035 -21.034  0.00  0.00    +0.045 C 
ATOM      8  C   UNL     1      34.104 -19.767 -21.168  0.00  0.00    +0.045 C 
ENDROOT
BRANCH   3  13
ATOM      9  O   UNL     1      35.545 -25.185 -15.063  0.00  0.00    -0.272 OA
ATOM     10  N   UNL     1      36.068 -23.084 -15.915  0.00  0.00    -0.273 N 
ATOM     11  C   UNL     1      34.686 -22.434 -17.843  0.00  0.00    +0.048 C 
ATOM     12  C   UNL     1      34.703 -22.823 -16.367  0.00  0.00    +0.098 C 
ATOM     13  C   UNL     1      35.705 -21.363 -18.148  0.00  0.00    -0.019 C 
ATOM     14  C   UNL     1      37.029 -21.988 -16.094  0.00  0.00    +0.120 C 
ATOM     15  C   UNL     1      36.759 -21.178 -17.330  0.00  0.00    -0.009 C 
ATOM     16  C   UNL     1      36.348 -24.262 -15.216  0.00  0.00    +0.255 C 
BRANCH  16  17
ATOM     17  C   UNL     1      37.734 -24.381 -14.633  0.00  0.00    +0.217 C 
BRANCH  17  18
ATOM     18  O   UNL     1      37.705 -23.635 -13.433  0.00  0.00    -0.374 OA
ATOM     19  H   UNL     1      37.357 -24.188 -12.716  0.00  0.00    +0.211 HD
ENDBRANCH  17  18
BRANCH  17  20
ATOM     20  C   UNL     1      38.058 -25.825 -14.320  0.00  0.00    +0.176 C 
BRANCH  20  21
ATOM     21  O   UNL     1      37.798 -26.632 -15.460  0.00  0.00    -0.379 OA
ATOM     22  H   UNL     1      37.054 -26.258 -15.957  0.00  0.00    +0.211 HD
ENDBRANCH  20  21
ENDBRANCH  17  20
ENDBRANCH  16  17
ENDBRANCH   3  13
BRANCH   4  25
ATOM     23  O   UNL     1      34.369 -17.560 -24.917  0.00  0.00    -0.432 OA
ATOM     24  O   UNL     1      33.736 -19.645 -24.288  0.00  0.00    -0.226 OA
ATOM     25  N   UNL     1      34.987 -18.237 -22.855  0.00  0.00    -0.221 N 
ATOM     26  C   UNL     1      34.907 -16.402 -24.263  0.00  0.00    +0.234 C 
ATOM     27  C   UNL     1      35.610 -16.955 -23.042  0.00  0.00    +0.149 C 
ATOM     28  C   UNL     1      34.304 -18.598 -24.014  0.00  0.00    +0.409 C 
BRANCH  26  29
ATOM     29  C   UNL     1      33.765 -15.457 -23.919  0.00  0.00    +0.252 C 
BRANCH  29  30
ATOM     30  O   UNL     1      34.260 -14.434 -23.072  0.00  0.00    -0.454 OA
BRANCH  30  33
ATOM     31  O   UNL     1      31.822 -13.149 -20.974  0.00  0.00    -0.347 OA
ATOM     32  N   UNL     1      32.403 -13.315 -22.225  0.00  0.00    -0.039 NA
ATOM     33  C   UNL     1      33.471 -14.088 -22.010  0.00  0.00    +0.264 C 
ATOM     34  C   UNL     1      33.614 -14.438 -20.656  0.00  0.00    +0.104 C 
ATOM     35  C   UNL     1      32.553 -13.822 -20.047  0.00  0.00    +0.217 C 
ENDBRANCH  30  33
ENDBRANCH  29  30
ENDBRANCH  26  29
ENDBRANCH   4  25
TORSDOF 9
ENDMDL
MODEL 9
REMARK VINA RESULT:     -10.8      3.906      6.450
REMARK  Name = 213049
REMARK  9 active torsions:
REMARK  status: ('A' for Active; 'I' for Inactive)
REMARK    1  A    between atoms: C_3  and  C_13
REMARK    2  A    between atoms: C_4  and  N_25
REMARK    3  A    between atoms: C_16  and  C_17
REMARK    4  A    between atoms: C_17  and  O_18
REMARK    5  A    between atoms: C_17  and  C_20
REMARK    6  A    between atoms: C_20  and  O_21
REMARK    7  A    between atoms: C_26  and  C_29
REMARK    8  A    between atoms: C_29  and  O_30
REMARK    9  A    between atoms: O_30  and  C_33
REMARK                            x       y       z     vdW  Elec       q    Type
REMARK                         _______ _______ _______ _____ _____    ______ ____
ROOT
ATOM      1  F   UNL     1      34.229 -15.292 -24.515  0.00  0.00    -0.204 F 
ATOM      2  F   UNL     1      34.353 -14.118 -19.908  0.00  0.00    -0.204 F 
ATOM      3  C   UNL     1      34.276 -14.667 -22.220  0.00  0.00    +0.051 C 
ATOM      4  C   UNL     1      35.172 -17.233 -21.591  0.00  0.00    +0.062 C 
ATOM      5  C   UNL     1      34.469 -15.607 -23.233  0.00  0.00    +0.143 C 
ATOM      6  C   UNL     1      34.532 -15.010 -20.893  0.00  0.00    +0.143 C 
ATOM      7  C   UNL     1      34.917 -16.889 -22.919  0.00  0.00    +0.045 C 
ATOM      8  C   UNL     1      34.979 -16.293 -20.578  0.00  0.00    +0.045 C 
ENDROOT
BRANCH   3  13
ATOM      9  O   UNL     1      31.804  -8.843 -22.037  0.00  0.00    -0.272 OA
ATOM     10  N   UNL     1      32.920 -10.639 -23.008  0.00  0.00    -0.273 N 
ATOM     11  C   UNL     1      32.619 -12.756 -21.792  0.00  0.00    +0.048 C 
ATOM     12  C   UNL     1      31.937 -11.620 -22.549  0.00  0.00    +0.098 C 
ATOM     13  C   UNL     1      33.800 -13.304 -22.555  0.00  0.00    -0.019 C 
ATOM     14  C   UNL     1      33.998 -11.155 -23.862  0.00  0.00    +0.120 C 
ATOM     15  C   UNL     1      34.404 -12.555 -23.497  0.00  0.00    -0.009 C 
ATOM     16  C   UNL     1      32.707  -9.282 -22.752  0.00  0.00    +0.255 C 
BRANCH  16  17
ATOM     17  C   UNL     1      33.670  -8.319 -23.403  0.00  0.00    +0.217 C 
BRANCH  17  18
ATOM     18  O   UNL     1      32.902  -7.594 -24.341  0.00  0.00    -0.374 OA
ATOM     19  H   UNL     1      33.479  -7.264 -25.048  0.00  0.00    +0.211 HD
ENDBRANCH  17  18
BRANCH  17  20
ATOM     20  C   UNL     1      34.245  -7.366 -22.379  0.00  0.00    +0.176 C 
BRANCH  20  21
ATOM     21  O   UNL     1      33.283  -6.372 -22.057  0.00  0.00    -0.379 OA
ATOM     22  H   UNL     1      33.462  -5.570 -22.573  0.00  0.00    +0.211 HD
ENDBRANCH  20  21
ENDBRANCH  17  20
ENDBRANCH  16  17
ENDBRANCH   3  13
BRANCH   4  25
ATOM     23  O   UNL     1      36.957 -20.295 -20.758  0.00  0.00    -0.432 OA
ATOM     24  O   UNL     1      37.974 -18.289 -21.055  0.00  0.00    -0.226 OA
ATOM     25  N   UNL     1      35.631 -18.542 -21.270  0.00  0.00    -0.221 N 
ATOM     26  C   UNL     1      35.609 -20.755 -20.592  0.00  0.00    +0.234 C 
ATOM     27  C   UNL     1      34.766 -19.691 -21.260  0.00  0.00    +0.149 C 
ATOM     28  C   UNL     1      36.942 -18.944 -21.028  0.00  0.00    +0.409 C 
BRANCH  26  29
ATOM     29  C   UNL     1      35.320 -20.903 -19.105  0.00  0.00    +0.252 C 
BRANCH  29  30
ATOM     30  O   UNL     1      36.535 -21.188 -18.433  0.00  0.00    -0.454 OA
BRANCH  30  33
ATOM     31  O   UNL     1      35.575 -23.343 -15.896  0.00  0.00    -0.347 OA
ATOM     32  N   UNL     1      35.383 -22.736 -17.131  0.00  0.00    -0.039 NA
ATOM     33  C   UNL     1      36.438 -21.933 -17.290  0.00  0.00    +0.264 C 
ATOM     34  C   UNL     1      37.322 -21.990 -16.198  0.00  0.00    +0.104 C 
ATOM     35  C   UNL     1      36.733 -22.890 -15.349  0.00  0.00    +0.217 C 
ENDBRANCH  30  33
ENDBRANCH  29  30
ENDBRANCH  26  29
ENDBRANCH   4  25
TORSDOF 9
ENDMDL
